MODEL 1
REMARK VINA RESULT:      -6.0      0.000      0.000
REMARK  Name = 
REMARK  6 active torsions:
REMARK  status: ('A' for Active; 'I' for Inactive)
REMARK    1  A    between atoms: C_1  and  O_2
REMARK    2  A    between atoms: O_2  and  C_3
REMARK    3  A    between atoms: C_10  and  C_11
REMARK    4  A    between atoms: C_11  and  C_12
REMARK    5  A    between atoms: C_12  and  C_13
REMARK    6  A    between atoms: C_13  and  C_14
REMARK                            x       y       z     vdW  Elec       q    Type
REMARK                         _______ _______ _______ _____ _____    ______ ____
ROOT
ATOM      1  C   UNL     1      10.175   2.062  23.230  0.00  0.00    +0.121 A 
ATOM      2  C   UNL     1      10.008   1.573  21.935  0.00  0.00    +0.046 A 
ATOM      3  C   UNL     1       9.578   0.258  21.726  0.00  0.00    +0.012 A 
ATOM      4  C   UNL     1       9.307  -0.589  22.816  0.00  0.00    -0.017 A 
ATOM      5  C   UNL     1       8.835  -1.905  22.654  0.00  0.00    +0.012 A 
ATOM      6  C   UNL     1       8.545  -2.724  23.762  0.00  0.00    -0.046 A 
ATOM      7  C   UNL     1       8.785  -2.220  25.044  0.00  0.00    +0.004 A 
ATOM      8  C   UNL     1       9.261  -0.922  25.222  0.00  0.00    +0.009 A 
ATOM      9  C   UNL     1       9.515  -0.097  24.122  0.00  0.00    -0.014 A 
ATOM     10  C   UNL     1       9.965   1.213  24.314  0.00  0.00    +0.054 A 
ENDROOT
BRANCH   1  12
ATOM     11  C   UNL     1       9.590   4.229  23.929  0.00  0.00    +0.277 C 
ATOM     12  O   UNL     1      10.565   3.369  23.342  0.00  0.00    -0.495 OA
ENDBRANCH   1  12
BRANCH   6  13
ATOM     13  C   UNL     1       8.052  -4.136  23.538  0.00  0.00    +0.042 C 
BRANCH  13  14
ATOM     14  C   UNL     1       6.536  -4.269  23.374  0.00  0.00    +0.078 C 
BRANCH  14  15
ATOM     15  C   UNL     1       6.120  -4.392  21.925  0.00  0.00    +0.131 C 
ATOM     16  O   UNL     1       5.575  -3.474  21.309  0.00  0.00    -0.298 OA
ATOM     17  C   UNL     1       6.414  -5.703  21.245  0.00  0.00    +0.086 C 
ENDBRANCH  14  15
ENDBRANCH  13  14
ENDBRANCH   6  13
TORSDOF 4
ENDMDL
MODEL 2
REMARK VINA RESULT:      -6.0      2.387      6.879
REMARK  Name = 
REMARK  6 active torsions:
REMARK  status: ('A' for Active; 'I' for Inactive)
REMARK    1  A    between atoms: C_1  and  O_2
REMARK    2  A    between atoms: O_2  and  C_3
REMARK    3  A    between atoms: C_10  and  C_11
REMARK    4  A    between atoms: C_11  and  C_12
REMARK    5  A    between atoms: C_12  and  C_13
REMARK    6  A    between atoms: C_13  and  C_14
REMARK                            x       y       z     vdW  Elec       q    Type
REMARK                         _______ _______ _______ _____ _____    ______ ____
ROOT
ATOM      1  C   UNL     1       6.757  -5.573  26.085  0.00  0.00    +0.121 A 
ATOM      2  C   UNL     1       7.949  -5.272  26.743  0.00  0.00    +0.046 A 
ATOM      3  C   UNL     1       8.880  -4.405  26.158  0.00  0.00    +0.012 A 
ATOM      4  C   UNL     1       8.628  -3.827  24.901  0.00  0.00    -0.017 A 
ATOM      5  C   UNL     1       9.518  -2.921  24.292  0.00  0.00    +0.012 A 
ATOM      6  C   UNL     1       9.230  -2.335  23.044  0.00  0.00    -0.046 A 
ATOM      7  C   UNL     1       8.055  -2.710  22.386  0.00  0.00    +0.004 A 
ATOM      8  C   UNL     1       7.169  -3.613  22.970  0.00  0.00    +0.009 A 
ATOM      9  C   UNL     1       7.437  -4.168  24.225  0.00  0.00    -0.014 A 
ATOM     10  C   UNL     1       6.526  -5.051  24.814  0.00  0.00    +0.054 A 
ENDROOT
BRANCH   1  12
ATOM     11  C   UNL     1       4.718  -6.739  26.004  0.00  0.00    +0.277 C 
ATOM     12  O   UNL     1       5.889  -6.400  26.744  0.00  0.00    -0.495 OA
ENDBRANCH   1  12
BRANCH   6  13
ATOM     13  C   UNL     1      10.223  -1.376  22.424  0.00  0.00    +0.042 C 
BRANCH  13  14
ATOM     14  C   UNL     1       9.625  -0.047  21.955  0.00  0.00    +0.078 C 
BRANCH  14  15
ATOM     15  C   UNL     1      10.177   1.136  22.719  0.00  0.00    +0.131 C 
ATOM     16  O   UNL     1      10.234   2.270  22.239  0.00  0.00    -0.298 OA
ATOM     17  C   UNL     1      10.654   0.873  24.123  0.00  0.00    +0.086 C 
ENDBRANCH  14  15
ENDBRANCH  13  14
ENDBRANCH   6  13
TORSDOF 4
ENDMDL
MODEL 3
REMARK VINA RESULT:      -6.0      1.454      7.160
REMARK  Name = 
REMARK  6 active torsions:
REMARK  status: ('A' for Active; 'I' for Inactive)
REMARK    1  A    between atoms: C_1  and  O_2
REMARK    2  A    between atoms: O_2  and  C_3
REMARK    3  A    between atoms: C_10  and  C_11
REMARK    4  A    between atoms: C_11  and  C_12
REMARK    5  A    between atoms: C_12  and  C_13
REMARK    6  A    between atoms: C_13  and  C_14
REMARK                            x       y       z     vdW  Elec       q    Type
REMARK                         _______ _______ _______ _____ _____    ______ ____
ROOT
ATOM      1  C   UNL     1       8.481  -2.862  23.221  0.00  0.00    +0.121 A 
ATOM      2  C   UNL     1       8.893  -2.596  24.526  0.00  0.00    +0.046 A 
ATOM      3  C   UNL     1       9.458  -1.357  24.850  0.00  0.00    +0.012 A 
ATOM      4  C   UNL     1       9.617  -0.364  23.867  0.00  0.00    -0.017 A 
ATOM      5  C   UNL     1      10.144   0.910  24.155  0.00  0.00    +0.012 A 
ATOM      6  C   UNL     1      10.268   1.897  23.159  0.00  0.00    -0.046 A 
ATOM      7  C   UNL     1       9.903   1.571  21.849  0.00  0.00    +0.004 A 
ATOM      8  C   UNL     1       9.389   0.312  21.545  0.00  0.00    +0.009 A 
ATOM      9  C   UNL     1       9.233  -0.656  22.541  0.00  0.00    -0.014 A 
ATOM     10  C   UNL     1       8.689  -1.906  22.229  0.00  0.00    +0.054 A 
ENDROOT
BRANCH   1  12
ATOM     11  C   UNL     1       6.795  -4.065  22.110  0.00  0.00    +0.277 C 
ATOM     12  O   UNL     1       7.909  -4.086  23.000  0.00  0.00    -0.495 OA
ENDBRANCH   1  12
BRANCH   6  13
ATOM     13  C   UNL     1      10.851   3.247  23.514  0.00  0.00    +0.042 C 
BRANCH  13  14
ATOM     14  C   UNL     1       9.819   4.320  23.866  0.00  0.00    +0.078 C 
BRANCH  14  15
ATOM     15  C   UNL     1      10.376   5.721  23.743  0.00  0.00    +0.131 C 
ATOM     16  O   UNL     1       9.658   6.712  23.597  0.00  0.00    -0.298 OA
ATOM     17  C   UNL     1      11.873   5.863  23.818  0.00  0.00    +0.086 C 
ENDBRANCH  14  15
ENDBRANCH  13  14
ENDBRANCH   6  13
TORSDOF 4
ENDMDL
MODEL 4
REMARK VINA RESULT:      -5.9      2.361      2.566
REMARK  Name = 
REMARK  6 active torsions:
REMARK  status: ('A' for Active; 'I' for Inactive)
REMARK    1  A    between atoms: C_1  and  O_2
REMARK    2  A    between atoms: O_2  and  C_3
REMARK    3  A    between atoms: C_10  and  C_11
REMARK    4  A    between atoms: C_11  and  C_12
REMARK    5  A    between atoms: C_12  and  C_13
REMARK    6  A    between atoms: C_13  and  C_14
REMARK                            x       y       z     vdW  Elec       q    Type
REMARK                         _______ _______ _______ _____ _____    ______ ____
ROOT
ATOM      1  C   UNL     1       9.997   2.283  23.418  0.00  0.00    +0.121 A 
ATOM      2  C   UNL     1      10.134   1.589  22.216  0.00  0.00    +0.046 A 
ATOM      3  C   UNL     1       9.923   0.205  22.171  0.00  0.00    +0.012 A 
ATOM      4  C   UNL     1       9.572  -0.504  23.333  0.00  0.00    -0.017 A 
ATOM      5  C   UNL     1       9.313  -1.888  23.327  0.00  0.00    +0.012 A 
ATOM      6  C   UNL     1       8.936  -2.570  24.499  0.00  0.00    -0.046 A 
ATOM      7  C   UNL     1       8.871  -1.852  25.697  0.00  0.00    +0.004 A 
ATOM      8  C   UNL     1       9.134  -0.484  25.722  0.00  0.00    +0.009 A 
ATOM      9  C   UNL     1       9.473   0.201  24.552  0.00  0.00    -0.014 A 
ATOM     10  C   UNL     1       9.706   1.580  24.585  0.00  0.00    +0.054 A 
ENDROOT
BRANCH   1  12
ATOM     11  C   UNL     1      11.554   4.041  23.332  0.00  0.00    +0.277 C 
ATOM     12  O   UNL     1      10.186   3.637  23.364  0.00  0.00    -0.495 OA
ENDBRANCH   1  12
BRANCH   6  13
ATOM     13  C   UNL     1       8.680  -4.060  24.446  0.00  0.00    +0.042 C 
BRANCH  13  14
ATOM     14  C   UNL     1       8.953  -4.806  25.754  0.00  0.00    +0.078 C 
BRANCH  14  15
ATOM     15  C   UNL     1       7.686  -5.316  26.404  0.00  0.00    +0.131 C 
ATOM     16  O   UNL     1       7.649  -5.710  27.571  0.00  0.00    -0.298 OA
ATOM     17  C   UNL     1       6.442  -5.314  25.555  0.00  0.00    +0.086 C 
ENDBRANCH  14  15
ENDBRANCH  13  14
ENDBRANCH   6  13
TORSDOF 4
ENDMDL
MODEL 5
REMARK VINA RESULT:      -5.7      1.865      6.621
REMARK  Name = 
REMARK  6 active torsions:
REMARK  status: ('A' for Active; 'I' for Inactive)
REMARK    1  A    between atoms: C_1  and  O_2
REMARK    2  A    between atoms: O_2  and  C_3
REMARK    3  A    between atoms: C_10  and  C_11
REMARK    4  A    between atoms: C_11  and  C_12
REMARK    5  A    between atoms: C_12  and  C_13
REMARK    6  A    between atoms: C_13  and  C_14
REMARK                            x       y       z     vdW  Elec       q    Type
REMARK                         _______ _______ _______ _____ _____    ______ ____
ROOT
ATOM      1  C   UNL     1       5.776  -5.586  23.704  0.00  0.00    +0.121 A 
ATOM      2  C   UNL     1       5.352  -4.908  22.562  0.00  0.00    +0.046 A 
ATOM      3  C   UNL     1       6.105  -3.844  22.051  0.00  0.00    +0.012 A 
ATOM      4  C   UNL     1       7.297  -3.443  22.681  0.00  0.00    -0.017 A 
ATOM      5  C   UNL     1       8.106  -2.405  22.181  0.00  0.00    +0.012 A 
ATOM      6  C   UNL     1       9.309  -2.040  22.814  0.00  0.00    -0.046 A 
ATOM      7  C   UNL     1       9.669  -2.701  23.994  0.00  0.00    +0.004 A 
ATOM      8  C   UNL     1       8.874  -3.724  24.507  0.00  0.00    +0.009 A 
ATOM      9  C   UNL     1       7.698  -4.110  23.858  0.00  0.00    -0.014 A 
ATOM     10  C   UNL     1       6.924  -5.159  24.367  0.00  0.00    +0.054 A 
ENDROOT
BRANCH   1  12
ATOM     11  C   UNL     1       4.723  -6.655  25.514  0.00  0.00    +0.277 C 
ATOM     12  O   UNL     1       4.998  -6.635  24.114  0.00  0.00    -0.495 OA
ENDBRANCH   1  12
BRANCH   6  13
ATOM     13  C   UNL     1      10.138  -0.910  22.247  0.00  0.00    +0.042 C 
BRANCH  13  14
ATOM     14  C   UNL     1       9.391   0.015  21.283  0.00  0.00    +0.078 C 
BRANCH  14  15
ATOM     15  C   UNL     1       9.177   1.397  21.858  0.00  0.00    +0.131 C 
ATOM     16  O   UNL     1       8.227   2.113  21.533  0.00  0.00    -0.298 OA
ATOM     17  C   UNL     1      10.184   1.873  22.872  0.00  0.00    +0.086 C 
ENDBRANCH  14  15
ENDBRANCH  13  14
ENDBRANCH   6  13
TORSDOF 4
ENDMDL
MODEL 6
REMARK VINA RESULT:      -5.6      1.446      2.182
REMARK  Name = 
REMARK  6 active torsions:
REMARK  status: ('A' for Active; 'I' for Inactive)
REMARK    1  A    between atoms: C_1  and  O_2
REMARK    2  A    between atoms: O_2  and  C_3
REMARK    3  A    between atoms: C_10  and  C_11
REMARK    4  A    between atoms: C_11  and  C_12
REMARK    5  A    between atoms: C_12  and  C_13
REMARK    6  A    between atoms: C_13  and  C_14
REMARK                            x       y       z     vdW  Elec       q    Type
REMARK                         _______ _______ _______ _____ _____    ______ ____
ROOT
ATOM      1  C   UNL     1      10.419   3.112  23.346  0.00  0.00    +0.121 A 
ATOM      2  C   UNL     1       9.321   3.214  24.198  0.00  0.00    +0.046 A 
ATOM      3  C   UNL     1       8.362   2.194  24.239  0.00  0.00    +0.012 A 
ATOM      4  C   UNL     1       8.492   1.056  23.423  0.00  0.00    -0.017 A 
ATOM      5  C   UNL     1       7.573  -0.011  23.459  0.00  0.00    +0.012 A 
ATOM      6  C   UNL     1       7.740  -1.152  22.652  0.00  0.00    -0.046 A 
ATOM      7  C   UNL     1       8.821  -1.189  21.764  0.00  0.00    +0.004 A 
ATOM      8  C   UNL     1       9.733  -0.137  21.709  0.00  0.00    +0.009 A 
ATOM      9  C   UNL     1       9.587   0.980  22.536  0.00  0.00    -0.014 A 
ATOM     10  C   UNL     1      10.526   2.016  22.493  0.00  0.00    +0.054 A 
ENDROOT
BRANCH   1  12
ATOM     11  C   UNL     1      10.766   5.403  23.741  0.00  0.00    +0.277 C 
ATOM     12  O   UNL     1      11.325   4.137  23.395  0.00  0.00    -0.495 OA
ENDBRANCH   1  12
BRANCH   6  13
ATOM     13  C   UNL     1       6.721  -2.267  22.716  0.00  0.00    +0.042 C 
BRANCH  13  14
ATOM     14  C   UNL     1       7.312  -3.679  22.719  0.00  0.00    +0.078 C 
BRANCH  14  15
ATOM     15  C   UNL     1       6.600  -4.606  21.759  0.00  0.00    +0.131 C 
ATOM     16  O   UNL     1       5.726  -4.216  20.982  0.00  0.00    -0.298 OA
ATOM     17  C   UNL     1       7.015  -6.054  21.782  0.00  0.00    +0.086 C 
ENDBRANCH  14  15
ENDBRANCH  13  14
ENDBRANCH   6  13
TORSDOF 4
ENDMDL
MODEL 7
REMARK VINA RESULT:      -5.6      2.324      6.494
REMARK  Name = 
REMARK  6 active torsions:
REMARK  status: ('A' for Active; 'I' for Inactive)
REMARK    1  A    between atoms: C_1  and  O_2
REMARK    2  A    between atoms: O_2  and  C_3
REMARK    3  A    between atoms: C_10  and  C_11
REMARK    4  A    between atoms: C_11  and  C_12
REMARK    5  A    between atoms: C_12  and  C_13
REMARK    6  A    between atoms: C_13  and  C_14
REMARK                            x       y       z     vdW  Elec       q    Type
REMARK                         _______ _______ _______ _____ _____    ______ ____
ROOT
ATOM      1  C   UNL     1       7.339  -4.896  26.122  0.00  0.00    +0.121 A 
ATOM      2  C   UNL     1       7.909  -5.170  24.879  0.00  0.00    +0.046 A 
ATOM      3  C   UNL     1       8.660  -4.191  24.216  0.00  0.00    +0.012 A 
ATOM      4  C   UNL     1       8.850  -2.922  24.791  0.00  0.00    -0.017 A 
ATOM      5  C   UNL     1       9.630  -1.922  24.179  0.00  0.00    +0.012 A 
ATOM      6  C   UNL     1       9.827  -0.668  24.788  0.00  0.00    -0.046 A 
ATOM      7  C   UNL     1       9.187  -0.409  26.004  0.00  0.00    +0.004 A 
ATOM      8  C   UNL     1       8.404  -1.385  26.618  0.00  0.00    +0.009 A 
ATOM      9  C   UNL     1       8.237  -2.642  26.031  0.00  0.00    -0.014 A 
ATOM     10  C   UNL     1       7.473  -3.623  26.672  0.00  0.00    +0.054 A 
ENDROOT
BRANCH   1  12
ATOM     11  C   UNL     1       5.388  -6.207  26.116  0.00  0.00    +0.277 C 
ATOM     12  O   UNL     1       6.650  -5.920  26.714  0.00  0.00    -0.495 OA
ENDBRANCH   1  12
BRANCH   6  13
ATOM     13  C   UNL     1      10.662   0.379  24.086  0.00  0.00    +0.042 C 
BRANCH  13  14
ATOM     14  C   UNL     1      10.119   1.807  24.184  0.00  0.00    +0.078 C 
BRANCH  14  15
ATOM     15  C   UNL     1       9.323   2.208  22.962  0.00  0.00    +0.131 C 
ATOM     16  O   UNL     1       8.518   3.141  22.970  0.00  0.00    -0.298 OA
ATOM     17  C   UNL     1       9.565   1.414  21.706  0.00  0.00    +0.086 C 
ENDBRANCH  14  15
ENDBRANCH  13  14
ENDBRANCH   6  13
TORSDOF 4
ENDMDL
MODEL 8
REMARK VINA RESULT:      -5.5      1.990      2.883
REMARK  Name = 
REMARK  6 active torsions:
REMARK  status: ('A' for Active; 'I' for Inactive)
REMARK    1  A    between atoms: C_1  and  O_2
REMARK    2  A    between atoms: O_2  and  C_3
REMARK    3  A    between atoms: C_10  and  C_11
REMARK    4  A    between atoms: C_11  and  C_12
REMARK    5  A    between atoms: C_12  and  C_13
REMARK    6  A    between atoms: C_13  and  C_14
REMARK                            x       y       z     vdW  Elec       q    Type
REMARK                         _______ _______ _______ _____ _____    ______ ____
ROOT
ATOM      1  C   UNL     1       9.799   3.064  23.614  0.00  0.00    +0.121 A 
ATOM      2  C   UNL     1       8.974   2.711  24.681  0.00  0.00    +0.046 A 
ATOM      3  C   UNL     1       8.418   1.428  24.750  0.00  0.00    +0.012 A 
ATOM      4  C   UNL     1       8.683   0.478  23.747  0.00  0.00    -0.017 A 
ATOM      5  C   UNL     1       8.179  -0.836  23.796  0.00  0.00    +0.012 A 
ATOM      6  C   UNL     1       8.481  -1.777  22.793  0.00  0.00    -0.046 A 
ATOM      7  C   UNL     1       9.260  -1.367  21.707  0.00  0.00    +0.004 A 
ATOM      8  C   UNL     1       9.759  -0.067  21.639  0.00  0.00    +0.009 A 
ATOM      9  C   UNL     1       9.489   0.857  22.652  0.00  0.00    -0.014 A 
ATOM     10  C   UNL     1      10.020   2.149  22.587  0.00  0.00    +0.054 A 
ENDROOT
BRANCH   1  12
ATOM     11  C   UNL     1       9.464   5.314  24.206  0.00  0.00    +0.277 C 
ATOM     12  O   UNL     1      10.326   4.326  23.643  0.00  0.00    -0.495 OA
ENDBRANCH   1  12
BRANCH   6  13
ATOM     13  C   UNL     1       7.905  -3.173  22.882  0.00  0.00    +0.042 C 
BRANCH  13  14
ATOM     14  C   UNL     1       7.539  -3.628  24.296  0.00  0.00    +0.078 C 
BRANCH  14  15
ATOM     15  C   UNL     1       8.642  -4.432  24.949  0.00  0.00    +0.131 C 
ATOM     16  O   UNL     1       9.808  -4.405  24.552  0.00  0.00    -0.298 OA
ATOM     17  C   UNL     1       8.253  -5.277  26.133  0.00  0.00    +0.086 C 
ENDBRANCH  14  15
ENDBRANCH  13  14
ENDBRANCH   6  13
TORSDOF 4
ENDMDL
MODEL 9
REMARK VINA RESULT:      -5.5      1.305      6.498
REMARK  Name = 
REMARK  6 active torsions:
REMARK  status: ('A' for Active; 'I' for Inactive)
REMARK    1  A    between atoms: C_1  and  O_2
REMARK    2  A    between atoms: O_2  and  C_3
REMARK    3  A    between atoms: C_10  and  C_11
REMARK    4  A    between atoms: C_11  and  C_12
REMARK    5  A    between atoms: C_12  and  C_13
REMARK    6  A    between atoms: C_13  and  C_14
REMARK                            x       y       z     vdW  Elec       q    Type
REMARK                         _______ _______ _______ _____ _____    ______ ____
ROOT
ATOM      1  C   UNL     1       7.390  -4.129  23.331  0.00  0.00    +0.121 A 
ATOM      2  C   UNL     1       7.653  -3.928  24.686  0.00  0.00    +0.046 A 
ATOM      3  C   UNL     1       8.399  -2.819  25.103  0.00  0.00    +0.012 A 
ATOM      4  C   UNL     1       8.894  -1.896  24.166  0.00  0.00    -0.017 A 
ATOM      5  C   UNL     1       9.616  -0.746  24.542  0.00  0.00    +0.012 A 
ATOM      6  C   UNL     1      10.078   0.178  23.587  0.00  0.00    -0.046 A 
ATOM      7  C   UNL     1       9.849  -0.091  22.233  0.00  0.00    +0.004 A 
ATOM      8  C   UNL     1       9.145  -1.229  21.843  0.00  0.00    +0.009 A 
ATOM      9  C   UNL     1       8.656  -2.129  22.794  0.00  0.00    -0.014 A 
ATOM     10  C   UNL     1       7.925  -3.251  22.392  0.00  0.00    +0.054 A 
ENDROOT
BRANCH   1  12
ATOM     11  C   UNL     1       7.116  -5.989  21.921  0.00  0.00    +0.277 C 
ATOM     12  O   UNL     1       6.624  -5.218  23.015  0.00  0.00    -0.495 OA
ENDBRANCH   1  12
BRANCH   6  13
ATOM     13  C   UNL     1      10.860   1.391  24.039  0.00  0.00    +0.042 C 
BRANCH  13  14
ATOM     14  C   UNL     1      10.508   2.691  23.311  0.00  0.00    +0.078 C 
BRANCH  14  15
ATOM     15  C   UNL     1       9.059   3.084  23.499  0.00  0.00    +0.131 C 
ATOM     16  O   UNL     1       8.283   3.236  22.554  0.00  0.00    -0.298 OA
ATOM     17  C   UNL     1       8.588   3.276  24.917  0.00  0.00    +0.086 C 
ENDBRANCH  14  15
ENDBRANCH  13  14
ENDBRANCH   6  13
TORSDOF 4
ENDMDL
