MODEL 1
REMARK VINA RESULT:      -6.0      0.000      0.000
REMARK  Name = 
REMARK  4 active torsions:
REMARK  status: ('A' for Active; 'I' for Inactive)
REMARK    1  A    between atoms: C_1  and  C_2
REMARK    2  A    between atoms: C_2  and  C_4
REMARK    3  A    between atoms: C_5  and  C_6
REMARK    4  A    between atoms: N_9  and  C_10
REMARK                            x       y       z     vdW  Elec       q    Type
REMARK                         _______ _______ _______ _____ _____    ______ ____
ROOT
ATOM      1  C   UNL     1       7.537  -4.203  26.241  0.00  0.00    +0.078 A 
ATOM      2  S   UNL     1       9.030  -4.276  25.406  0.00  0.00    -0.049 S 
ATOM      3  C   UNL     1       8.852  -2.649  24.892  0.00  0.00    +0.163 A 
ATOM      4  N   UNL     1       9.777  -2.195  24.025  0.00  0.00    -0.294 N 
ATOM      5  H   UNL     1      10.469  -2.872  23.730  0.00  0.00    +0.154 HD
ATOM      6  N   UNL     1       7.828  -2.027  25.431  0.00  0.00    -0.229 NA
ATOM      7  C   UNL     1       7.070  -2.896  26.215  0.00  0.00    +0.058 A 
ATOM      8  C   UNL     1       5.866  -2.325  26.883  0.00  0.00    +0.067 C 
ENDROOT
BRANCH   4   9
ATOM      9  C   UNL     1       9.894  -0.958  23.379  0.00  0.00    +0.033 A 
ATOM     10  C   UNL     1       9.455  -0.699  22.078  0.00  0.00    +0.023 A 
ATOM     11  C   UNL     1       9.549   0.586  21.534  0.00  0.00    +0.002 A 
ATOM     12  C   UNL     1      10.070   1.634  22.291  0.00  0.00    +0.000 A 
ATOM     13  C   UNL     1      10.510   1.398  23.588  0.00  0.00    +0.002 A 
ATOM     14  C   UNL     1      10.423   0.113  24.122  0.00  0.00    +0.023 A 
ENDBRANCH   4   9
BRANCH   1  16
ATOM     15  C   UNL     1       5.748  -6.019  26.180  0.00  0.00    +0.092 C 
ATOM     16  C   UNL     1       6.966  -5.399  26.834  0.00  0.00    +0.168 C 
ATOM     17  O   UNL     1       7.419  -5.926  27.856  0.00  0.00    -0.292 OA
ENDBRANCH   1  16
TORSDOF 2
ENDMDL
MODEL 2
REMARK VINA RESULT:      -5.8      3.178      4.326
REMARK  Name = 
REMARK  4 active torsions:
REMARK  status: ('A' for Active; 'I' for Inactive)
REMARK    1  A    between atoms: C_1  and  C_2
REMARK    2  A    between atoms: C_2  and  C_4
REMARK    3  A    between atoms: C_5  and  C_6
REMARK    4  A    between atoms: N_9  and  C_10
REMARK                            x       y       z     vdW  Elec       q    Type
REMARK                         _______ _______ _______ _____ _____    ______ ____
ROOT
ATOM      1  C   UNL     1       9.513  -1.475  24.178  0.00  0.00    +0.078 A 
ATOM      2  S   UNL     1      10.251  -0.666  22.862  0.00  0.00    -0.049 S 
ATOM      3  C   UNL     1      10.159   0.831  23.696  0.00  0.00    +0.163 A 
ATOM      4  N   UNL     1      10.526   1.923  22.999  0.00  0.00    -0.294 N 
ATOM      5  H   UNL     1      10.787   1.759  22.036  0.00  0.00    +0.154 HD
ATOM      6  N   UNL     1       9.751   0.725  24.941  0.00  0.00    -0.229 NA
ATOM      7  C   UNL     1       9.388  -0.588  25.239  0.00  0.00    +0.058 A 
ATOM      8  C   UNL     1       8.895  -0.853  26.620  0.00  0.00    +0.067 C 
ENDROOT
BRANCH   4   9
ATOM      9  C   UNL     1      10.520   3.278  23.355  0.00  0.00    +0.033 A 
ATOM     10  C   UNL     1      11.649   4.102  23.349  0.00  0.00    +0.023 A 
ATOM     11  C   UNL     1      11.542   5.463  23.653  0.00  0.00    +0.002 A 
ATOM     12  C   UNL     1      10.300   6.021  23.951  0.00  0.00    +0.000 A 
ATOM     13  C   UNL     1       9.166   5.220  23.959  0.00  0.00    +0.002 A 
ATOM     14  C   UNL     1       9.279   3.861  23.665  0.00  0.00    +0.023 A 
ENDBRANCH   4   9
BRANCH   1  16
ATOM     15  C   UNL     1       7.742  -3.200  23.554  0.00  0.00    +0.092 C 
ATOM     16  C   UNL     1       9.130  -2.871  24.064  0.00  0.00    +0.168 C 
ATOM     17  O   UNL     1       9.881  -3.802  24.375  0.00  0.00    -0.292 OA
ENDBRANCH   1  16
TORSDOF 2
ENDMDL
MODEL 3
REMARK VINA RESULT:      -5.7      1.398      1.890
REMARK  Name = 
REMARK  4 active torsions:
REMARK  status: ('A' for Active; 'I' for Inactive)
REMARK    1  A    between atoms: C_1  and  C_2
REMARK    2  A    between atoms: C_2  and  C_4
REMARK    3  A    between atoms: C_5  and  C_6
REMARK    4  A    between atoms: N_9  and  C_10
REMARK                            x       y       z     vdW  Elec       q    Type
REMARK                         _______ _______ _______ _____ _____    ______ ____
ROOT
ATOM      1  C   UNL     1       7.476  -4.321  25.835  0.00  0.00    +0.078 A 
ATOM      2  S   UNL     1       6.503  -3.002  25.339  0.00  0.00    -0.049 S 
ATOM      3  C   UNL     1       7.872  -2.211  24.671  0.00  0.00    +0.163 A 
ATOM      4  N   UNL     1       7.670  -0.960  24.215  0.00  0.00    -0.294 N 
ATOM      5  H   UNL     1       6.737  -0.592  24.345  0.00  0.00    +0.154 HD
ATOM      6  N   UNL     1       8.963  -2.942  24.668  0.00  0.00    -0.229 NA
ATOM      7  C   UNL     1       8.755  -4.157  25.319  0.00  0.00    +0.058 A 
ATOM      8  C   UNL     1       9.917  -5.086  25.400  0.00  0.00    +0.067 C 
ENDROOT
BRANCH   4   9
ATOM      9  C   UNL     1       8.566  -0.032  23.669  0.00  0.00    +0.033 A 
ATOM     10  C   UNL     1       8.799   0.132  22.301  0.00  0.00    +0.023 A 
ATOM     11  C   UNL     1       9.660   1.131  21.837  0.00  0.00    +0.002 A 
ATOM     12  C   UNL     1      10.288   1.992  22.735  0.00  0.00    +0.000 A 
ATOM     13  C   UNL     1      10.067   1.847  24.099  0.00  0.00    +0.002 A 
ATOM     14  C   UNL     1       9.215   0.843  24.558  0.00  0.00    +0.023 A 
ENDBRANCH   4   9
BRANCH   1  16
ATOM     15  C   UNL     1       5.647  -6.059  26.205  0.00  0.00    +0.092 C 
ATOM     16  C   UNL     1       6.920  -5.376  26.662  0.00  0.00    +0.168 C 
ATOM     17  O   UNL     1       7.430  -5.734  27.729  0.00  0.00    -0.292 OA
ENDBRANCH   1  16
TORSDOF 2
ENDMDL
MODEL 4
REMARK VINA RESULT:      -5.7      2.502      3.066
REMARK  Name = 
REMARK  4 active torsions:
REMARK  status: ('A' for Active; 'I' for Inactive)
REMARK    1  A    between atoms: C_1  and  C_2
REMARK    2  A    between atoms: C_2  and  C_4
REMARK    3  A    between atoms: C_5  and  C_6
REMARK    4  A    between atoms: N_9  and  C_10
REMARK                            x       y       z     vdW  Elec       q    Type
REMARK                         _______ _______ _______ _____ _____    ______ ____
ROOT
ATOM      1  C   UNL     1       7.191  -4.200  23.289  0.00  0.00    +0.078 A 
ATOM      2  S   UNL     1       6.684  -2.930  22.260  0.00  0.00    -0.049 S 
ATOM      3  C   UNL     1       7.880  -1.887  22.915  0.00  0.00    +0.163 A 
ATOM      4  N   UNL     1       7.838  -0.605  22.505  0.00  0.00    -0.294 N 
ATOM      5  H   UNL     1       7.081  -0.371  21.877  0.00  0.00    +0.154 HD
ATOM      6  N   UNL     1       8.715  -2.481  23.737  0.00  0.00    -0.229 NA
ATOM      7  C   UNL     1       8.345  -3.808  23.955  0.00  0.00    +0.058 A 
ATOM      8  C   UNL     1       9.202  -4.603  24.879  0.00  0.00    +0.067 C 
ENDROOT
BRANCH   4   9
ATOM      9  C   UNL     1       8.618   0.498  22.876  0.00  0.00    +0.033 A 
ATOM     10  C   UNL     1       8.651   1.048  24.160  0.00  0.00    +0.023 A 
ATOM     11  C   UNL     1       9.512   2.109  24.461  0.00  0.00    +0.002 A 
ATOM     12  C   UNL     1      10.364   2.622  23.485  0.00  0.00    +0.000 A 
ATOM     13  C   UNL     1      10.349   2.087  22.204  0.00  0.00    +0.002 A 
ATOM     14  C   UNL     1       9.482   1.036  21.905  0.00  0.00    +0.023 A 
ENDBRANCH   4   9
BRANCH   1  16
ATOM     15  C   UNL     1       6.404  -6.330  22.131  0.00  0.00    +0.092 C 
ATOM     16  C   UNL     1       6.438  -5.439  23.356  0.00  0.00    +0.168 C 
ATOM     17  O   UNL     1       5.813  -5.794  24.361  0.00  0.00    -0.292 OA
ENDBRANCH   1  16
TORSDOF 2
ENDMDL
MODEL 5
REMARK VINA RESULT:      -5.6      2.399      2.532
REMARK  Name = 
REMARK  4 active torsions:
REMARK  status: ('A' for Active; 'I' for Inactive)
REMARK    1  A    between atoms: C_1  and  C_2
REMARK    2  A    between atoms: C_2  and  C_4
REMARK    3  A    between atoms: C_5  and  C_6
REMARK    4  A    between atoms: N_9  and  C_10
REMARK                            x       y       z     vdW  Elec       q    Type
REMARK                         _______ _______ _______ _____ _____    ______ ____
ROOT
ATOM      1  C   UNL     1       5.980  -3.940  23.536  0.00  0.00    +0.078 A 
ATOM      2  S   UNL     1       7.463  -4.017  22.683  0.00  0.00    -0.049 S 
ATOM      3  C   UNL     1       7.848  -2.412  23.155  0.00  0.00    +0.163 A 
ATOM      4  N   UNL     1       8.957  -1.882  22.606  0.00  0.00    -0.294 N 
ATOM      5  H   UNL     1       9.437  -2.469  21.937  0.00  0.00    +0.154 HD
ATOM      6  N   UNL     1       7.009  -1.896  24.024  0.00  0.00    -0.229 NA
ATOM      7  C   UNL     1       5.940  -2.758  24.264  0.00  0.00    +0.058 A 
ATOM      8  C   UNL     1       4.902  -2.293  25.227  0.00  0.00    +0.067 C 
ENDROOT
BRANCH   4   9
ATOM      9  C   UNL     1       9.517  -0.604  22.733  0.00  0.00    +0.033 A 
ATOM     10  C   UNL     1       9.413   0.405  21.772  0.00  0.00    +0.023 A 
ATOM     11  C   UNL     1       9.945   1.676  22.010  0.00  0.00    +0.002 A 
ATOM     12  C   UNL     1      10.575   1.960  23.220  0.00  0.00    +0.000 A 
ATOM     13  C   UNL     1      10.686   0.971  24.189  0.00  0.00    +0.002 A 
ATOM     14  C   UNL     1      10.164  -0.298  23.944  0.00  0.00    +0.023 A 
ENDBRANCH   4   9
BRANCH   1  16
ATOM     15  C   UNL     1       5.069  -6.148  24.426  0.00  0.00    +0.092 C 
ATOM     16  C   UNL     1       5.009  -5.013  23.424  0.00  0.00    +0.168 C 
ATOM     17  O   UNL     1       4.146  -5.050  22.541  0.00  0.00    -0.292 OA
ENDBRANCH   1  16
TORSDOF 2
ENDMDL
MODEL 6
REMARK VINA RESULT:      -5.6      3.571      6.605
REMARK  Name = 
REMARK  4 active torsions:
REMARK  status: ('A' for Active; 'I' for Inactive)
REMARK    1  A    between atoms: C_1  and  C_2
REMARK    2  A    between atoms: C_2  and  C_4
REMARK    3  A    between atoms: C_5  and  C_6
REMARK    4  A    between atoms: N_9  and  C_10
REMARK                            x       y       z     vdW  Elec       q    Type
REMARK                         _______ _______ _______ _____ _____    ______ ____
ROOT
ATOM      1  C   UNL     1       9.222  -0.002  22.808  0.00  0.00    +0.078 A 
ATOM      2  S   UNL     1       9.927  -1.561  22.751  0.00  0.00    -0.049 S 
ATOM      3  C   UNL     1       8.388  -2.293  22.952  0.00  0.00    +0.163 A 
ATOM      4  N   UNL     1       8.383  -3.631  23.112  0.00  0.00    -0.294 N 
ATOM      5  H   UNL     1       9.294  -4.071  23.134  0.00  0.00    +0.154 HD
ATOM      6  N   UNL     1       7.384  -1.448  22.907  0.00  0.00    -0.229 NA
ATOM      7  C   UNL     1       7.839  -0.133  22.813  0.00  0.00    +0.058 A 
ATOM      8  C   UNL     1       6.803   0.937  22.764  0.00  0.00    +0.067 C 
ENDROOT
BRANCH   4   9
ATOM      9  C   UNL     1       7.326  -4.518  23.348  0.00  0.00    +0.033 A 
ATOM     10  C   UNL     1       6.707  -4.700  24.588  0.00  0.00    +0.023 A 
ATOM     11  C   UNL     1       5.610  -5.558  24.720  0.00  0.00    +0.002 A 
ATOM     12  C   UNL     1       5.108  -6.234  23.610  0.00  0.00    +0.000 A 
ATOM     13  C   UNL     1       5.707  -6.064  22.368  0.00  0.00    +0.002 A 
ATOM     14  C   UNL     1       6.806  -5.215  22.242  0.00  0.00    +0.023 A 
ENDBRANCH   4   9
BRANCH   1  16
ATOM     15  C   UNL     1      10.687   1.588  24.158  0.00  0.00    +0.092 C 
ATOM     16  C   UNL     1      10.058   1.184  22.840  0.00  0.00    +0.168 C 
ATOM     17  O   UNL     1      10.269   1.886  21.846  0.00  0.00    -0.292 OA
ENDBRANCH   1  16
TORSDOF 2
ENDMDL
MODEL 7
REMARK VINA RESULT:      -5.4      3.529      6.383
REMARK  Name = 
REMARK  4 active torsions:
REMARK  status: ('A' for Active; 'I' for Inactive)
REMARK    1  A    between atoms: C_1  and  C_2
REMARK    2  A    between atoms: C_2  and  C_4
REMARK    3  A    between atoms: C_5  and  C_6
REMARK    4  A    between atoms: N_9  and  C_10
REMARK                            x       y       z     vdW  Elec       q    Type
REMARK                         _______ _______ _______ _____ _____    ______ ____
ROOT
ATOM      1  C   UNL     1       9.174   0.342  23.848  0.00  0.00    +0.078 A 
ATOM      2  S   UNL     1       8.867  -0.871  25.016  0.00  0.00    -0.049 S 
ATOM      3  C   UNL     1       8.168  -1.883  23.820  0.00  0.00    +0.163 A 
ATOM      4  N   UNL     1       7.598  -3.021  24.263  0.00  0.00    -0.294 N 
ATOM      5  H   UNL     1       7.605  -3.151  25.266  0.00  0.00    +0.154 HD
ATOM      6  N   UNL     1       8.292  -1.427  22.594  0.00  0.00    -0.229 NA
ATOM      7  C   UNL     1       8.875  -0.160  22.588  0.00  0.00    +0.058 A 
ATOM      8  C   UNL     1       9.068   0.486  21.259  0.00  0.00    +0.067 C 
ENDROOT
BRANCH   4   9
ATOM      9  C   UNL     1       6.907  -4.024  23.573  0.00  0.00    +0.033 A 
ATOM     10  C   UNL     1       5.519  -4.064  23.416  0.00  0.00    +0.023 A 
ATOM     11  C   UNL     1       4.915  -5.068  22.652  0.00  0.00    +0.002 A 
ATOM     12  C   UNL     1       5.693  -6.037  22.022  0.00  0.00    +0.000 A 
ATOM     13  C   UNL     1       7.075  -6.013  22.163  0.00  0.00    +0.002 A 
ATOM     14  C   UNL     1       7.672  -5.016  22.934  0.00  0.00    +0.023 A 
ENDBRANCH   4   9
BRANCH   1  16
ATOM     15  C   UNL     1       8.693   2.632  24.860  0.00  0.00    +0.092 C 
ATOM     16  C   UNL     1       9.669   1.646  24.252  0.00  0.00    +0.168 C 
ATOM     17  O   UNL     1      10.846   1.992  24.110  0.00  0.00    -0.292 OA
ENDBRANCH   1  16
TORSDOF 2
ENDMDL
MODEL 8
REMARK VINA RESULT:      -5.4      3.323      3.805
REMARK  Name = 
REMARK  4 active torsions:
REMARK  status: ('A' for Active; 'I' for Inactive)
REMARK    1  A    between atoms: C_1  and  C_2
REMARK    2  A    between atoms: C_2  and  C_4
REMARK    3  A    between atoms: C_5  and  C_6
REMARK    4  A    between atoms: N_9  and  C_10
REMARK                            x       y       z     vdW  Elec       q    Type
REMARK                         _______ _______ _______ _____ _____    ______ ____
ROOT
ATOM      1  C   UNL     1       5.019  -4.741  23.099  0.00  0.00    +0.078 A 
ATOM      2  S   UNL     1       4.859  -3.259  23.940  0.00  0.00    -0.049 S 
ATOM      3  C   UNL     1       6.091  -2.550  22.979  0.00  0.00    +0.163 A 
ATOM      4  N   UNL     1       6.484  -1.312  23.336  0.00  0.00    -0.294 N 
ATOM      5  H   UNL     1       6.038  -0.932  24.161  0.00  0.00    +0.154 HD
ATOM      6  N   UNL     1       6.496  -3.307  21.985  0.00  0.00    -0.229 NA
ATOM      7  C   UNL     1       5.886  -4.560  22.029  0.00  0.00    +0.058 A 
ATOM      8  C   UNL     1       6.262  -5.530  20.962  0.00  0.00    +0.067 C 
ENDROOT
BRANCH   4   9
ATOM      9  C   UNL     1       7.482  -0.483  22.809  0.00  0.00    +0.033 A 
ATOM     10  C   UNL     1       8.791  -0.893  22.541  0.00  0.00    +0.023 A 
ATOM     11  C   UNL     1       9.708  -0.017  21.949  0.00  0.00    +0.002 A 
ATOM     12  C   UNL     1       9.322   1.276  21.602  0.00  0.00    +0.000 A 
ATOM     13  C   UNL     1       8.024   1.701  21.856  0.00  0.00    +0.002 A 
ATOM     14  C   UNL     1       7.116   0.828  22.456  0.00  0.00    +0.023 A 
ENDBRANCH   4   9
BRANCH   1  16
ATOM     15  C   UNL     1       2.835  -6.053  23.188  0.00  0.00    +0.092 C 
ATOM     16  C   UNL     1       4.302  -5.922  23.544  0.00  0.00    +0.168 C 
ATOM     17  O   UNL     1       4.830  -6.818  24.210  0.00  0.00    -0.292 OA
ENDBRANCH   1  16
TORSDOF 2
ENDMDL
MODEL 9
REMARK VINA RESULT:      -5.3      2.880      6.424
REMARK  Name = 
REMARK  4 active torsions:
REMARK  status: ('A' for Active; 'I' for Inactive)
REMARK    1  A    between atoms: C_1  and  C_2
REMARK    2  A    between atoms: C_2  and  C_4
REMARK    3  A    between atoms: C_5  and  C_6
REMARK    4  A    between atoms: N_9  and  C_10
REMARK                            x       y       z     vdW  Elec       q    Type
REMARK                         _______ _______ _______ _____ _____    ______ ____
ROOT
ATOM      1  C   UNL     1       9.105  -0.439  23.411  0.00  0.00    +0.078 A 
ATOM      2  S   UNL     1       9.700  -2.043  23.378  0.00  0.00    -0.049 S 
ATOM      3  C   UNL     1       8.140  -2.658  23.742  0.00  0.00    +0.163 A 
ATOM      4  N   UNL     1       8.061  -3.982  23.971  0.00  0.00    -0.294 N 
ATOM      5  H   UNL     1       8.940  -4.484  23.942  0.00  0.00    +0.154 HD
ATOM      6  N   UNL     1       7.192  -1.748  23.735  0.00  0.00    -0.229 NA
ATOM      7  C   UNL     1       7.722  -0.473  23.536  0.00  0.00    +0.058 A 
ATOM      8  C   UNL     1       6.757   0.662  23.516  0.00  0.00    +0.067 C 
ENDROOT
BRANCH   4   9
ATOM      9  C   UNL     1       6.972  -4.783  24.339  0.00  0.00    +0.033 A 
ATOM     10  C   UNL     1       6.106  -5.403  23.435  0.00  0.00    +0.023 A 
ATOM     11  C   UNL     1       5.083  -6.243  23.887  0.00  0.00    +0.002 A 
ATOM     12  C   UNL     1       4.923  -6.486  25.250  0.00  0.00    +0.000 A 
ATOM     13  C   UNL     1       5.777  -5.882  26.164  0.00  0.00    +0.002 A 
ATOM     14  C   UNL     1       6.789  -5.037  25.710  0.00  0.00    +0.023 A 
ENDBRANCH   4   9
BRANCH   1  16
ATOM     15  C   UNL     1      10.072   1.461  22.013  0.00  0.00    +0.092 C 
ATOM     16  C   UNL     1      10.016   0.687  23.314  0.00  0.00    +0.168 C 
ATOM     17  O   UNL     1      10.758   1.035  24.239  0.00  0.00    -0.292 OA
ENDBRANCH   1  16
TORSDOF 2
ENDMDL
