MODEL 1
REMARK VINA RESULT:      -7.7      0.000      0.000
REMARK  Name = 
REMARK  12 active torsions:
REMARK  status: ('A' for Active; 'I' for Inactive)
REMARK    1  A    between atoms: C_1  and  O_2
REMARK    2  A    between atoms: O_2  and  C_3
REMARK    3  A    between atoms: C_4  and  C_5
REMARK    4  A    between atoms: C_5  and  C_6
REMARK    5  A    between atoms: N_8  and  C_9
REMARK    6  A    between atoms: C_13  and  N_14
REMARK    7  A    between atoms: C_15  and  O_17
REMARK    8  A    between atoms: O_17  and  C_18
REMARK    9  A    between atoms: C_27  and  C_29
REMARK   10  A    between atoms: N_31  and  S_32
REMARK   11  A    between atoms: S_32  and  C_35
REMARK   12  A    between atoms: C_40  and  C_41
REMARK                            x       y       z     vdW  Elec       q    Type
REMARK                         _______ _______ _______ _____ _____    ______ ____
ROOT
ATOM      1  C   UNL     1       6.460  -4.344  27.462  0.00  0.00    +0.124 A 
ATOM      2  C   UNL     1       6.704  -3.214  26.664  0.00  0.00    +0.059 A 
ATOM      3  C   UNL     1       5.735  -2.214  26.529  0.00  0.00    +0.042 A 
ATOM      4  C   UNL     1       4.551  -2.315  27.272  0.00  0.00    +0.013 A 
ATOM      5  C   UNL     1       4.323  -3.411  28.104  0.00  0.00    +0.008 A 
ATOM      6  C   UNL     1       5.261  -4.453  28.195  0.00  0.00    -0.001 A 
ENDROOT
BRANCH   3   7
ATOM      7  C   UNL     1       5.870  -1.044  25.607  0.00  0.00    +0.263 C 
ATOM      8  N   UNL     1       6.656   0.030  26.043  0.00  0.00    -0.181 N 
ATOM      9  H   UNL     1       7.090   0.092  26.952  0.00  0.00    +0.177 HD
ATOM     10  O   UNL     1       5.316  -1.056  24.522  0.00  0.00    -0.269 OA
BRANCH   8  11
ATOM     11  S   UNL     1       6.916   1.408  25.138  0.00  0.00    +0.075 S 
ATOM     12  O   UNL     1       7.555   2.396  25.981  0.00  0.00    -0.150 OA
ATOM     13  O   UNL     1       5.649   1.703  24.503  0.00  0.00    -0.150 OA
BRANCH  11  14
ATOM     14  C   UNL     1       8.052   0.868  23.873  0.00  0.00    +0.111 A 
ATOM     15  C   UNL     1       9.190   0.092  24.173  0.00  0.00    -0.024 A 
ATOM     16  C   UNL     1       9.542  -0.368  25.559  0.00  0.00    +0.046 C 
ATOM     17  C   UNL     1      10.049  -0.258  23.116  0.00  0.00    +0.005 A 
ATOM     18  C   UNL     1       9.779   0.135  21.804  0.00  0.00    +0.000 A 
ATOM     19  C   UNL     1       8.644   0.888  21.521  0.00  0.00    +0.002 A 
ATOM     20  C   UNL     1       7.781   1.256  22.552  0.00  0.00    +0.029 A 
ENDBRANCH  11  14
ENDBRANCH   8  11
ENDBRANCH   3   7
BRANCH   1  22
ATOM     21  C   UNL     1       8.484  -5.340  26.714  0.00  0.00    +0.277 C 
ATOM     22  O   UNL     1       7.347  -5.385  27.571  0.00  0.00    -0.495 OA
ENDBRANCH   1  22
BRANCH   6  23
ATOM     23  C   UNL     1       4.907  -5.692  28.993  0.00  0.00    +0.076 C 
BRANCH  23  24
ATOM     24  C   UNL     1       3.690  -6.376  28.437  0.00  0.00    -0.018 A 
ATOM     25  C   UNL     1       3.521  -6.696  27.042  0.00  0.00    +0.005 A 
ATOM     26  C   UNL     1       4.316  -6.470  25.893  0.00  0.00    +0.033 A 
ATOM     27  C   UNL     1       3.911  -6.925  24.630  0.00  0.00    +0.037 A 
ATOM     28  C   UNL     1       2.690  -7.590  24.511  0.00  0.00    +0.025 A 
ATOM     29  C   UNL     1       1.878  -7.839  25.633  0.00  0.00    +0.028 A 
ATOM     30  C   UNL     1       2.315  -7.376  26.887  0.00  0.00    +0.049 A 
ATOM     31  N   UNL     1       1.755  -7.464  28.144  0.00  0.00    -0.349 N 
ATOM     32  C   UNL     1       0.518  -8.143  28.459  0.00  0.00    +0.149 C 
ATOM     33  C   UNL     1       2.552  -6.840  29.069  0.00  0.00    +0.090 A 
BRANCH  27  34
ATOM     34  N   UNL     1       4.690  -6.725  23.464  0.00  0.00    -0.251 N 
ATOM     35  H   UNL     1       5.409  -7.393  23.240  0.00  0.00    +0.158 HD
ATOM     36  C   UNL     1       4.641  -5.625  22.642  0.00  0.00    +0.405 C 
ATOM     37  O   UNL     1       3.972  -4.615  22.809  0.00  0.00    -0.226 OA
BRANCH  36  38
ATOM     38  O   UNL     1       5.496  -5.786  21.587  0.00  0.00    -0.447 OA
BRANCH  38  39
ATOM     39  C   UNL     1       6.645  -4.928  21.651  0.00  0.00    +0.178 C 
ATOM     40  C   UNL     1       7.442  -5.139  22.940  0.00  0.00    +0.045 C 
ATOM     41  C   UNL     1       7.988  -3.762  23.329  0.00  0.00    +0.004 C 
ATOM     42  C   UNL     1       7.456  -2.778  22.293  0.00  0.00    +0.004 C 
ATOM     43  C   UNL     1       6.231  -3.462  21.718  0.00  0.00    +0.045 C 
ENDBRANCH  38  39
ENDBRANCH  36  38
ENDBRANCH  27  34
ENDBRANCH  23  24
ENDBRANCH   6  23
TORSDOF 9
ENDMDL
MODEL 2
REMARK VINA RESULT:      -7.7      3.075      8.990
REMARK  Name = 
REMARK  12 active torsions:
REMARK  status: ('A' for Active; 'I' for Inactive)
REMARK    1  A    between atoms: C_1  and  O_2
REMARK    2  A    between atoms: O_2  and  C_3
REMARK    3  A    between atoms: C_4  and  C_5
REMARK    4  A    between atoms: C_5  and  C_6
REMARK    5  A    between atoms: N_8  and  C_9
REMARK    6  A    between atoms: C_13  and  N_14
REMARK    7  A    between atoms: C_15  and  O_17
REMARK    8  A    between atoms: O_17  and  C_18
REMARK    9  A    between atoms: C_27  and  C_29
REMARK   10  A    between atoms: N_31  and  S_32
REMARK   11  A    between atoms: S_32  and  C_35
REMARK   12  A    between atoms: C_40  and  C_41
REMARK                            x       y       z     vdW  Elec       q    Type
REMARK                         _______ _______ _______ _____ _____    ______ ____
ROOT
ATOM      1  C   UNL     1       9.489   1.341  22.550  0.00  0.00    +0.124 A 
ATOM      2  C   UNL     1       9.918   0.077  22.990  0.00  0.00    +0.059 A 
ATOM      3  C   UNL     1       8.992  -0.937  23.258  0.00  0.00    +0.042 A 
ATOM      4  C   UNL     1       7.635  -0.700  22.999  0.00  0.00    +0.013 A 
ATOM      5  C   UNL     1       7.208   0.537  22.516  0.00  0.00    +0.008 A 
ATOM      6  C   UNL     1       8.122   1.583  22.306  0.00  0.00    -0.001 A 
ENDROOT
BRANCH   3   7
ATOM      7  C   UNL     1       9.358  -2.264  23.842  0.00  0.00    +0.263 C 
ATOM      8  N   UNL     1       8.432  -2.863  24.705  0.00  0.00    -0.181 N 
ATOM      9  H   UNL     1       7.566  -2.439  25.001  0.00  0.00    +0.177 HD
ATOM     10  O   UNL     1      10.421  -2.786  23.554  0.00  0.00    -0.269 OA
BRANCH   8  11
ATOM     11  S   UNL     1       8.678  -4.342  25.438  0.00  0.00    +0.075 S 
ATOM     12  O   UNL     1       8.939  -4.120  26.844  0.00  0.00    -0.150 OA
ATOM     13  O   UNL     1       9.652  -5.028  24.616  0.00  0.00    -0.150 OA
BRANCH  11  14
ATOM     14  C   UNL     1       7.111  -5.172  25.238  0.00  0.00    +0.111 A 
ATOM     15  C   UNL     1       6.520  -5.356  23.971  0.00  0.00    -0.024 A 
ATOM     16  C   UNL     1       7.149  -4.901  22.685  0.00  0.00    +0.046 C 
ATOM     17  C   UNL     1       5.266  -5.989  23.912  0.00  0.00    +0.005 A 
ATOM     18  C   UNL     1       4.628  -6.439  25.070  0.00  0.00    +0.000 A 
ATOM     19  C   UNL     1       5.230  -6.265  26.312  0.00  0.00    +0.002 A 
ATOM     20  C   UNL     1       6.469  -5.631  26.398  0.00  0.00    +0.029 A 
ENDBRANCH  11  14
ENDBRANCH   8  11
ENDBRANCH   3   7
BRANCH   1  22
ATOM     21  C   UNL     1      11.012   2.902  23.493  0.00  0.00    +0.277 C 
ATOM     22  O   UNL     1      10.348   2.389  22.341  0.00  0.00    -0.495 OA
ENDBRANCH   1  22
BRANCH   6  23
ATOM     23  C   UNL     1       7.595   2.952  21.925  0.00  0.00    +0.076 C 
BRANCH  23  24
ATOM     24  C   UNL     1       7.665   3.911  23.080  0.00  0.00    -0.018 A 
ATOM     25  C   UNL     1       7.317   3.558  24.433  0.00  0.00    +0.005 A 
ATOM     26  C   UNL     1       6.829   2.371  25.030  0.00  0.00    +0.033 A 
ATOM     27  C   UNL     1       6.598   2.296  26.411  0.00  0.00    +0.037 A 
ATOM     28  C   UNL     1       6.834   3.424  27.198  0.00  0.00    +0.025 A 
ATOM     29  C   UNL     1       7.326   4.619  26.639  0.00  0.00    +0.028 A 
ATOM     30  C   UNL     1       7.555   4.660  25.253  0.00  0.00    +0.049 A 
ATOM     31  N   UNL     1       8.024   5.661  24.429  0.00  0.00    -0.349 N 
ATOM     32  C   UNL     1       8.451   6.970  24.870  0.00  0.00    +0.149 C 
ATOM     33  C   UNL     1       8.061   5.234  23.127  0.00  0.00    +0.090 A 
BRANCH  27  34
ATOM     34  N   UNL     1       6.122   1.120  27.039  0.00  0.00    -0.251 N 
ATOM     35  H   UNL     1       5.284   1.171  27.595  0.00  0.00    +0.158 HD
ATOM     36  C   UNL     1       6.761  -0.096  27.061  0.00  0.00    +0.405 C 
ATOM     37  O   UNL     1       7.867  -0.350  26.605  0.00  0.00    -0.226 OA
BRANCH  36  38
ATOM     38  O   UNL     1       5.996  -1.020  27.718  0.00  0.00    -0.447 OA
BRANCH  38  39
ATOM     39  C   UNL     1       4.789  -1.358  27.019  0.00  0.00    +0.178 C 
ATOM     40  C   UNL     1       3.894  -2.286  27.843  0.00  0.00    +0.045 C 
ATOM     41  C   UNL     1       3.220  -3.224  26.837  0.00  0.00    +0.004 C 
ATOM     42  C   UNL     1       3.774  -2.858  25.465  0.00  0.00    +0.004 C 
ATOM     43  C   UNL     1       5.092  -2.169  25.763  0.00  0.00    +0.045 C 
ENDBRANCH  38  39
ENDBRANCH  36  38
ENDBRANCH  27  34
ENDBRANCH  23  24
ENDBRANCH   6  23
TORSDOF 9
ENDMDL
MODEL 3
REMARK VINA RESULT:      -7.5      3.000      8.169
REMARK  Name = 
REMARK  12 active torsions:
REMARK  status: ('A' for Active; 'I' for Inactive)
REMARK    1  A    between atoms: C_1  and  O_2
REMARK    2  A    between atoms: O_2  and  C_3
REMARK    3  A    between atoms: C_4  and  C_5
REMARK    4  A    between atoms: C_5  and  C_6
REMARK    5  A    between atoms: N_8  and  C_9
REMARK    6  A    between atoms: C_13  and  N_14
REMARK    7  A    between atoms: C_15  and  O_17
REMARK    8  A    between atoms: O_17  and  C_18
REMARK    9  A    between atoms: C_27  and  C_29
REMARK   10  A    between atoms: N_31  and  S_32
REMARK   11  A    between atoms: S_32  and  C_35
REMARK   12  A    between atoms: C_40  and  C_41
REMARK                            x       y       z     vdW  Elec       q    Type
REMARK                         _______ _______ _______ _____ _____    ______ ____
ROOT
ATOM      1  C   UNL     1       5.055   2.219  26.440  0.00  0.00    +0.124 A 
ATOM      2  C   UNL     1       4.331   1.020  26.331  0.00  0.00    +0.059 A 
ATOM      3  C   UNL     1       4.822  -0.163  26.893  0.00  0.00    +0.042 A 
ATOM      4  C   UNL     1       6.006  -0.116  27.641  0.00  0.00    +0.013 A 
ATOM      5  C   UNL     1       6.705   1.082  27.795  0.00  0.00    +0.008 A 
ATOM      6  C   UNL     1       6.255   2.261  27.179  0.00  0.00    -0.001 A 
ENDROOT
BRANCH   3   7
ATOM      7  C   UNL     1       4.173  -1.499  26.717  0.00  0.00    +0.263 C 
ATOM      8  N   UNL     1       4.537  -2.246  25.589  0.00  0.00    -0.181 N 
ATOM      9  H   UNL     1       5.160  -1.923  24.864  0.00  0.00    +0.177 HD
ATOM     10  O   UNL     1       3.372  -1.902  27.542  0.00  0.00    -0.269 OA
BRANCH   8  11
ATOM     11  S   UNL     1       3.915  -3.755  25.243  0.00  0.00    +0.075 S 
ATOM     12  O   UNL     1       2.535  -3.600  24.835  0.00  0.00    -0.150 OA
ATOM     13  O   UNL     1       4.249  -4.585  26.381  0.00  0.00    -0.150 OA
BRANCH  11  14
ATOM     14  C   UNL     1       4.897  -4.303  23.858  0.00  0.00    +0.111 A 
ATOM     15  C   UNL     1       5.207  -5.664  23.654  0.00  0.00    -0.024 A 
ATOM     16  C   UNL     1       4.732  -6.770  24.554  0.00  0.00    +0.046 C 
ATOM     17  C   UNL     1       6.018  -6.000  22.556  0.00  0.00    +0.005 A 
ATOM     18  C   UNL     1       6.490  -5.021  21.680  0.00  0.00    +0.000 A 
ATOM     19  C   UNL     1       6.163  -3.684  21.884  0.00  0.00    +0.002 A 
ATOM     20  C   UNL     1       5.370  -3.324  22.972  0.00  0.00    +0.029 A 
ENDBRANCH  11  14
ENDBRANCH   8  11
ENDBRANCH   3   7
BRANCH   1  22
ATOM     21  C   UNL     1       4.391   3.332  24.448  0.00  0.00    +0.277 C 
ATOM     22  O   UNL     1       4.654   3.389  25.847  0.00  0.00    -0.495 OA
ENDBRANCH   1  22
BRANCH   6  23
ATOM     23  C   UNL     1       7.123   3.502  27.248  0.00  0.00    +0.076 C 
BRANCH  23  24
ATOM     24  C   UNL     1       7.694   3.851  25.902  0.00  0.00    -0.018 A 
ATOM     25  C   UNL     1       8.394   2.911  25.063  0.00  0.00    +0.005 A 
ATOM     26  C   UNL     1       8.756   1.552  25.224  0.00  0.00    +0.033 A 
ATOM     27  C   UNL     1       9.427   0.855  24.208  0.00  0.00    +0.037 A 
ATOM     28  C   UNL     1       9.761   1.530  23.033  0.00  0.00    +0.025 A 
ATOM     29  C   UNL     1       9.411   2.879  22.838  0.00  0.00    +0.028 A 
ATOM     30  C   UNL     1       8.732   3.548  23.871  0.00  0.00    +0.049 A 
ATOM     31  N   UNL     1       8.263   4.840  23.976  0.00  0.00    -0.349 N 
ATOM     32  C   UNL     1       8.349   5.843  22.938  0.00  0.00    +0.149 C 
ATOM     33  C   UNL     1       7.673   5.040  25.197  0.00  0.00    +0.090 A 
BRANCH  27  34
ATOM     34  N   UNL     1       9.791  -0.507  24.334  0.00  0.00    -0.251 N 
ATOM     35  H   UNL     1      10.468  -0.767  25.032  0.00  0.00    +0.158 HD
ATOM     36  C   UNL     1       9.388  -1.528  23.506  0.00  0.00    +0.405 C 
ATOM     37  O   UNL     1       8.710  -1.425  22.494  0.00  0.00    -0.226 OA
BRANCH  36  38
ATOM     38  O   UNL     1       9.893  -2.720  23.947  0.00  0.00    -0.447 OA
BRANCH  38  39
ATOM     39  C   UNL     1       8.882  -3.629  24.406  0.00  0.00    +0.178 C 
ATOM     40  C   UNL     1       8.026  -3.015  25.516  0.00  0.00    +0.045 C 
ATOM     41  C   UNL     1       7.678  -4.166  26.466  0.00  0.00    +0.004 C 
ATOM     42  C   UNL     1       8.378  -5.405  25.920  0.00  0.00    +0.004 C 
ATOM     43  C   UNL     1       9.505  -4.854  25.067  0.00  0.00    +0.045 C 
ENDBRANCH  38  39
ENDBRANCH  36  38
ENDBRANCH  27  34
ENDBRANCH  23  24
ENDBRANCH   6  23
TORSDOF 9
ENDMDL
MODEL 4
REMARK VINA RESULT:      -7.5      2.567      8.958
REMARK  Name = 
REMARK  12 active torsions:
REMARK  status: ('A' for Active; 'I' for Inactive)
REMARK    1  A    between atoms: C_1  and  O_2
REMARK    2  A    between atoms: O_2  and  C_3
REMARK    3  A    between atoms: C_4  and  C_5
REMARK    4  A    between atoms: C_5  and  C_6
REMARK    5  A    between atoms: N_8  and  C_9
REMARK    6  A    between atoms: C_13  and  N_14
REMARK    7  A    between atoms: C_15  and  O_17
REMARK    8  A    between atoms: O_17  and  C_18
REMARK    9  A    between atoms: C_27  and  C_29
REMARK   10  A    between atoms: N_31  and  S_32
REMARK   11  A    between atoms: S_32  and  C_35
REMARK   12  A    between atoms: C_40  and  C_41
REMARK                            x       y       z     vdW  Elec       q    Type
REMARK                         _______ _______ _______ _____ _____    ______ ____
ROOT
ATOM      1  C   UNL     1       9.417  -0.830  24.825  0.00  0.00    +0.124 A 
ATOM      2  C   UNL     1       8.522  -1.844  24.446  0.00  0.00    +0.059 A 
ATOM      3  C   UNL     1       8.167  -2.017  23.104  0.00  0.00    +0.042 A 
ATOM      4  C   UNL     1       8.784  -1.217  22.133  0.00  0.00    +0.013 A 
ATOM      5  C   UNL     1       9.710  -0.240  22.498  0.00  0.00    +0.008 A 
ATOM      6  C   UNL     1      10.024  -0.015  23.849  0.00  0.00    -0.001 A 
ENDROOT
BRANCH   3   7
ATOM      7  C   UNL     1       7.132  -2.991  22.637  0.00  0.00    +0.263 C 
ATOM      8  N   UNL     1       6.688  -3.948  23.558  0.00  0.00    -0.181 N 
ATOM      9  H   UNL     1       7.055  -4.059  24.492  0.00  0.00    +0.177 HD
ATOM     10  O   UNL     1       6.704  -2.927  21.498  0.00  0.00    -0.269 OA
BRANCH   8  11
ATOM     11  S   UNL     1       5.537  -5.104  23.205  0.00  0.00    +0.075 S 
ATOM     12  O   UNL     1       6.140  -6.106  22.353  0.00  0.00    -0.150 OA
ATOM     13  O   UNL     1       4.373  -4.370  22.755  0.00  0.00    -0.150 OA
BRANCH  11  14
ATOM     14  C   UNL     1       5.157  -5.813  24.797  0.00  0.00    +0.111 A 
ATOM     15  C   UNL     1       4.011  -6.609  25.006  0.00  0.00    -0.024 A 
ATOM     16  C   UNL     1       3.026  -6.950  23.923  0.00  0.00    +0.046 C 
ATOM     17  C   UNL     1       3.772  -7.097  26.302  0.00  0.00    +0.005 A 
ATOM     18  C   UNL     1       4.649  -6.819  27.353  0.00  0.00    +0.000 A 
ATOM     19  C   UNL     1       5.784  -6.046  27.129  0.00  0.00    +0.002 A 
ATOM     20  C   UNL     1       6.039  -5.542  25.854  0.00  0.00    +0.029 A 
ENDBRANCH  11  14
ENDBRANCH   8  11
ENDBRANCH   3   7
BRANCH   1  22
ATOM     21  C   UNL     1       8.777  -0.948  27.111  0.00  0.00    +0.277 C 
ATOM     22  O   UNL     1       9.743  -0.573  26.133  0.00  0.00    -0.495 OA
ENDBRANCH   1  22
BRANCH   6  23
ATOM     23  C   UNL     1      10.920   1.154  24.208  0.00  0.00    +0.076 C 
BRANCH  23  24
ATOM     24  C   UNL     1      10.199   2.465  24.066  0.00  0.00    -0.018 A 
ATOM     25  C   UNL     1       8.847   2.686  24.512  0.00  0.00    +0.005 A 
ATOM     26  C   UNL     1       7.876   1.849  25.112  0.00  0.00    +0.033 A 
ATOM     27  C   UNL     1       6.616   2.346  25.478  0.00  0.00    +0.037 A 
ATOM     28  C   UNL     1       6.317   3.684  25.219  0.00  0.00    +0.025 A 
ATOM     29  C   UNL     1       7.261   4.546  24.630  0.00  0.00    +0.028 A 
ATOM     30  C   UNL     1       8.517   4.020  24.282  0.00  0.00    +0.049 A 
ATOM     31  N   UNL     1       9.627   4.599  23.705  0.00  0.00    -0.349 N 
ATOM     32  C   UNL     1       9.747   5.995  23.347  0.00  0.00    +0.149 C 
ATOM     33  C   UNL     1      10.623   3.671  23.541  0.00  0.00    +0.090 A 
BRANCH  27  34
ATOM     34  N   UNL     1       5.629   1.537  26.091  0.00  0.00    -0.251 N 
ATOM     35  H   UNL     1       5.307   1.780  27.014  0.00  0.00    +0.158 HD
ATOM     36  C   UNL     1       5.129   0.359  25.591  0.00  0.00    +0.405 C 
ATOM     37  O   UNL     1       5.493  -0.220  24.577  0.00  0.00    -0.226 OA
BRANCH  36  38
ATOM     38  O   UNL     1       4.159  -0.132  26.421  0.00  0.00    -0.447 OA
BRANCH  38  39
ATOM     39  C   UNL     1       4.395  -1.487  26.832  0.00  0.00    +0.178 C 
ATOM     40  C   UNL     1       3.277  -2.425  26.372  0.00  0.00    +0.045 C 
ATOM     41  C   UNL     1       3.120  -3.469  27.481  0.00  0.00    +0.004 C 
ATOM     42  C   UNL     1       4.108  -3.088  28.578  0.00  0.00    +0.004 C 
ATOM     43  C   UNL     1       4.369  -1.611  28.352  0.00  0.00    +0.045 C 
ENDBRANCH  38  39
ENDBRANCH  36  38
ENDBRANCH  27  34
ENDBRANCH  23  24
ENDBRANCH   6  23
TORSDOF 9
ENDMDL
MODEL 5
REMARK VINA RESULT:      -7.4      2.531      5.030
REMARK  Name = 
REMARK  12 active torsions:
REMARK  status: ('A' for Active; 'I' for Inactive)
REMARK    1  A    between atoms: C_1  and  O_2
REMARK    2  A    between atoms: O_2  and  C_3
REMARK    3  A    between atoms: C_4  and  C_5
REMARK    4  A    between atoms: C_5  and  C_6
REMARK    5  A    between atoms: N_8  and  C_9
REMARK    6  A    between atoms: C_13  and  N_14
REMARK    7  A    between atoms: C_15  and  O_17
REMARK    8  A    between atoms: O_17  and  C_18
REMARK    9  A    between atoms: C_27  and  C_29
REMARK   10  A    between atoms: N_31  and  S_32
REMARK   11  A    between atoms: S_32  and  C_35
REMARK   12  A    between atoms: C_40  and  C_41
REMARK                            x       y       z     vdW  Elec       q    Type
REMARK                         _______ _______ _______ _____ _____    ______ ____
ROOT
ATOM      1  C   UNL     1       6.185  -4.911  23.772  0.00  0.00    +0.124 A 
ATOM      2  C   UNL     1       7.156  -4.004  23.319  0.00  0.00    +0.059 A 
ATOM      3  C   UNL     1       8.253  -3.673  24.122  0.00  0.00    +0.042 A 
ATOM      4  C   UNL     1       8.412  -4.327  25.352  0.00  0.00    +0.013 A 
ATOM      5  C   UNL     1       7.476  -5.266  25.786  0.00  0.00    +0.008 A 
ATOM      6  C   UNL     1       6.337  -5.555  25.016  0.00  0.00    -0.001 A 
ENDROOT
BRANCH   3   7
ATOM      7  C   UNL     1       9.262  -2.628  23.764  0.00  0.00    +0.263 C 
ATOM      8  N   UNL     1       8.792  -1.325  23.563  0.00  0.00    -0.181 N 
ATOM      9  H   UNL     1       7.821  -1.054  23.589  0.00  0.00    +0.177 HD
ATOM     10  O   UNL     1      10.440  -2.925  23.667  0.00  0.00    -0.269 OA
BRANCH   8  11
ATOM     11  S   UNL     1       9.781  -0.040  23.163  0.00  0.00    +0.075 S 
ATOM     12  O   UNL     1      10.423  -0.332  21.900  0.00  0.00    -0.150 OA
ATOM     13  O   UNL     1      10.577   0.221  24.343  0.00  0.00    -0.150 OA
BRANCH  11  14
ATOM     14  C   UNL     1       8.639   1.316  22.961  0.00  0.00    +0.111 A 
ATOM     15  C   UNL     1       9.044   2.660  23.101  0.00  0.00    -0.024 A 
ATOM     16  C   UNL     1      10.455   3.077  23.407  0.00  0.00    +0.046 C 
ATOM     17  C   UNL     1       8.069   3.663  22.961  0.00  0.00    +0.005 A 
ATOM     18  C   UNL     1       6.740   3.344  22.674  0.00  0.00    +0.000 A 
ATOM     19  C   UNL     1       6.358   2.015  22.523  0.00  0.00    +0.002 A 
ATOM     20  C   UNL     1       7.304   1.001  22.668  0.00  0.00    +0.029 A 
ENDBRANCH  11  14
ENDBRANCH   8  11
ENDBRANCH   3   7
BRANCH   1  22
ATOM     21  C   UNL     1       3.946  -4.336  23.218  0.00  0.00    +0.277 C 
ATOM     22  O   UNL     1       5.056  -5.215  23.054  0.00  0.00    -0.495 OA
ENDBRANCH   1  22
BRANCH   6  23
ATOM     23  C   UNL     1       5.274  -6.468  25.595  0.00  0.00    +0.076 C 
BRANCH  23  24
ATOM     24  C   UNL     1       4.911  -6.071  26.998  0.00  0.00    -0.018 A 
ATOM     25  C   UNL     1       4.636  -4.714  27.399  0.00  0.00    +0.005 A 
ATOM     26  C   UNL     1       4.651  -3.478  26.709  0.00  0.00    +0.033 A 
ATOM     27  C   UNL     1       4.305  -2.283  27.356  0.00  0.00    +0.037 A 
ATOM     28  C   UNL     1       3.964  -2.321  28.708  0.00  0.00    +0.025 A 
ATOM     29  C   UNL     1       3.932  -3.533  29.423  0.00  0.00    +0.028 A 
ATOM     30  C   UNL     1       4.277  -4.715  28.745  0.00  0.00    +0.049 A 
ATOM     31  N   UNL     1       4.338  -6.028  29.162  0.00  0.00    -0.349 N 
ATOM     32  C   UNL     1       3.990  -6.499  30.484  0.00  0.00    +0.149 C 
ATOM     33  C   UNL     1       4.748  -6.839  28.135  0.00  0.00    +0.090 A 
BRANCH  27  34
ATOM     34  N   UNL     1       4.298  -1.033  26.690  0.00  0.00    -0.251 N 
ATOM     35  H   UNL     1       3.515  -0.415  26.824  0.00  0.00    +0.158 HD
ATOM     36  C   UNL     1       5.222  -0.609  25.766  0.00  0.00    +0.405 C 
ATOM     37  O   UNL     1       6.159  -1.254  25.317  0.00  0.00    -0.226 OA
BRANCH  36  38
ATOM     38  O   UNL     1       4.933   0.665  25.361  0.00  0.00    -0.447 OA
BRANCH  38  39
ATOM     39  C   UNL     1       5.395   1.671  26.275  0.00  0.00    +0.178 C 
ATOM     40  C   UNL     1       4.892   3.063  25.892  0.00  0.00    +0.045 C 
ATOM     41  C   UNL     1       6.017   4.035  26.261  0.00  0.00    +0.004 C 
ATOM     42  C   UNL     1       7.163   3.186  26.798  0.00  0.00    +0.004 C 
ATOM     43  C   UNL     1       6.913   1.807  26.218  0.00  0.00    +0.045 C 
ENDBRANCH  38  39
ENDBRANCH  36  38
ENDBRANCH  27  34
ENDBRANCH  23  24
ENDBRANCH   6  23
TORSDOF 9
ENDMDL
MODEL 6
REMARK VINA RESULT:      -7.1      3.151      5.567
REMARK  Name = 
REMARK  12 active torsions:
REMARK  status: ('A' for Active; 'I' for Inactive)
REMARK    1  A    between atoms: C_1  and  O_2
REMARK    2  A    between atoms: O_2  and  C_3
REMARK    3  A    between atoms: C_4  and  C_5
REMARK    4  A    between atoms: C_5  and  C_6
REMARK    5  A    between atoms: N_8  and  C_9
REMARK    6  A    between atoms: C_13  and  N_14
REMARK    7  A    between atoms: C_15  and  O_17
REMARK    8  A    between atoms: O_17  and  C_18
REMARK    9  A    between atoms: C_27  and  C_29
REMARK   10  A    between atoms: N_31  and  S_32
REMARK   11  A    between atoms: S_32  and  C_35
REMARK   12  A    between atoms: C_40  and  C_41
REMARK                            x       y       z     vdW  Elec       q    Type
REMARK                         _______ _______ _______ _____ _____    ______ ____
ROOT
ATOM      1  C   UNL     1       7.114  -4.983  23.636  0.00  0.00    +0.124 A 
ATOM      2  C   UNL     1       8.006  -4.014  23.147  0.00  0.00    +0.059 A 
ATOM      3  C   UNL     1       8.604  -3.093  24.014  0.00  0.00    +0.042 A 
ATOM      4  C   UNL     1       8.367  -3.208  25.391  0.00  0.00    +0.013 A 
ATOM      5  C   UNL     1       7.520  -4.199  25.888  0.00  0.00    +0.008 A 
ATOM      6  C   UNL     1       6.863  -5.086  25.019  0.00  0.00    -0.001 A 
ENDROOT
BRANCH   3   7
ATOM      7  C   UNL     1       9.467  -1.960  23.558  0.00  0.00    +0.263 C 
ATOM      8  N   UNL     1       9.165  -0.685  24.053  0.00  0.00    -0.181 N 
ATOM      9  H   UNL     1       8.378  -0.471  24.647  0.00  0.00    +0.177 HD
ATOM     10  O   UNL     1      10.394  -2.167  22.795  0.00  0.00    -0.269 OA
BRANCH   8  11
ATOM     11  S   UNL     1      10.027   0.687  23.651  0.00  0.00    +0.075 S 
ATOM     12  O   UNL     1      10.003   0.839  22.212  0.00  0.00    -0.150 OA
ATOM     13  O   UNL     1      11.288   0.575  24.351  0.00  0.00    -0.150 OA
BRANCH  11  14
ATOM     14  C   UNL     1       9.093   2.003  24.412  0.00  0.00    +0.111 A 
ATOM     15  C   UNL     1       9.461   3.358  24.273  0.00  0.00    -0.024 A 
ATOM     16  C   UNL     1      10.641   3.821  23.467  0.00  0.00    +0.046 C 
ATOM     17  C   UNL     1       8.687   4.325  24.938  0.00  0.00    +0.005 A 
ATOM     18  C   UNL     1       7.576   3.962  25.701  0.00  0.00    +0.000 A 
ATOM     19  C   UNL     1       7.215   2.624  25.817  0.00  0.00    +0.002 A 
ATOM     20  C   UNL     1       7.972   1.644  25.176  0.00  0.00    +0.029 A 
ENDBRANCH  11  14
ENDBRANCH   8  11
ENDBRANCH   3   7
BRANCH   1  22
ATOM     21  C   UNL     1       6.558  -5.632  21.418  0.00  0.00    +0.277 C 
ATOM     22  O   UNL     1       6.447  -5.862  22.820  0.00  0.00    -0.495 OA
ENDBRANCH   1  22
BRANCH   6  23
ATOM     23  C   UNL     1       5.839  -6.048  25.589  0.00  0.00    +0.076 C 
BRANCH  23  24
ATOM     24  C   UNL     1       4.445  -5.684  25.163  0.00  0.00    -0.018 A 
ATOM     25  C   UNL     1       3.737  -4.527  25.649  0.00  0.00    +0.005 A 
ATOM     26  C   UNL     1       4.061  -3.515  26.584  0.00  0.00    +0.033 A 
ATOM     27  C   UNL     1       3.173  -2.464  26.853  0.00  0.00    +0.037 A 
ATOM     28  C   UNL     1       1.940  -2.438  26.200  0.00  0.00    +0.025 A 
ATOM     29  C   UNL     1       1.587  -3.424  25.259  0.00  0.00    +0.028 A 
ATOM     30  C   UNL     1       2.502  -4.461  25.006  0.00  0.00    +0.049 A 
ATOM     31  N   UNL     1       2.448  -5.547  24.159  0.00  0.00    -0.349 N 
ATOM     32  C   UNL     1       1.361  -5.842  23.252  0.00  0.00    +0.149 C 
ATOM     33  C   UNL     1       3.588  -6.301  24.271  0.00  0.00    +0.090 A 
BRANCH  27  34
ATOM     34  N   UNL     1       3.474  -1.430  27.773  0.00  0.00    -0.251 N 
ATOM     35  H   UNL     1       3.242  -1.562  28.744  0.00  0.00    +0.158 HD
ATOM     36  C   UNL     1       3.963  -0.187  27.454  0.00  0.00    +0.405 C 
ATOM     37  O   UNL     1       4.157   0.259  26.332  0.00  0.00    -0.226 OA
BRANCH  36  38
ATOM     38  O   UNL     1       4.179   0.541  28.592  0.00  0.00    -0.447 OA
BRANCH  38  39
ATOM     39  C   UNL     1       5.205   1.534  28.445  0.00  0.00    +0.178 C 
ATOM     40  C   UNL     1       6.523   1.090  29.081  0.00  0.00    +0.045 C 
ATOM     41  C   UNL     1       7.165   2.358  29.651  0.00  0.00    +0.004 C 
ATOM     42  C   UNL     1       6.188   3.496  29.382  0.00  0.00    +0.004 C 
ATOM     43  C   UNL     1       4.848   2.807  29.204  0.00  0.00    +0.045 C 
ENDBRANCH  38  39
ENDBRANCH  36  38
ENDBRANCH  27  34
ENDBRANCH  23  24
ENDBRANCH   6  23
TORSDOF 9
ENDMDL
MODEL 7
REMARK VINA RESULT:      -7.1      2.981      4.893
REMARK  Name = 
REMARK  12 active torsions:
REMARK  status: ('A' for Active; 'I' for Inactive)
REMARK    1  A    between atoms: C_1  and  O_2
REMARK    2  A    between atoms: O_2  and  C_3
REMARK    3  A    between atoms: C_4  and  C_5
REMARK    4  A    between atoms: C_5  and  C_6
REMARK    5  A    between atoms: N_8  and  C_9
REMARK    6  A    between atoms: C_13  and  N_14
REMARK    7  A    between atoms: C_15  and  O_17
REMARK    8  A    between atoms: O_17  and  C_18
REMARK    9  A    between atoms: C_27  and  C_29
REMARK   10  A    between atoms: N_31  and  S_32
REMARK   11  A    between atoms: S_32  and  C_35
REMARK   12  A    between atoms: C_40  and  C_41
REMARK                            x       y       z     vdW  Elec       q    Type
REMARK                         _______ _______ _______ _____ _____    ______ ____
ROOT
ATOM      1  C   UNL     1       6.892  -0.838  26.746  0.00  0.00    +0.124 A 
ATOM      2  C   UNL     1       6.417   0.450  26.447  0.00  0.00    +0.059 A 
ATOM      3  C   UNL     1       5.052   0.678  26.244  0.00  0.00    +0.042 A 
ATOM      4  C   UNL     1       4.155  -0.383  26.428  0.00  0.00    +0.013 A 
ATOM      5  C   UNL     1       4.615  -1.654  26.772  0.00  0.00    +0.008 A 
ATOM      6  C   UNL     1       5.990  -1.907  26.913  0.00  0.00    -0.001 A 
ENDROOT
BRANCH   3   7
ATOM      7  C   UNL     1       4.484   1.991  25.805  0.00  0.00    +0.263 C 
ATOM      8  N   UNL     1       5.378   2.935  25.284  0.00  0.00    -0.181 N 
ATOM      9  H   UNL     1       6.378   2.813  25.236  0.00  0.00    +0.177 HD
ATOM     10  O   UNL     1       3.287   2.200  25.899  0.00  0.00    -0.269 OA
BRANCH   8  11
ATOM     11  S   UNL     1       4.912   4.444  24.745  0.00  0.00    +0.075 S 
ATOM     12  O   UNL     1       4.444   5.212  25.878  0.00  0.00    -0.150 OA
ATOM     13  O   UNL     1       4.038   4.203  23.617  0.00  0.00    -0.150 OA
BRANCH  11  14
ATOM     14  C   UNL     1       6.429   5.149  24.122  0.00  0.00    +0.111 A 
ATOM     15  C   UNL     1       7.583   5.265  24.924  0.00  0.00    -0.024 A 
ATOM     16  C   UNL     1       7.658   4.794  26.349  0.00  0.00    +0.046 C 
ATOM     17  C   UNL     1       8.722   5.866  24.360  0.00  0.00    +0.005 A 
ATOM     18  C   UNL     1       8.721   6.323  23.041  0.00  0.00    +0.000 A 
ATOM     19  C   UNL     1       7.580   6.188  22.257  0.00  0.00    +0.002 A 
ATOM     20  C   UNL     1       6.434   5.604  22.795  0.00  0.00    +0.029 A 
ENDBRANCH  11  14
ENDBRANCH   8  11
ENDBRANCH   3   7
BRANCH   1  22
ATOM     21  C   UNL     1       9.118  -0.430  26.019  0.00  0.00    +0.277 C 
ATOM     22  O   UNL     1       8.226  -1.127  26.884  0.00  0.00    -0.495 OA
ENDBRANCH   1  22
BRANCH   6  23
ATOM     23  C   UNL     1       6.453  -3.333  27.140  0.00  0.00    +0.076 C 
BRANCH  23  24
ATOM     24  C   UNL     1       5.978  -4.247  26.046  0.00  0.00    -0.018 A 
ATOM     25  C   UNL     1       6.301  -4.062  24.654  0.00  0.00    +0.005 A 
ATOM     26  C   UNL     1       7.036  -3.077  23.952  0.00  0.00    +0.033 A 
ATOM     27  C   UNL     1       7.220  -3.161  22.565  0.00  0.00    +0.037 A 
ATOM     28  C   UNL     1       6.644  -4.225  21.870  0.00  0.00    +0.025 A 
ATOM     29  C   UNL     1       5.913  -5.226  22.536  0.00  0.00    +0.028 A 
ATOM     30  C   UNL     1       5.752  -5.118  23.929  0.00  0.00    +0.049 A 
ATOM     31  N   UNL     1       5.105  -5.922  24.843  0.00  0.00    -0.349 N 
ATOM     32  C   UNL     1       4.438  -7.166  24.533  0.00  0.00    +0.149 C 
ATOM     33  C   UNL     1       5.206  -5.392  26.104  0.00  0.00    +0.090 A 
BRANCH  27  34
ATOM     34  N   UNL     1       7.961  -2.198  21.837  0.00  0.00    -0.251 N 
ATOM     35  H   UNL     1       7.615  -1.895  20.941  0.00  0.00    +0.158 HD
ATOM     36  C   UNL     1       9.194  -1.701  22.183  0.00  0.00    +0.405 C 
ATOM     37  O   UNL     1       9.883  -2.048  23.132  0.00  0.00    -0.226 OA
BRANCH  36  38
ATOM     38  O   UNL     1       9.593  -0.756  21.278  0.00  0.00    -0.447 OA
BRANCH  38  39
ATOM     39  C   UNL     1       9.066   0.551  21.550  0.00  0.00    +0.178 C 
ATOM     40  C   UNL     1      10.136   1.492  22.105  0.00  0.00    +0.045 C 
ATOM     41  C   UNL     1       9.421   2.397  23.113  0.00  0.00    +0.004 C 
ATOM     42  C   UNL     1       7.970   1.930  23.160  0.00  0.00    +0.004 C 
ATOM     43  C   UNL     1       8.020   0.499  22.659  0.00  0.00    +0.045 C 
ENDBRANCH  38  39
ENDBRANCH  36  38
ENDBRANCH  27  34
ENDBRANCH  23  24
ENDBRANCH   6  23
TORSDOF 9
ENDMDL
MODEL 8
REMARK VINA RESULT:      -7.1      1.811      3.099
REMARK  Name = 
REMARK  12 active torsions:
REMARK  status: ('A' for Active; 'I' for Inactive)
REMARK    1  A    between atoms: C_1  and  O_2
REMARK    2  A    between atoms: O_2  and  C_3
REMARK    3  A    between atoms: C_4  and  C_5
REMARK    4  A    between atoms: C_5  and  C_6
REMARK    5  A    between atoms: N_8  and  C_9
REMARK    6  A    between atoms: C_13  and  N_14
REMARK    7  A    between atoms: C_15  and  O_17
REMARK    8  A    between atoms: O_17  and  C_18
REMARK    9  A    between atoms: C_27  and  C_29
REMARK   10  A    between atoms: N_31  and  S_32
REMARK   11  A    between atoms: S_32  and  C_35
REMARK   12  A    between atoms: C_40  and  C_41
REMARK                            x       y       z     vdW  Elec       q    Type
REMARK                         _______ _______ _______ _____ _____    ______ ____
ROOT
ATOM      1  C   UNL     1       6.490  -3.472  27.228  0.00  0.00    +0.124 A 
ATOM      2  C   UNL     1       6.772  -2.114  27.000  0.00  0.00    +0.059 A 
ATOM      3  C   UNL     1       5.736  -1.196  26.797  0.00  0.00    +0.042 A 
ATOM      4  C   UNL     1       4.410  -1.635  26.910  0.00  0.00    +0.013 A 
ATOM      5  C   UNL     1       4.124  -2.973  27.184  0.00  0.00    +0.008 A 
ATOM      6  C   UNL     1       5.156  -3.916  27.324  0.00  0.00    -0.001 A 
ENDROOT
BRANCH   3   7
ATOM      7  C   UNL     1       5.956   0.238  26.430  0.00  0.00    +0.263 C 
ATOM      8  N   UNL     1       5.114   0.787  25.456  0.00  0.00    -0.181 N 
ATOM      9  H   UNL     1       4.410   0.272  24.948  0.00  0.00    +0.177 HD
ATOM     10  O   UNL     1       6.833   0.881  26.980  0.00  0.00    -0.269 OA
BRANCH   8  11
ATOM     11  S   UNL     1       5.218   2.369  24.933  0.00  0.00    +0.075 S 
ATOM     12  O   UNL     1       5.450   3.217  26.082  0.00  0.00    -0.150 OA
ATOM     13  O   UNL     1       4.057   2.580  24.094  0.00  0.00    -0.150 OA
BRANCH  11  14
ATOM     14  C   UNL     1       6.660   2.366  23.883  0.00  0.00    +0.111 A 
ATOM     15  C   UNL     1       7.834   3.069  24.224  0.00  0.00    -0.024 A 
ATOM     16  C   UNL     1       7.993   3.858  25.494  0.00  0.00    +0.046 C 
ATOM     17  C   UNL     1       8.909   3.040  23.319  0.00  0.00    +0.005 A 
ATOM     18  C   UNL     1       8.828   2.324  22.123  0.00  0.00    +0.000 A 
ATOM     19  C   UNL     1       7.670   1.623  21.806  0.00  0.00    +0.002 A 
ATOM     20  C   UNL     1       6.586   1.643  22.683  0.00  0.00    +0.029 A 
ENDBRANCH  11  14
ENDBRANCH   8  11
ENDBRANCH   3   7
BRANCH   1  22
ATOM     21  C   UNL     1       8.658  -4.220  26.605  0.00  0.00    +0.277 C 
ATOM     22  O   UNL     1       7.469  -4.424  27.362  0.00  0.00    -0.495 OA
ENDBRANCH   1  22
BRANCH   6  23
ATOM     23  C   UNL     1       4.796  -5.381  27.472  0.00  0.00    +0.076 C 
BRANCH  23  24
ATOM     24  C   UNL     1       4.267  -5.950  26.186  0.00  0.00    -0.018 A 
ATOM     25  C   UNL     1       4.844  -5.678  24.894  0.00  0.00    +0.005 A 
ATOM     26  C   UNL     1       5.924  -4.870  24.466  0.00  0.00    +0.033 A 
ATOM     27  C   UNL     1       6.295  -4.811  23.115  0.00  0.00    +0.037 A 
ATOM     28  C   UNL     1       5.565  -5.548  22.181  0.00  0.00    +0.025 A 
ATOM     29  C   UNL     1       4.490  -6.368  22.572  0.00  0.00    +0.028 A 
ATOM     30  C   UNL     1       4.147  -6.411  23.935  0.00  0.00    +0.049 A 
ATOM     31  N   UNL     1       3.167  -7.104  24.613  0.00  0.00    -0.349 N 
ATOM     32  C   UNL     1       2.241  -8.037  24.013  0.00  0.00    +0.149 C 
ATOM     33  C   UNL     1       3.209  -6.809  25.951  0.00  0.00    +0.090 A 
BRANCH  27  34
ATOM     34  N   UNL     1       7.378  -4.021  22.658  0.00  0.00    -0.251 N 
ATOM     35  H   UNL     1       8.289  -4.444  22.580  0.00  0.00    +0.158 HD
ATOM     36  C   UNL     1       7.341  -2.671  22.408  0.00  0.00    +0.405 C 
ATOM     37  O   UNL     1       6.397  -1.917  22.597  0.00  0.00    -0.226 OA
BRANCH  36  38
ATOM     38  O   UNL     1       8.552  -2.244  21.938  0.00  0.00    -0.447 OA
BRANCH  38  39
ATOM     39  C   UNL     1       9.467  -1.871  22.980  0.00  0.00    +0.178 C 
ATOM     40  C   UNL     1       8.739  -1.296  24.197  0.00  0.00    +0.045 C 
ATOM     41  C   UNL     1       9.658  -0.208  24.762  0.00  0.00    +0.004 C 
ATOM     42  C   UNL     1      10.868  -0.140  23.836  0.00  0.00    +0.004 C 
ATOM     43  C   UNL     1      10.375  -0.732  22.530  0.00  0.00    +0.045 C 
ENDBRANCH  38  39
ENDBRANCH  36  38
ENDBRANCH  27  34
ENDBRANCH  23  24
ENDBRANCH   6  23
TORSDOF 9
ENDMDL
MODEL 9
REMARK VINA RESULT:      -6.8      3.353      8.848
REMARK  Name = 
REMARK  12 active torsions:
REMARK  status: ('A' for Active; 'I' for Inactive)
REMARK    1  A    between atoms: C_1  and  O_2
REMARK    2  A    between atoms: O_2  and  C_3
REMARK    3  A    between atoms: C_4  and  C_5
REMARK    4  A    between atoms: C_5  and  C_6
REMARK    5  A    between atoms: N_8  and  C_9
REMARK    6  A    between atoms: C_13  and  N_14
REMARK    7  A    between atoms: C_15  and  O_17
REMARK    8  A    between atoms: O_17  and  C_18
REMARK    9  A    between atoms: C_27  and  C_29
REMARK   10  A    between atoms: N_31  and  S_32
REMARK   11  A    between atoms: S_32  and  C_35
REMARK   12  A    between atoms: C_40  and  C_41
REMARK                            x       y       z     vdW  Elec       q    Type
REMARK                         _______ _______ _______ _____ _____    ______ ____
ROOT
ATOM      1  C   UNL     1       6.508   3.304  26.724  0.00  0.00    +0.124 A 
ATOM      2  C   UNL     1       5.845   2.109  27.049  0.00  0.00    +0.059 A 
ATOM      3  C   UNL     1       4.913   1.549  26.168  0.00  0.00    +0.042 A 
ATOM      4  C   UNL     1       4.714   2.153  24.919  0.00  0.00    +0.013 A 
ATOM      5  C   UNL     1       5.406   3.313  24.571  0.00  0.00    +0.008 A 
ATOM      6  C   UNL     1       6.295   3.920  25.475  0.00  0.00    -0.001 A 
ENDROOT
BRANCH   3   7
ATOM      7  C   UNL     1       4.079   0.350  26.492  0.00  0.00    +0.263 C 
ATOM      8  N   UNL     1       4.702  -0.903  26.421  0.00  0.00    -0.181 N 
ATOM      9  H   UNL     1       5.652  -1.055  26.116  0.00  0.00    +0.177 HD
ATOM     10  O   UNL     1       2.911   0.486  26.811  0.00  0.00    -0.269 OA
BRANCH   8  11
ATOM     11  S   UNL     1       3.922  -2.340  26.754  0.00  0.00    +0.075 S 
ATOM     12  O   UNL     1       2.980  -2.608  25.689  0.00  0.00    -0.150 OA
ATOM     13  O   UNL     1       3.461  -2.226  28.122  0.00  0.00    -0.150 OA
BRANCH  11  14
ATOM     14  C   UNL     1       5.236  -3.546  26.717  0.00  0.00    +0.111 A 
ATOM     15  C   UNL     1       4.979  -4.932  26.731  0.00  0.00    -0.024 A 
ATOM     16  C   UNL     1       3.597  -5.522  26.757  0.00  0.00    +0.046 C 
ATOM     17  C   UNL     1       6.078  -5.809  26.736  0.00  0.00    +0.005 A 
ATOM     18  C   UNL     1       7.387  -5.327  26.710  0.00  0.00    +0.000 A 
ATOM     19  C   UNL     1       7.627  -3.957  26.680  0.00  0.00    +0.002 A 
ATOM     20  C   UNL     1       6.554  -3.066  26.685  0.00  0.00    +0.029 A 
ENDBRANCH  11  14
ENDBRANCH   8  11
ENDBRANCH   3   7
BRANCH   1  22
ATOM     21  C   UNL     1       6.823   4.413  28.803  0.00  0.00    +0.277 C 
ATOM     22  O   UNL     1       7.377   3.931  27.581  0.00  0.00    -0.495 OA
ENDBRANCH   1  22
BRANCH   6  23
ATOM     23  C   UNL     1       6.909   5.257  25.113  0.00  0.00    +0.076 C 
BRANCH  23  24
ATOM     24  C   UNL     1       8.346   5.111  24.700  0.00  0.00    -0.018 A 
ATOM     25  C   UNL     1       8.862   3.963  23.997  0.00  0.00    +0.005 A 
ATOM     26  C   UNL     1       8.276   2.751  23.558  0.00  0.00    +0.033 A 
ATOM     27  C   UNL     1       9.025   1.797  22.854  0.00  0.00    +0.037 A 
ATOM     28  C   UNL     1      10.376   2.046  22.608  0.00  0.00    +0.025 A 
ATOM     29  C   UNL     1      10.989   3.243  23.023  0.00  0.00    +0.028 A 
ATOM     30  C   UNL     1      10.210   4.183  23.720  0.00  0.00    +0.049 A 
ATOM     31  N   UNL     1      10.516   5.421  24.244  0.00  0.00    -0.349 N 
ATOM     32  C   UNL     1      11.801   6.075  24.137  0.00  0.00    +0.149 C 
ATOM     33  C   UNL     1       9.420   5.967  24.860  0.00  0.00    +0.090 A 
BRANCH  27  34
ATOM     34  N   UNL     1       8.464   0.582  22.392  0.00  0.00    -0.251 N 
ATOM     35  H   UNL     1       8.122   0.533  21.446  0.00  0.00    +0.158 HD
ATOM     36  C   UNL     1       8.230  -0.538  23.154  0.00  0.00    +0.405 C 
ATOM     37  O   UNL     1       8.403  -0.653  24.359  0.00  0.00    -0.226 OA
BRANCH  36  38
ATOM     38  O   UNL     1       7.722  -1.541  22.374  0.00  0.00    -0.447 OA
BRANCH  38  39
ATOM     39  C   UNL     1       7.021  -2.544  23.125  0.00  0.00    +0.178 C 
ATOM     40  C   UNL     1       7.716  -3.904  23.044  0.00  0.00    +0.045 C 
ATOM     41  C   UNL     1       6.596  -4.950  23.046  0.00  0.00    +0.004 C 
ATOM     42  C   UNL     1       5.283  -4.177  23.075  0.00  0.00    +0.004 C 
ATOM     43  C   UNL     1       5.641  -2.806  22.533  0.00  0.00    +0.045 C 
ENDBRANCH  38  39
ENDBRANCH  36  38
ENDBRANCH  27  34
ENDBRANCH  23  24
ENDBRANCH   6  23
TORSDOF 9
ENDMDL
