MODEL 1
REMARK VINA RESULT:      -2.9      0.000      0.000
REMARK  Name = 
REMARK  3 active torsions:
REMARK  status: ('A' for Active; 'I' for Inactive)
REMARK    1  A    between atoms: C_1  and  C_2
REMARK    2  A    between atoms: C_2  and  O_4
REMARK    3  A    between atoms: C_2  and  C_5
REMARK                            x       y       z     vdW  Elec       q    Type
REMARK                         _______ _______ _______ _____ _____    ______ ____
ROOT
ATOM      1  C   UNL     1      11.812   4.020  23.222  0.00  0.00    +0.045 C 
ATOM      2  C   UNL     1      12.563   5.337  23.182  0.00  0.00    +0.174 C 
ENDROOT
BRANCH   2   3
ATOM      3  C   UNL     1      12.071   6.258  24.288  0.00  0.00    +0.254 C 
ATOM      4  O   UNL     1      12.758   6.558  25.262  0.00  0.00    -0.298 OA
ENDBRANCH   2   3
BRANCH   2   5
ATOM      5  O   UNL     1      13.955   5.073  23.303  0.00  0.00    -0.385 OA
ATOM      6  H   UNL     1      14.126   4.255  22.793  0.00  0.00    +0.210 HD
ENDBRANCH   2   5
TORSDOF 2
ENDMDL
MODEL 2
REMARK VINA RESULT:      -2.8      9.759     10.645
REMARK  Name = 
REMARK  3 active torsions:
REMARK  status: ('A' for Active; 'I' for Inactive)
REMARK    1  A    between atoms: C_1  and  C_2
REMARK    2  A    between atoms: C_2  and  O_4
REMARK    3  A    between atoms: C_2  and  C_5
REMARK                            x       y       z     vdW  Elec       q    Type
REMARK                         _______ _______ _______ _____ _____    ______ ____
ROOT
ATOM      1  C   UNL     1       8.532  -4.800  26.606  0.00  0.00    +0.045 C 
ATOM      2  C   UNL     1       9.112  -5.043  25.226  0.00  0.00    +0.174 C 
ENDROOT
BRANCH   2   3
ATOM      3  C   UNL     1       9.102  -3.755  24.416  0.00  0.00    +0.254 C 
ATOM      4  O   UNL     1      10.128  -3.211  24.014  0.00  0.00    -0.298 OA
ENDBRANCH   2   3
BRANCH   2   5
ATOM      5  O   UNL     1      10.429  -5.560  25.369  0.00  0.00    -0.385 OA
ATOM      6  H   UNL     1      10.994  -4.805  25.632  0.00  0.00    +0.210 HD
ENDBRANCH   2   5
TORSDOF 2
ENDMDL
MODEL 3
REMARK VINA RESULT:      -2.7     11.179     11.584
REMARK  Name = 
REMARK  3 active torsions:
REMARK  status: ('A' for Active; 'I' for Inactive)
REMARK    1  A    between atoms: C_1  and  C_2
REMARK    2  A    between atoms: C_2  and  O_4
REMARK    3  A    between atoms: C_2  and  C_5
REMARK                            x       y       z     vdW  Elec       q    Type
REMARK                         _______ _______ _______ _____ _____    ______ ____
ROOT
ATOM      1  C   UNL     1       8.321  -4.983  24.174  0.00  0.00    +0.045 C 
ATOM      2  C   UNL     1       9.200  -4.744  25.387  0.00  0.00    +0.174 C 
ENDROOT
BRANCH   2   3
ATOM      3  C   UNL     1       8.386  -4.894  26.663  0.00  0.00    +0.254 C 
ATOM      4  O   UNL     1       7.624  -5.837  26.863  0.00  0.00    -0.298 OA
ENDBRANCH   2   3
BRANCH   2   5
ATOM      5  O   UNL     1      10.287  -5.659  25.350  0.00  0.00    -0.385 OA
ATOM      6  H   UNL     1      10.573  -5.784  26.277  0.00  0.00    +0.210 HD
ENDBRANCH   2   5
TORSDOF 2
ENDMDL
MODEL 4
REMARK VINA RESULT:      -2.7      5.352      6.390
REMARK  Name = 
REMARK  3 active torsions:
REMARK  status: ('A' for Active; 'I' for Inactive)
REMARK    1  A    between atoms: C_1  and  C_2
REMARK    2  A    between atoms: C_2  and  O_4
REMARK    3  A    between atoms: C_2  and  C_5
REMARK                            x       y       z     vdW  Elec       q    Type
REMARK                         _______ _______ _______ _____ _____    ______ ____
ROOT
ATOM      1  C   UNL     1       7.912   1.900  21.663  0.00  0.00    +0.045 C 
ATOM      2  C   UNL     1       9.276   1.340  22.017  0.00  0.00    +0.174 C 
ENDROOT
BRANCH   2   3
ATOM      3  C   UNL     1       9.457  -0.036  21.393  0.00  0.00    +0.254 C 
ATOM      4  O   UNL     1      10.070  -0.945  21.948  0.00  0.00    -0.298 OA
ENDBRANCH   2   3
BRANCH   2   5
ATOM      5  O   UNL     1      10.273   2.250  21.573  0.00  0.00    -0.385 OA
ATOM      6  H   UNL     1       9.798   3.009  21.178  0.00  0.00    +0.210 HD
ENDBRANCH   2   5
TORSDOF 2
ENDMDL
MODEL 5
REMARK VINA RESULT:      -2.7      4.970      5.285
REMARK  Name = 
REMARK  3 active torsions:
REMARK  status: ('A' for Active; 'I' for Inactive)
REMARK    1  A    between atoms: C_1  and  C_2
REMARK    2  A    between atoms: C_2  and  O_4
REMARK    3  A    between atoms: C_2  and  C_5
REMARK                            x       y       z     vdW  Elec       q    Type
REMARK                         _______ _______ _______ _____ _____    ______ ____
ROOT
ATOM      1  C   UNL     1       9.405   0.029  21.332  0.00  0.00    +0.045 C 
ATOM      2  C   UNL     1       9.553   1.214  22.267  0.00  0.00    +0.174 C 
ENDROOT
BRANCH   2   3
ATOM      3  C   UNL     1      10.284   0.796  23.534  0.00  0.00    +0.254 C 
ATOM      4  O   UNL     1      10.973   1.572  24.195  0.00  0.00    -0.298 OA
ENDBRANCH   2   3
BRANCH   2   5
ATOM      5  O   UNL     1      10.244   2.252  21.584  0.00  0.00    -0.385 OA
ATOM      6  H   UNL     1       9.808   2.345  20.712  0.00  0.00    +0.210 HD
ENDBRANCH   2   5
TORSDOF 2
ENDMDL
MODEL 6
REMARK VINA RESULT:      -2.6      7.099      8.004
REMARK  Name = 
REMARK  3 active torsions:
REMARK  status: ('A' for Active; 'I' for Inactive)
REMARK    1  A    between atoms: C_1  and  C_2
REMARK    2  A    between atoms: C_2  and  O_4
REMARK    3  A    between atoms: C_2  and  C_5
REMARK                            x       y       z     vdW  Elec       q    Type
REMARK                         _______ _______ _______ _____ _____    ______ ____
ROOT
ATOM      1  C   UNL     1       9.626   0.060  23.108  0.00  0.00    +0.045 C 
ATOM      2  C   UNL     1      10.266  -1.302  22.929  0.00  0.00    +0.174 C 
ENDROOT
BRANCH   2   3
ATOM      3  C   UNL     1       9.538  -2.340  23.770  0.00  0.00    +0.254 C 
ATOM      4  O   UNL     1      10.052  -3.404  24.109  0.00  0.00    -0.298 OA
ENDBRANCH   2   3
BRANCH   2   5
ATOM      5  O   UNL     1      10.243  -1.640  21.548  0.00  0.00    -0.385 OA
ATOM      6  H   UNL     1      10.233  -0.793  21.057  0.00  0.00    +0.210 HD
ENDBRANCH   2   5
TORSDOF 2
ENDMDL
MODEL 7
REMARK VINA RESULT:      -2.6     11.007     11.720
REMARK  Name = 
REMARK  3 active torsions:
REMARK  status: ('A' for Active; 'I' for Inactive)
REMARK    1  A    between atoms: C_1  and  C_2
REMARK    2  A    between atoms: C_2  and  O_4
REMARK    3  A    between atoms: C_2  and  C_5
REMARK                            x       y       z     vdW  Elec       q    Type
REMARK                         _______ _______ _______ _____ _____    ______ ____
ROOT
ATOM      1  C   UNL     1       7.127  -4.105  26.089  0.00  0.00    +0.045 C 
ATOM      2  C   UNL     1       8.046  -5.305  26.215  0.00  0.00    +0.174 C 
ENDROOT
BRANCH   2   3
ATOM      3  C   UNL     1       9.487  -4.893  25.955  0.00  0.00    +0.254 C 
ATOM      4  O   UNL     1      10.002  -4.932  24.840  0.00  0.00    -0.298 OA
ENDBRANCH   2   3
BRANCH   2   5
ATOM      5  O   UNL     1       7.889  -5.867  27.512  0.00  0.00    -0.385 OA
ATOM      6  H   UNL     1       8.526  -6.607  27.570  0.00  0.00    +0.210 HD
ENDBRANCH   2   5
TORSDOF 2
ENDMDL
MODEL 8
REMARK VINA RESULT:      -2.5      5.796      6.583
REMARK  Name = 
REMARK  3 active torsions:
REMARK  status: ('A' for Active; 'I' for Inactive)
REMARK    1  A    between atoms: C_1  and  C_2
REMARK    2  A    between atoms: C_2  and  O_4
REMARK    3  A    between atoms: C_2  and  C_5
REMARK                            x       y       z     vdW  Elec       q    Type
REMARK                         _______ _______ _______ _____ _____    ______ ____
ROOT
ATOM      1  C   UNL     1      10.239  -0.477  23.613  0.00  0.00    +0.045 C 
ATOM      2  C   UNL     1       9.531  -0.627  22.281  0.00  0.00    +0.174 C 
ENDROOT
BRANCH   2   3
ATOM      3  C   UNL     1       9.432   0.721  21.583  0.00  0.00    +0.254 C 
ATOM      4  O   UNL     1      10.136   1.683  21.886  0.00  0.00    -0.298 OA
ENDBRANCH   2   3
BRANCH   2   5
ATOM      5  O   UNL     1      10.239  -1.573  21.491  0.00  0.00    -0.385 OA
ATOM      6  H   UNL     1       9.594  -2.267  21.247  0.00  0.00    +0.210 HD
ENDBRANCH   2   5
TORSDOF 2
ENDMDL
MODEL 9
REMARK VINA RESULT:      -2.5      6.245      7.038
REMARK  Name = 
REMARK  3 active torsions:
REMARK  status: ('A' for Active; 'I' for Inactive)
REMARK    1  A    between atoms: C_1  and  C_2
REMARK    2  A    between atoms: C_2  and  O_4
REMARK    3  A    between atoms: C_2  and  C_5
REMARK                            x       y       z     vdW  Elec       q    Type
REMARK                         _______ _______ _______ _____ _____    ______ ____
ROOT
ATOM      1  C   UNL     1       9.901  -2.460  23.793  0.00  0.00    +0.045 C 
ATOM      2  C   UNL     1       9.765  -1.254  22.884  0.00  0.00    +0.174 C 
ENDROOT
BRANCH   2   3
ATOM      3  C   UNL     1      10.481  -0.056  23.489  0.00  0.00    +0.254 C 
ATOM      4  O   UNL     1      10.632   0.090  24.700  0.00  0.00    -0.298 OA
ENDBRANCH   2   3
BRANCH   2   5
ATOM      5  O   UNL     1      10.289  -1.585  21.604  0.00  0.00    -0.385 OA
ATOM      6  H   UNL     1      10.290  -2.562  21.551  0.00  0.00    +0.210 HD
ENDBRANCH   2   5
TORSDOF 2
ENDMDL
