MODEL 1
REMARK VINA RESULT:      -5.4      0.000      0.000
REMARK  Name = 
REMARK  2 active torsions:
REMARK  status: ('A' for Active; 'I' for Inactive)
REMARK    1  A    between atoms: N_1  and  C_2
REMARK    2  A    between atoms: C_12  and  O_13
REMARK                            x       y       z     vdW  Elec       q    Type
REMARK                         _______ _______ _______ _____ _____    ______ ____
ROOT
ATOM      1  C   UNL     1       9.843   0.903  22.208  0.00  0.00    +0.025 A 
ATOM      2  C   UNL     1       9.500  -0.123  21.331  0.00  0.00    +0.025 A 
ATOM      3  C   UNL     1       9.106  -1.377  21.817  0.00  0.00    +0.030 A 
ATOM      4  C   UNL     1       8.998  -1.634  23.177  0.00  0.00    +0.080 A 
ATOM      5  N   UNL     1       8.618  -2.848  23.603  0.00  0.00    -0.214 NA
ATOM      6  C   UNL     1       8.512  -3.042  24.920  0.00  0.00    +0.216 A 
ATOM      7  N   UNL     1       8.718  -2.114  25.854  0.00  0.00    -0.179 NA
ATOM      8  C   UNL     1       9.100  -0.920  25.389  0.00  0.00    +0.225 A 
ATOM      9  N   UNL     1       8.114  -4.293  25.343  0.00  0.00    -0.327 N 
ATOM     10  H   UNL     1       7.649  -4.228  26.237  0.00  0.00    +0.145 HD
ATOM     11  H   UNL     1       7.623  -4.764  24.597  0.00  0.00    +0.145 HD
ATOM     12  C   UNL     1       9.275  -0.589  24.054  0.00  0.00    +0.064 A 
ATOM     13  C   UNL     1       9.680   0.679  23.573  0.00  0.00    +0.038 A 
ENDROOT
BRANCH   1  14
ATOM     14  N   UNL     1      10.111   2.186  21.727  0.00  0.00    -0.358 N 
ATOM     15  H   UNL     1      11.092   2.365  21.539  0.00  0.00    +0.142 HD
ATOM     16  H   UNL     1       9.685   2.930  22.274  0.00  0.00    +0.142 HD
ENDBRANCH   1  14
BRANCH   8  17
ATOM     17  O   UNL     1       9.307  -0.005  26.375  0.00  0.00    -0.492 OA
ATOM     18  H   UNL     1       8.427   0.002  26.793  0.00  0.00    +0.294 HD
ENDBRANCH   8  17
TORSDOF 2
ENDMDL
MODEL 2
REMARK VINA RESULT:      -5.3      1.223      4.192
REMARK  Name = 
REMARK  2 active torsions:
REMARK  status: ('A' for Active; 'I' for Inactive)
REMARK    1  A    between atoms: N_1  and  C_2
REMARK    2  A    between atoms: C_12  and  O_13
REMARK                            x       y       z     vdW  Elec       q    Type
REMARK                         _______ _______ _______ _____ _____    ______ ____
ROOT
ATOM      1  C   UNL     1       8.430  -3.148  24.352  0.00  0.00    +0.025 A 
ATOM      2  C   UNL     1       8.160  -3.183  22.986  0.00  0.00    +0.025 A 
ATOM      3  C   UNL     1       8.443  -2.077  22.172  0.00  0.00    +0.030 A 
ATOM      4  C   UNL     1       9.041  -0.931  22.678  0.00  0.00    +0.080 A 
ATOM      5  N   UNL     1       9.296   0.107  21.867  0.00  0.00    -0.214 NA
ATOM      6  C   UNL     1       9.888   1.182  22.396  0.00  0.00    +0.216 A 
ATOM      7  N   UNL     1      10.283   1.297  23.664  0.00  0.00    -0.179 NA
ATOM      8  C   UNL     1      10.005   0.243  24.439  0.00  0.00    +0.225 A 
ATOM      9  N   UNL     1      10.150   2.238  21.550  0.00  0.00    -0.327 N 
ATOM     10  H   UNL     1      10.942   2.766  21.885  0.00  0.00    +0.145 HD
ATOM     11  H   UNL     1      10.182   1.909  20.596  0.00  0.00    +0.145 HD
ATOM     12  C   UNL     1       9.374  -0.921  24.030  0.00  0.00    +0.064 A 
ATOM     13  C   UNL     1       9.085  -2.029  24.861  0.00  0.00    +0.038 A 
ENDROOT
BRANCH   1  14
ATOM     14  N   UNL     1       8.266  -4.292  25.136  0.00  0.00    -0.358 N 
ATOM     15  H   UNL     1       7.496  -4.887  24.850  0.00  0.00    +0.142 HD
ATOM     16  H   UNL     1       8.258  -4.111  26.136  0.00  0.00    +0.142 HD
ENDBRANCH   1  14
BRANCH   8  17
ATOM     17  O   UNL     1      10.418   0.406  25.726  0.00  0.00    -0.492 OA
ATOM     18  H   UNL     1      10.259   1.360  25.840  0.00  0.00    +0.294 HD
ENDBRANCH   8  17
TORSDOF 2
ENDMDL
MODEL 3
REMARK VINA RESULT:      -5.2      4.366      5.559
REMARK  Name = 
REMARK  2 active torsions:
REMARK  status: ('A' for Active; 'I' for Inactive)
REMARK    1  A    between atoms: N_1  and  C_2
REMARK    2  A    between atoms: C_12  and  O_13
REMARK                            x       y       z     vdW  Elec       q    Type
REMARK                         _______ _______ _______ _____ _____    ______ ____
ROOT
ATOM      1  C   UNL     1       7.065  -4.324  23.341  0.00  0.00    +0.025 A 
ATOM      2  C   UNL     1       5.792  -4.876  23.225  0.00  0.00    +0.025 A 
ATOM      3  C   UNL     1       5.235  -5.617  24.276  0.00  0.00    +0.030 A 
ATOM      4  C   UNL     1       5.902  -5.791  25.482  0.00  0.00    +0.080 A 
ATOM      5  N   UNL     1       5.336  -6.506  26.465  0.00  0.00    -0.214 NA
ATOM      6  C   UNL     1       6.009  -6.632  27.612  0.00  0.00    +0.216 A 
ATOM      7  N   UNL     1       7.189  -6.071  27.878  0.00  0.00    -0.179 NA
ATOM      8  C   UNL     1       7.720  -5.371  26.871  0.00  0.00    +0.225 A 
ATOM      9  N   UNL     1       5.412  -7.365  28.616  0.00  0.00    -0.327 N 
ATOM     10  H   UNL     1       5.736  -7.050  29.519  0.00  0.00    +0.145 HD
ATOM     11  H   UNL     1       4.414  -7.398  28.466  0.00  0.00    +0.145 HD
ATOM     12  C   UNL     1       7.146  -5.182  25.623  0.00  0.00    +0.064 A 
ATOM     13  C   UNL     1       7.719  -4.438  24.565  0.00  0.00    +0.038 A 
ENDROOT
BRANCH   1  14
ATOM     14  N   UNL     1       7.565  -3.481  22.346  0.00  0.00    -0.358 N 
ATOM     15  H   UNL     1       8.578  -3.415  22.325  0.00  0.00    +0.142 HD
ATOM     16  H   UNL     1       7.122  -2.567  22.316  0.00  0.00    +0.142 HD
ENDBRANCH   1  14
BRANCH   8  17
ATOM     17  O   UNL     1       8.926  -4.822  27.183  0.00  0.00    -0.492 OA
ATOM     18  H   UNL     1       9.482  -5.621  27.197  0.00  0.00    +0.294 HD
ENDBRANCH   8  17
TORSDOF 2
ENDMDL
MODEL 4
REMARK VINA RESULT:      -5.2      1.850      2.646
REMARK  Name = 
REMARK  2 active torsions:
REMARK  status: ('A' for Active; 'I' for Inactive)
REMARK    1  A    between atoms: N_1  and  C_2
REMARK    2  A    between atoms: C_12  and  O_13
REMARK                            x       y       z     vdW  Elec       q    Type
REMARK                         _______ _______ _______ _____ _____    ______ ____
ROOT
ATOM      1  C   UNL     1       9.881   2.122  23.314  0.00  0.00    +0.025 A 
ATOM      2  C   UNL     1       9.298   2.122  24.579  0.00  0.00    +0.025 A 
ATOM      3  C   UNL     1       8.942   0.918  25.203  0.00  0.00    +0.030 A 
ATOM      4  C   UNL     1       9.196  -0.314  24.615  0.00  0.00    +0.080 A 
ATOM      5  N   UNL     1       8.841  -1.444  25.243  0.00  0.00    -0.214 NA
ATOM      6  C   UNL     1       9.121  -2.606  24.645  0.00  0.00    +0.216 A 
ATOM      7  N   UNL     1       9.763  -2.738  23.483  0.00  0.00    -0.179 NA
ATOM      8  C   UNL     1      10.094  -1.588  22.888  0.00  0.00    +0.225 A 
ATOM      9  N   UNL     1       8.757  -3.760  25.305  0.00  0.00    -0.327 N 
ATOM     10  H   UNL     1       9.363  -4.521  25.039  0.00  0.00    +0.145 HD
ATOM     11  H   UNL     1       8.656  -3.569  26.292  0.00  0.00    +0.145 HD
ATOM     12  C   UNL     1       9.842  -0.317  23.381  0.00  0.00    +0.064 A 
ATOM     13  C   UNL     1      10.197   0.893  22.740  0.00  0.00    +0.038 A 
ENDROOT
BRANCH   1  14
ATOM     14  N   UNL     1      10.350   3.310  22.751  0.00  0.00    -0.358 N 
ATOM     15  H   UNL     1      11.341   3.305  22.531  0.00  0.00    +0.142 HD
ATOM     16  H   UNL     1      10.076   4.146  23.259  0.00  0.00    +0.142 HD
ENDBRANCH   1  14
BRANCH   8  17
ATOM     17  O   UNL     1      10.739  -1.769  21.703  0.00  0.00    -0.492 OA
ATOM     18  H   UNL     1      11.642  -1.507  21.954  0.00  0.00    +0.294 HD
ENDBRANCH   8  17
TORSDOF 2
ENDMDL
MODEL 5
REMARK VINA RESULT:      -5.1      3.043      5.733
REMARK  Name = 
REMARK  2 active torsions:
REMARK  status: ('A' for Active; 'I' for Inactive)
REMARK    1  A    between atoms: N_1  and  C_2
REMARK    2  A    between atoms: C_12  and  O_13
REMARK                            x       y       z     vdW  Elec       q    Type
REMARK                         _______ _______ _______ _____ _____    ______ ____
ROOT
ATOM      1  C   UNL     1       6.003  -5.664  26.136  0.00  0.00    +0.025 A 
ATOM      2  C   UNL     1       5.273  -4.783  25.342  0.00  0.00    +0.025 A 
ATOM      3  C   UNL     1       5.923  -3.823  24.554  0.00  0.00    +0.030 A 
ATOM      4  C   UNL     1       7.307  -3.742  24.495  0.00  0.00    +0.080 A 
ATOM      5  N   UNL     1       7.893  -2.810  23.729  0.00  0.00    -0.214 NA
ATOM      6  C   UNL     1       9.229  -2.781  23.692  0.00  0.00    +0.216 A 
ATOM      7  N   UNL     1      10.035  -3.631  24.329  0.00  0.00    -0.179 NA
ATOM      8  C   UNL     1       9.412  -4.540  25.085  0.00  0.00    +0.225 A 
ATOM      9  N   UNL     1       9.817  -1.822  22.895  0.00  0.00    -0.327 N 
ATOM     10  H   UNL     1      10.724  -2.135  22.583  0.00  0.00    +0.145 HD
ATOM     11  H   UNL     1       9.162  -1.518  22.189  0.00  0.00    +0.145 HD
ATOM     12  C   UNL     1       8.039  -4.666  25.235  0.00  0.00    +0.064 A 
ATOM     13  C   UNL     1       7.392  -5.634  26.040  0.00  0.00    +0.038 A 
ENDROOT
BRANCH   1  14
ATOM     14  N   UNL     1       5.361  -6.699  26.820  0.00  0.00    -0.358 N 
ATOM     15  H   UNL     1       5.165  -6.496  27.794  0.00  0.00    +0.142 HD
ATOM     16  H   UNL     1       5.800  -7.608  26.700  0.00  0.00    +0.142 HD
ENDBRANCH   1  14
BRANCH   8  17
ATOM     17  O   UNL     1      10.272  -5.381  25.722  0.00  0.00    -0.492 OA
ATOM     18  H   UNL     1      10.722  -4.753  26.315  0.00  0.00    +0.294 HD
ENDBRANCH   8  17
TORSDOF 2
ENDMDL
MODEL 6
REMARK VINA RESULT:      -5.1      2.685      5.326
REMARK  Name = 
REMARK  2 active torsions:
REMARK  status: ('A' for Active; 'I' for Inactive)
REMARK    1  A    between atoms: N_1  and  C_2
REMARK    2  A    between atoms: C_12  and  O_13
REMARK                            x       y       z     vdW  Elec       q    Type
REMARK                         _______ _______ _______ _____ _____    ______ ____
ROOT
ATOM      1  C   UNL     1       7.190  -5.237  25.619  0.00  0.00    +0.025 A 
ATOM      2  C   UNL     1       8.566  -5.255  25.834  0.00  0.00    +0.025 A 
ATOM      3  C   UNL     1       9.418  -4.435  25.081  0.00  0.00    +0.030 A 
ATOM      4  C   UNL     1       8.929  -3.545  24.135  0.00  0.00    +0.080 A 
ATOM      5  N   UNL     1       9.776  -2.776  23.435  0.00  0.00    -0.214 NA
ATOM      6  C   UNL     1       9.257  -1.924  22.546  0.00  0.00    +0.216 A 
ATOM      7  N   UNL     1       7.955  -1.745  22.321  0.00  0.00    -0.179 NA
ATOM      8  C   UNL     1       7.145  -2.534  23.035  0.00  0.00    +0.225 A 
ATOM      9  N   UNL     1      10.139  -1.135  21.839  0.00  0.00    -0.327 N 
ATOM     10  H   UNL     1       9.692  -0.274  21.559  0.00  0.00    +0.145 HD
ATOM     11  H   UNL     1      11.010  -1.063  22.344  0.00  0.00    +0.145 HD
ATOM     12  C   UNL     1       7.548  -3.477  23.968  0.00  0.00    +0.064 A 
ATOM     13  C   UNL     1       6.681  -4.307  24.717  0.00  0.00    +0.038 A 
ENDROOT
BRANCH   1  14
ATOM     14  N   UNL     1       6.334  -5.959  26.454  0.00  0.00    -0.358 N 
ATOM     15  H   UNL     1       5.378  -5.617  26.465  0.00  0.00    +0.142 HD
ATOM     16  H   UNL     1       6.698  -6.108  27.391  0.00  0.00    +0.142 HD
ENDBRANCH   1  14
BRANCH   8  17
ATOM     17  O   UNL     1       5.827  -2.324  22.768  0.00  0.00    -0.492 OA
ATOM     18  H   UNL     1       5.429  -3.050  23.280  0.00  0.00    +0.294 HD
ENDBRANCH   8  17
TORSDOF 2
ENDMDL
MODEL 7
REMARK VINA RESULT:      -5.1      2.884      3.800
REMARK  Name = 
REMARK  2 active torsions:
REMARK  status: ('A' for Active; 'I' for Inactive)
REMARK    1  A    between atoms: N_1  and  C_2
REMARK    2  A    between atoms: C_12  and  O_13
REMARK                            x       y       z     vdW  Elec       q    Type
REMARK                         _______ _______ _______ _____ _____    ______ ____
ROOT
ATOM      1  C   UNL     1       9.133  -1.906  22.394  0.00  0.00    +0.025 A 
ATOM      2  C   UNL     1       9.942  -2.325  23.447  0.00  0.00    +0.025 A 
ATOM      3  C   UNL     1       9.463  -3.237  24.398  0.00  0.00    +0.030 A 
ATOM      4  C   UNL     1       8.194  -3.790  24.306  0.00  0.00    +0.080 A 
ATOM      5  N   UNL     1       7.771  -4.660  25.236  0.00  0.00    -0.214 NA
ATOM      6  C   UNL     1       6.547  -5.178  25.096  0.00  0.00    +0.216 A 
ATOM      7  N   UNL     1       5.719  -4.932  24.081  0.00  0.00    -0.179 NA
ATOM      8  C   UNL     1       6.175  -4.057  23.180  0.00  0.00    +0.225 A 
ATOM      9  N   UNL     1       6.129  -6.076  26.056  0.00  0.00    -0.327 N 
ATOM     10  H   UNL     1       5.452  -6.715  25.665  0.00  0.00    +0.145 HD
ATOM     11  H   UNL     1       6.932  -6.475  26.520  0.00  0.00    +0.145 HD
ATOM     12  C   UNL     1       7.409  -3.425  23.216  0.00  0.00    +0.064 A 
ATOM     13  C   UNL     1       7.881  -2.500  22.255  0.00  0.00    +0.038 A 
ENDROOT
BRANCH   1  14
ATOM     14  N   UNL     1       9.652  -1.100  21.379  0.00  0.00    -0.358 N 
ATOM     15  H   UNL     1       8.981  -0.457  20.972  0.00  0.00    +0.142 HD
ATOM     16  H   UNL     1      10.171  -1.610  20.670  0.00  0.00    +0.142 HD
ENDBRANCH   1  14
BRANCH   8  17
ATOM     17  O   UNL     1       5.295  -3.828  22.167  0.00  0.00    -0.492 OA
ATOM     18  H   UNL     1       5.914  -3.645  21.437  0.00  0.00    +0.294 HD
ENDBRANCH   8  17
TORSDOF 2
ENDMDL
MODEL 8
REMARK VINA RESULT:      -5.1      5.249      6.274
REMARK  Name = 
REMARK  2 active torsions:
REMARK  status: ('A' for Active; 'I' for Inactive)
REMARK    1  A    between atoms: N_1  and  C_2
REMARK    2  A    between atoms: C_12  and  O_13
REMARK                            x       y       z     vdW  Elec       q    Type
REMARK                         _______ _______ _______ _____ _____    ______ ____
ROOT
ATOM      1  C   UNL     1       8.815  -5.220  25.386  0.00  0.00    +0.025 A 
ATOM      2  C   UNL     1       7.907  -5.270  26.441  0.00  0.00    +0.025 A 
ATOM      3  C   UNL     1       6.527  -5.236  26.199  0.00  0.00    +0.030 A 
ATOM      4  C   UNL     1       6.011  -5.199  24.911  0.00  0.00    +0.080 A 
ATOM      5  N   UNL     1       4.684  -5.167  24.720  0.00  0.00    -0.214 NA
ATOM      6  C   UNL     1       4.234  -5.149  23.462  0.00  0.00    +0.216 A 
ATOM      7  N   UNL     1       4.999  -5.197  22.370  0.00  0.00    -0.179 NA
ATOM      8  C   UNL     1       6.315  -5.223  22.604  0.00  0.00    +0.225 A 
ATOM      9  N   UNL     1       2.868  -5.123  23.280  0.00  0.00    -0.327 N 
ATOM     10  H   UNL     1       2.624  -5.545  22.396  0.00  0.00    +0.145 HD
ATOM     11  H   UNL     1       2.409  -5.478  24.107  0.00  0.00    +0.145 HD
ATOM     12  C   UNL     1       6.917  -5.218  23.854  0.00  0.00    +0.064 A 
ATOM     13  C   UNL     1       8.312  -5.245  24.088  0.00  0.00    +0.038 A 
ENDROOT
BRANCH   1  14
ATOM     14  N   UNL     1      10.182  -5.383  25.620  0.00  0.00    -0.358 N 
ATOM     15  H   UNL     1      10.501  -5.009  26.508  0.00  0.00    +0.142 HD
ATOM     16  H   UNL     1      10.773  -5.087  24.847  0.00  0.00    +0.142 HD
ENDBRANCH   1  14
BRANCH   8  17
ATOM     17  O   UNL     1       7.057  -5.264  21.464  0.00  0.00    -0.492 OA
ATOM     18  H   UNL     1       6.495  -4.733  20.872  0.00  0.00    +0.294 HD
ENDBRANCH   8  17
TORSDOF 2
ENDMDL
MODEL 9
REMARK VINA RESULT:      -5.1      2.618      3.459
REMARK  Name = 
REMARK  2 active torsions:
REMARK  status: ('A' for Active; 'I' for Inactive)
REMARK    1  A    between atoms: N_1  and  C_2
REMARK    2  A    between atoms: C_12  and  O_13
REMARK                            x       y       z     vdW  Elec       q    Type
REMARK                         _______ _______ _______ _____ _____    ______ ____
ROOT
ATOM      1  C   UNL     1       9.356  -1.603  23.510  0.00  0.00    +0.025 A 
ATOM      2  C   UNL     1       8.042  -1.224  23.770  0.00  0.00    +0.025 A 
ATOM      3  C   UNL     1       7.168  -2.088  24.444  0.00  0.00    +0.030 A 
ATOM      4  C   UNL     1       7.583  -3.325  24.918  0.00  0.00    +0.080 A 
ATOM      5  N   UNL     1       6.718  -4.124  25.559  0.00  0.00    -0.214 NA
ATOM      6  C   UNL     1       7.168  -5.298  26.011  0.00  0.00    +0.216 A 
ATOM      7  N   UNL     1       8.425  -5.730  25.911  0.00  0.00    -0.179 NA
ATOM      8  C   UNL     1       9.254  -4.907  25.261  0.00  0.00    +0.225 A 
ATOM      9  N   UNL     1       6.268  -6.106  26.674  0.00  0.00    -0.327 N 
ATOM     10  H   UNL     1       6.751  -6.702  27.329  0.00  0.00    +0.145 HD
ATOM     11  H   UNL     1       5.506  -5.546  27.028  0.00  0.00    +0.145 HD
ATOM     12  C   UNL     1       8.916  -3.676  24.719  0.00  0.00    +0.064 A 
ATOM     13  C   UNL     1       9.803  -2.814  24.033  0.00  0.00    +0.038 A 
ENDROOT
BRANCH   1  14
ATOM     14  N   UNL     1      10.259  -0.695  22.954  0.00  0.00    -0.358 N 
ATOM     15  H   UNL     1      10.315  -0.729  21.941  0.00  0.00    +0.142 HD
ATOM     16  H   UNL     1      11.178  -0.706  23.388  0.00  0.00    +0.142 HD
ENDBRANCH   1  14
BRANCH   8  17
ATOM     17  O   UNL     1      10.524  -5.390  25.175  0.00  0.00    -0.492 OA
ATOM     18  H   UNL     1      10.986  -4.604  24.833  0.00  0.00    +0.294 HD
ENDBRANCH   8  17
TORSDOF 2
ENDMDL
