MODEL 1
REMARK VINA RESULT:      -7.5      0.000      0.000
REMARK  Name = 
REMARK  19 active torsions:
REMARK  status: ('A' for Active; 'I' for Inactive)
REMARK    1  A    between atoms: C_1  and  C_2
REMARK    2  A    between atoms: C_2  and  C_3
REMARK    3  A    between atoms: C_2  and  C_4
REMARK    4  A    between atoms: C_4  and  C_5
REMARK    5  A    between atoms: C_5  and  C_7
REMARK    6  A    between atoms: C_5  and  N_33
REMARK    7  A    between atoms: C_7  and  C_8
REMARK    8  A    between atoms: C_8  and  O_10
REMARK    9  A    between atoms: C_8  and  C_11
REMARK   10  A    between atoms: C_11  and  C_13
REMARK   11  A    between atoms: C_11  and  N_20
REMARK   12  A    between atoms: C_13  and  C_14
REMARK   13  A    between atoms: C_21  and  C_23
REMARK   14  A    between atoms: C_23  and  O_24
REMARK   15  A    between atoms: O_24  and  C_25
REMARK   16  A    between atoms: C_26  and  C_27
REMARK   17  A    between atoms: C_31  and  C_32
REMARK   18  A    between atoms: C_34  and  C_36
REMARK   19  A    between atoms: C_40  and  N_41
REMARK                            x       y       z     vdW  Elec       q    Type
REMARK                         _______ _______ _______ _____ _____    ______ ____
ROOT
ATOM      1  C   UNL     1       9.594  -0.542  22.227  0.00  0.00    +0.137 C 
ENDROOT
BRANCH   1   2
ATOM      2  O   UNL     1      10.101  -1.529  21.296  0.00  0.00    -0.390 OA
ATOM      3  H   UNL     1      10.258  -2.315  21.862  0.00  0.00    +0.210 HD
ENDBRANCH   1   2
BRANCH   1   4
ATOM      4  C   UNL     1       8.967   0.583  21.382  0.00  0.00    +0.055 C 
BRANCH   4   5
ATOM      5  C   UNL     1       8.273   1.651  22.291  0.00  0.00    +0.076 C 
BRANCH   5   6
ATOM      6  N   UNL     1       9.187   2.752  22.597  0.00  0.00    -0.308 N 
ATOM      7  H   UNL     1       9.544   3.265  21.805  0.00  0.00    +0.149 HD
ATOM      8  C   UNL     1       9.460   3.188  23.876  0.00  0.00    +0.244 C 
ATOM      9  O   UNL     1       8.974   2.676  24.879  0.00  0.00    -0.270 OA
BRANCH   8  10
ATOM     10  C   UNL     1      10.378   4.362  23.995  0.00  0.00    +0.038 A 
ATOM     11  C   UNL     1      11.667   4.256  23.444  0.00  0.00    +0.035 A 
ATOM     12  C   UNL     1      12.556   5.329  23.504  0.00  0.00    +0.025 A 
ATOM     13  C   UNL     1      12.186   6.471  24.219  0.00  0.00    +0.023 A 
ATOM     14  C   UNL     1      10.905   6.594  24.761  0.00  0.00    +0.003 A 
ATOM     15  C   UNL     1       9.995   5.545  24.633  0.00  0.00    +0.013 A 
BRANCH  12  16
ATOM     16  N   UNL     1      13.877   5.179  23.059  0.00  0.00    -0.358 N 
ATOM     17  H   UNL     1      14.482   5.948  23.331  0.00  0.00    +0.142 HD
ATOM     18  H   UNL     1      14.282   4.275  23.285  0.00  0.00    +0.142 HD
ENDBRANCH  12  16
ENDBRANCH   8  10
ENDBRANCH   5   6
BRANCH   5  19
ATOM     19  C   UNL     1       7.018   2.292  21.669  0.00  0.00    +0.025 C 
BRANCH  19  21
ATOM     20  C   UNL     1       5.837   1.817  23.890  0.00  0.00    +0.007 C 
ATOM     21  C   UNL     1       5.847   2.633  22.598  0.00  0.00    -0.015 C 
ATOM     22  C   UNL     1       5.905   4.130  22.939  0.00  0.00    +0.007 C 
ENDBRANCH  19  21
ENDBRANCH   5  19
ENDBRANCH   4   5
ENDBRANCH   1   4
BRANCH   1  23
ATOM     23  C   UNL     1       8.691  -1.332  23.224  0.00  0.00    +0.106 C 
BRANCH  23  24
ATOM     24  N   UNL     1       8.437  -2.735  22.815  0.00  0.00    -0.307 N 
ATOM     25  H   UNL     1       9.231  -3.364  22.819  0.00  0.00    +0.149 HD
ATOM     26  C   UNL     1       7.216  -3.252  22.438  0.00  0.00    +0.251 C 
ATOM     27  O   UNL     1       6.178  -2.598  22.373  0.00  0.00    -0.272 OA
BRANCH  26  28
ATOM     28  C   UNL     1       7.195  -4.744  22.196  0.00  0.00    +0.324 C 
BRANCH  28  29
ATOM     29  O   UNL     1       7.748  -5.337  23.340  0.00  0.00    -0.482 OA
BRANCH  29  30
ATOM     30  C   UNL     1       7.128  -5.235  24.550  0.00  0.00    +0.127 A 
ATOM     31  C   UNL     1       8.068  -4.971  25.583  0.00  0.00    -0.009 A 
ATOM     32  C   UNL     1       9.550  -4.956  25.289  0.00  0.00    +0.047 C 
ATOM     33  C   UNL     1       7.634  -4.732  26.890  0.00  0.00    +0.007 A 
ATOM     34  C   UNL     1       6.279  -4.743  27.183  0.00  0.00    +0.001 A 
ATOM     35  C   UNL     1       5.358  -5.024  26.179  0.00  0.00    +0.007 A 
ATOM     36  C   UNL     1       5.754  -5.301  24.851  0.00  0.00    -0.009 A 
ATOM     37  C   UNL     1       4.603  -5.548  23.911  0.00  0.00    +0.047 C 
ENDBRANCH  29  30
ENDBRANCH  28  29
ENDBRANCH  26  28
ENDBRANCH  23  24
BRANCH  23  38
ATOM     38  C   UNL     1       8.968  -1.236  24.741  0.00  0.00    +0.060 C 
BRANCH  38  39
ATOM     39  C   UNL     1       7.865  -0.990  25.746  0.00  0.00    -0.046 A 
ATOM     40  C   UNL     1       6.569  -1.494  25.508  0.00  0.00    +0.004 A 
ATOM     41  C   UNL     1       5.484  -1.107  26.299  0.00  0.00    +0.000 A 
ATOM     42  C   UNL     1       5.674  -0.215  27.348  0.00  0.00    +0.000 A 
ATOM     43  C   UNL     1       6.952   0.262  27.623  0.00  0.00    +0.000 A 
ATOM     44  C   UNL     1       8.039  -0.125  26.831  0.00  0.00    +0.004 A 
ENDBRANCH  38  39
ENDBRANCH  23  38
ENDBRANCH   1  23
TORSDOF 15
ENDMDL
MODEL 2
REMARK VINA RESULT:      -7.0      1.476      2.476
REMARK  Name = 
REMARK  19 active torsions:
REMARK  status: ('A' for Active; 'I' for Inactive)
REMARK    1  A    between atoms: C_1  and  C_2
REMARK    2  A    between atoms: C_2  and  C_3
REMARK    3  A    between atoms: C_2  and  C_4
REMARK    4  A    between atoms: C_4  and  C_5
REMARK    5  A    between atoms: C_5  and  C_7
REMARK    6  A    between atoms: C_5  and  N_33
REMARK    7  A    between atoms: C_7  and  C_8
REMARK    8  A    between atoms: C_8  and  O_10
REMARK    9  A    between atoms: C_8  and  C_11
REMARK   10  A    between atoms: C_11  and  C_13
REMARK   11  A    between atoms: C_11  and  N_20
REMARK   12  A    between atoms: C_13  and  C_14
REMARK   13  A    between atoms: C_21  and  C_23
REMARK   14  A    between atoms: C_23  and  O_24
REMARK   15  A    between atoms: O_24  and  C_25
REMARK   16  A    between atoms: C_26  and  C_27
REMARK   17  A    between atoms: C_31  and  C_32
REMARK   18  A    between atoms: C_34  and  C_36
REMARK   19  A    between atoms: C_40  and  N_41
REMARK                            x       y       z     vdW  Elec       q    Type
REMARK                         _______ _______ _______ _____ _____    ______ ____
ROOT
ATOM      1  C   UNL     1       9.811  -0.416  22.292  0.00  0.00    +0.137 C 
ENDROOT
BRANCH   1   2
ATOM      2  O   UNL     1      10.193  -1.482  21.388  0.00  0.00    -0.390 OA
ATOM      3  H   UNL     1      10.703  -2.093  21.961  0.00  0.00    +0.210 HD
ENDBRANCH   1   2
BRANCH   1   4
ATOM      4  C   UNL     1       9.112   0.660  21.438  0.00  0.00    +0.055 C 
BRANCH   4   5
ATOM      5  C   UNL     1       8.425   1.737  22.341  0.00  0.00    +0.076 C 
BRANCH   5   6
ATOM      6  N   UNL     1       9.354   2.820  22.664  0.00  0.00    -0.308 N 
ATOM      7  H   UNL     1       9.828   3.246  21.881  0.00  0.00    +0.149 HD
ATOM      8  C   UNL     1       9.501   3.353  23.927  0.00  0.00    +0.244 C 
ATOM      9  O   UNL     1       8.877   2.951  24.903  0.00  0.00    -0.270 OA
BRANCH   8  10
ATOM     10  C   UNL     1      10.461   4.492  24.059  0.00  0.00    +0.038 A 
ATOM     11  C   UNL     1      11.724   4.370  23.455  0.00  0.00    +0.035 A 
ATOM     12  C   UNL     1      12.649   5.412  23.526  0.00  0.00    +0.025 A 
ATOM     13  C   UNL     1      12.343   6.532  24.301  0.00  0.00    +0.023 A 
ATOM     14  C   UNL     1      11.087   6.671  24.897  0.00  0.00    +0.003 A 
ATOM     15  C   UNL     1      10.140   5.658  24.761  0.00  0.00    +0.013 A 
BRANCH  12  16
ATOM     16  N   UNL     1      13.946   5.240  23.024  0.00  0.00    -0.358 N 
ATOM     17  H   UNL     1      14.633   5.037  23.746  0.00  0.00    +0.142 HD
ATOM     18  H   UNL     1      14.000   4.585  22.250  0.00  0.00    +0.142 HD
ENDBRANCH  12  16
ENDBRANCH   8  10
ENDBRANCH   5   6
BRANCH   5  19
ATOM     19  C   UNL     1       7.191   2.404  21.705  0.00  0.00    +0.025 C 
BRANCH  19  21
ATOM     20  C   UNL     1       6.666   4.841  22.283  0.00  0.00    +0.007 C 
ATOM     21  C   UNL     1       6.368   3.368  22.565  0.00  0.00    -0.015 C 
ATOM     22  C   UNL     1       4.875   3.094  22.326  0.00  0.00    +0.007 C 
ENDBRANCH  19  21
ENDBRANCH   5  19
ENDBRANCH   4   5
ENDBRANCH   1   4
BRANCH   1  23
ATOM     23  C   UNL     1       9.012  -1.107  23.440  0.00  0.00    +0.106 C 
BRANCH  23  24
ATOM     24  N   UNL     1       7.849  -1.896  22.966  0.00  0.00    -0.307 N 
ATOM     25  H   UNL     1       8.050  -2.754  22.467  0.00  0.00    +0.149 HD
ATOM     26  C   UNL     1       6.525  -1.562  23.153  0.00  0.00    +0.251 C 
ATOM     27  O   UNL     1       6.140  -0.545  23.725  0.00  0.00    -0.272 OA
BRANCH  26  28
ATOM     28  C   UNL     1       5.527  -2.600  22.691  0.00  0.00    +0.324 C 
BRANCH  28  29
ATOM     29  O   UNL     1       5.991  -3.835  23.170  0.00  0.00    -0.482 OA
BRANCH  29  30
ATOM     30  C   UNL     1       5.194  -4.632  23.936  0.00  0.00    +0.127 A 
ATOM     31  C   UNL     1       5.338  -5.997  23.571  0.00  0.00    -0.009 A 
ATOM     32  C   UNL     1       6.191  -6.392  22.388  0.00  0.00    +0.047 C 
ATOM     33  C   UNL     1       4.683  -6.997  24.296  0.00  0.00    +0.007 A 
ATOM     34  C   UNL     1       3.893  -6.658  25.384  0.00  0.00    +0.001 A 
ATOM     35  C   UNL     1       3.732  -5.320  25.730  0.00  0.00    +0.007 A 
ATOM     36  C   UNL     1       4.351  -4.276  25.007  0.00  0.00    -0.009 A 
ATOM     37  C   UNL     1       4.074  -2.903  25.561  0.00  0.00    +0.047 C 
ENDBRANCH  29  30
ENDBRANCH  28  29
ENDBRANCH  26  28
ENDBRANCH  23  24
BRANCH  23  38
ATOM     38  C   UNL     1       9.778  -1.858  24.553  0.00  0.00    +0.060 C 
BRANCH  38  39
ATOM     39  C   UNL     1       9.171  -3.027  25.297  0.00  0.00    -0.046 A 
ATOM     40  C   UNL     1       9.445  -4.347  24.879  0.00  0.00    +0.004 A 
ATOM     41  C   UNL     1       8.738  -5.434  25.400  0.00  0.00    +0.000 A 
ATOM     42  C   UNL     1       7.750  -5.224  26.355  0.00  0.00    +0.000 A 
ATOM     43  C   UNL     1       7.493  -3.934  26.809  0.00  0.00    +0.000 A 
ATOM     44  C   UNL     1       8.200  -2.844  26.286  0.00  0.00    +0.004 A 
ENDBRANCH  38  39
ENDBRANCH  23  38
ENDBRANCH   1  23
TORSDOF 15
ENDMDL
MODEL 3
REMARK VINA RESULT:      -7.0      2.960      8.265
REMARK  Name = 
REMARK  19 active torsions:
REMARK  status: ('A' for Active; 'I' for Inactive)
REMARK    1  A    between atoms: C_1  and  C_2
REMARK    2  A    between atoms: C_2  and  C_3
REMARK    3  A    between atoms: C_2  and  C_4
REMARK    4  A    between atoms: C_4  and  C_5
REMARK    5  A    between atoms: C_5  and  C_7
REMARK    6  A    between atoms: C_5  and  N_33
REMARK    7  A    between atoms: C_7  and  C_8
REMARK    8  A    between atoms: C_8  and  O_10
REMARK    9  A    between atoms: C_8  and  C_11
REMARK   10  A    between atoms: C_11  and  C_13
REMARK   11  A    between atoms: C_11  and  N_20
REMARK   12  A    between atoms: C_13  and  C_14
REMARK   13  A    between atoms: C_21  and  C_23
REMARK   14  A    between atoms: C_23  and  O_24
REMARK   15  A    between atoms: O_24  and  C_25
REMARK   16  A    between atoms: C_26  and  C_27
REMARK   17  A    between atoms: C_31  and  C_32
REMARK   18  A    between atoms: C_34  and  C_36
REMARK   19  A    between atoms: C_40  and  N_41
REMARK                            x       y       z     vdW  Elec       q    Type
REMARK                         _______ _______ _______ _____ _____    ______ ____
ROOT
ATOM      1  C   UNL     1       6.722   0.282  28.176  0.00  0.00    +0.137 C 
ENDROOT
BRANCH   1   2
ATOM      2  O   UNL     1       7.573   1.244  28.847  0.00  0.00    -0.390 OA
ATOM      3  H   UNL     1       7.019   2.052  28.880  0.00  0.00    +0.210 HD
ENDBRANCH   1   2
BRANCH   1   4
ATOM      4  C   UNL     1       5.269   0.739  28.405  0.00  0.00    +0.055 C 
BRANCH   4   5
ATOM      5  C   UNL     1       4.310  -0.487  28.563  0.00  0.00    +0.076 C 
BRANCH   5   6
ATOM      6  N   UNL     1       4.845  -1.662  27.875  0.00  0.00    -0.308 N 
ATOM      7  H   UNL     1       5.675  -2.072  28.277  0.00  0.00    +0.149 HD
ATOM      8  C   UNL     1       4.211  -2.290  26.824  0.00  0.00    +0.244 C 
ATOM      9  O   UNL     1       3.145  -1.905  26.356  0.00  0.00    -0.270 OA
BRANCH   8  10
ATOM     10  C   UNL     1       4.880  -3.510  26.279  0.00  0.00    +0.038 A 
ATOM     11  C   UNL     1       5.866  -4.134  27.063  0.00  0.00    +0.035 A 
ATOM     12  C   UNL     1       6.505  -5.290  26.614  0.00  0.00    +0.025 A 
ATOM     13  C   UNL     1       6.231  -5.754  25.325  0.00  0.00    +0.023 A 
ATOM     14  C   UNL     1       5.247  -5.150  24.540  0.00  0.00    +0.003 A 
ATOM     15  C   UNL     1       4.559  -4.039  25.025  0.00  0.00    +0.013 A 
BRANCH  12  16
ATOM     16  N   UNL     1       7.567  -5.840  27.345  0.00  0.00    -0.358 N 
ATOM     17  H   UNL     1       8.318  -5.179  27.522  0.00  0.00    +0.142 HD
ATOM     18  H   UNL     1       7.274  -6.320  28.191  0.00  0.00    +0.142 HD
ENDBRANCH  12  16
ENDBRANCH   8  10
ENDBRANCH   5   6
BRANCH   5  19
ATOM     19  C   UNL     1       4.065  -0.915  30.021  0.00  0.00    +0.025 C 
BRANCH  19  21
ATOM     20  C   UNL     1       1.580  -1.066  29.425  0.00  0.00    +0.007 C 
ATOM     21  C   UNL     1       2.693  -1.494  30.383  0.00  0.00    -0.015 C 
ATOM     22  C   UNL     1       2.791  -3.027  30.401  0.00  0.00    +0.007 C 
ENDBRANCH  19  21
ENDBRANCH   5  19
ENDBRANCH   4   5
ENDBRANCH   1   4
BRANCH   1  23
ATOM     23  C   UNL     1       7.265   0.191  26.716  0.00  0.00    +0.106 C 
BRANCH  23  24
ATOM     24  N   UNL     1       7.936   1.429  26.251  0.00  0.00    -0.307 N 
ATOM     25  H   UNL     1       8.885   1.584  26.570  0.00  0.00    +0.149 HD
ATOM     26  C   UNL     1       7.379   2.379  25.421  0.00  0.00    +0.251 C 
ATOM     27  O   UNL     1       6.236   2.325  24.975  0.00  0.00    -0.272 OA
BRANCH  26  28
ATOM     28  C   UNL     1       8.316   3.483  24.986  0.00  0.00    +0.324 C 
BRANCH  28  29
ATOM     29  O   UNL     1       9.464   2.852  24.484  0.00  0.00    -0.482 OA
BRANCH  29  30
ATOM     30  C   UNL     1       9.393   2.034  23.395  0.00  0.00    +0.127 A 
ATOM     31  C   UNL     1      10.199   0.877  23.574  0.00  0.00    -0.009 A 
ATOM     32  C   UNL     1      11.081   0.734  24.793  0.00  0.00    +0.047 C 
ATOM     33  C   UNL     1      10.196  -0.143  22.618  0.00  0.00    +0.007 A 
ATOM     34  C   UNL     1       9.395  -0.032  21.491  0.00  0.00    +0.001 A 
ATOM     35  C   UNL     1       8.623   1.110  21.302  0.00  0.00    +0.007 A 
ATOM     36  C   UNL     1       8.619   2.177  22.227  0.00  0.00    -0.009 A 
ATOM     37  C   UNL     1       7.693   3.304  21.853  0.00  0.00    +0.047 C 
ENDBRANCH  29  30
ENDBRANCH  28  29
ENDBRANCH  26  28
ENDBRANCH  23  24
BRANCH  23  38
ATOM     38  C   UNL     1       8.048  -1.066  26.274  0.00  0.00    +0.060 C 
BRANCH  38  39
ATOM     39  C   UNL     1       7.731  -1.800  24.989  0.00  0.00    -0.046 A 
ATOM     40  C   UNL     1       8.516  -2.905  24.596  0.00  0.00    +0.004 A 
ATOM     41  C   UNL     1       8.390  -3.467  23.323  0.00  0.00    +0.000 A 
ATOM     42  C   UNL     1       7.473  -2.941  22.421  0.00  0.00    +0.000 A 
ATOM     43  C   UNL     1       6.662  -1.877  22.804  0.00  0.00    +0.000 A 
ATOM     44  C   UNL     1       6.788  -1.312  24.079  0.00  0.00    +0.004 A 
ENDBRANCH  38  39
ENDBRANCH  23  38
ENDBRANCH   1  23
TORSDOF 15
ENDMDL
MODEL 4
REMARK VINA RESULT:      -6.9      2.791      4.421
REMARK  Name = 
REMARK  19 active torsions:
REMARK  status: ('A' for Active; 'I' for Inactive)
REMARK    1  A    between atoms: C_1  and  C_2
REMARK    2  A    between atoms: C_2  and  C_3
REMARK    3  A    between atoms: C_2  and  C_4
REMARK    4  A    between atoms: C_4  and  C_5
REMARK    5  A    between atoms: C_5  and  C_7
REMARK    6  A    between atoms: C_5  and  N_33
REMARK    7  A    between atoms: C_7  and  C_8
REMARK    8  A    between atoms: C_8  and  O_10
REMARK    9  A    between atoms: C_8  and  C_11
REMARK   10  A    between atoms: C_11  and  C_13
REMARK   11  A    between atoms: C_11  and  N_20
REMARK   12  A    between atoms: C_13  and  C_14
REMARK   13  A    between atoms: C_21  and  C_23
REMARK   14  A    between atoms: C_23  and  O_24
REMARK   15  A    between atoms: O_24  and  C_25
REMARK   16  A    between atoms: C_26  and  C_27
REMARK   17  A    between atoms: C_31  and  C_32
REMARK   18  A    between atoms: C_34  and  C_36
REMARK   19  A    between atoms: C_40  and  N_41
REMARK                            x       y       z     vdW  Elec       q    Type
REMARK                         _______ _______ _______ _____ _____    ______ ____
ROOT
ATOM      1  C   UNL     1       5.107   0.449  27.586  0.00  0.00    +0.137 C 
ENDROOT
BRANCH   1   2
ATOM      2  O   UNL     1       6.048   1.482  27.970  0.00  0.00    -0.390 OA
ATOM      3  H   UNL     1       5.660   1.847  28.793  0.00  0.00    +0.210 HD
ENDBRANCH   1   2
BRANCH   1   4
ATOM      4  C   UNL     1       4.268   1.022  26.428  0.00  0.00    +0.055 C 
BRANCH   4   5
ATOM      5  C   UNL     1       4.888   2.353  25.888  0.00  0.00    +0.076 C 
BRANCH   5   6
ATOM      6  N   UNL     1       6.014   2.081  24.994  0.00  0.00    -0.308 N 
ATOM      7  H   UNL     1       5.793   1.591  24.139  0.00  0.00    +0.149 HD
ATOM      8  C   UNL     1       7.288   2.566  25.197  0.00  0.00    +0.244 C 
ATOM      9  O   UNL     1       7.599   3.256  26.161  0.00  0.00    -0.270 OA
BRANCH   8  10
ATOM     10  C   UNL     1       8.301   2.229  24.150  0.00  0.00    +0.038 A 
ATOM     11  C   UNL     1       7.849   1.990  22.841  0.00  0.00    +0.035 A 
ATOM     12  C   UNL     1       8.753   1.696  21.820  0.00  0.00    +0.025 A 
ATOM     13  C   UNL     1      10.102   1.532  22.141  0.00  0.00    +0.023 A 
ATOM     14  C   UNL     1      10.566   1.778  23.435  0.00  0.00    +0.003 A 
ATOM     15  C   UNL     1       9.667   2.144  24.435  0.00  0.00    +0.013 A 
BRANCH  12  16
ATOM     16  N   UNL     1       8.289   1.343  20.545  0.00  0.00    -0.358 N 
ATOM     17  H   UNL     1       7.976   0.379  20.483  0.00  0.00    +0.142 HD
ATOM     18  H   UNL     1       7.605   1.992  20.167  0.00  0.00    +0.142 HD
ENDBRANCH  12  16
ENDBRANCH   8  10
ENDBRANCH   5   6
BRANCH   5  19
ATOM     19  C   UNL     1       3.906   3.231  25.089  0.00  0.00    +0.025 C 
BRANCH  19  21
ATOM     20  C   UNL     1       2.999   3.276  22.696  0.00  0.00    +0.007 C 
ATOM     21  C   UNL     1       4.208   3.486  23.608  0.00  0.00    -0.015 C 
ATOM     22  C   UNL     1       4.724   4.925  23.449  0.00  0.00    +0.007 C 
ENDBRANCH  19  21
ENDBRANCH   5  19
ENDBRANCH   4   5
ENDBRANCH   1   4
BRANCH   1  23
ATOM     23  C   UNL     1       5.968  -0.827  27.335  0.00  0.00    +0.106 C 
BRANCH  23  24
ATOM     24  N   UNL     1       5.222  -1.932  26.684  0.00  0.00    -0.307 N 
ATOM     25  H   UNL     1       5.199  -1.936  25.672  0.00  0.00    +0.149 HD
ATOM     26  C   UNL     1       4.564  -2.950  27.341  0.00  0.00    +0.251 C 
ATOM     27  O   UNL     1       4.497  -3.057  28.563  0.00  0.00    -0.272 OA
BRANCH  26  28
ATOM     28  C   UNL     1       3.991  -4.028  26.449  0.00  0.00    +0.324 C 
BRANCH  28  29
ATOM     29  O   UNL     1       5.011  -4.975  26.270  0.00  0.00    -0.482 OA
BRANCH  29  30
ATOM     30  C   UNL     1       5.719  -5.030  25.106  0.00  0.00    +0.127 A 
ATOM     31  C   UNL     1       7.116  -4.971  25.357  0.00  0.00    -0.009 A 
ATOM     32  C   UNL     1       7.639  -4.746  26.757  0.00  0.00    +0.047 C 
ATOM     33  C   UNL     1       8.030  -5.109  24.308  0.00  0.00    +0.007 A 
ATOM     34  C   UNL     1       7.573  -5.315  23.015  0.00  0.00    +0.001 A 
ATOM     35  C   UNL     1       6.205  -5.350  22.763  0.00  0.00    +0.007 A 
ATOM     36  C   UNL     1       5.247  -5.184  23.788  0.00  0.00    -0.009 A 
ATOM     37  C   UNL     1       3.822  -5.286  23.312  0.00  0.00    +0.047 C 
ENDBRANCH  29  30
ENDBRANCH  28  29
ENDBRANCH  26  28
ENDBRANCH  23  24
BRANCH  23  38
ATOM     38  C   UNL     1       7.384  -0.683  26.732  0.00  0.00    +0.060 C 
BRANCH  38  39
ATOM     39  C   UNL     1       7.734  -1.225  25.363  0.00  0.00    -0.046 A 
ATOM     40  C   UNL     1       9.078  -1.509  25.041  0.00  0.00    +0.004 A 
ATOM     41  C   UNL     1       9.462  -1.803  23.729  0.00  0.00    +0.000 A 
ATOM     42  C   UNL     1       8.510  -1.825  22.717  0.00  0.00    +0.000 A 
ATOM     43  C   UNL     1       7.173  -1.586  23.023  0.00  0.00    +0.000 A 
ATOM     44  C   UNL     1       6.788  -1.291  24.336  0.00  0.00    +0.004 A 
ENDBRANCH  38  39
ENDBRANCH  23  38
ENDBRANCH   1  23
TORSDOF 15
ENDMDL
MODEL 5
REMARK VINA RESULT:      -6.9      2.311      7.410
REMARK  Name = 
REMARK  19 active torsions:
REMARK  status: ('A' for Active; 'I' for Inactive)
REMARK    1  A    between atoms: C_1  and  C_2
REMARK    2  A    between atoms: C_2  and  C_3
REMARK    3  A    between atoms: C_2  and  C_4
REMARK    4  A    between atoms: C_4  and  C_5
REMARK    5  A    between atoms: C_5  and  C_7
REMARK    6  A    between atoms: C_5  and  N_33
REMARK    7  A    between atoms: C_7  and  C_8
REMARK    8  A    between atoms: C_8  and  O_10
REMARK    9  A    between atoms: C_8  and  C_11
REMARK   10  A    between atoms: C_11  and  C_13
REMARK   11  A    between atoms: C_11  and  N_20
REMARK   12  A    between atoms: C_13  and  C_14
REMARK   13  A    between atoms: C_21  and  C_23
REMARK   14  A    between atoms: C_23  and  O_24
REMARK   15  A    between atoms: O_24  and  C_25
REMARK   16  A    between atoms: C_26  and  C_27
REMARK   17  A    between atoms: C_31  and  C_32
REMARK   18  A    between atoms: C_34  and  C_36
REMARK   19  A    between atoms: C_40  and  N_41
REMARK                            x       y       z     vdW  Elec       q    Type
REMARK                         _______ _______ _______ _____ _____    ______ ____
ROOT
ATOM      1  C   UNL     1       7.220   1.929  26.298  0.00  0.00    +0.137 C 
ENDROOT
BRANCH   1   2
ATOM      2  O   UNL     1       5.955   1.777  25.608  0.00  0.00    -0.390 OA
ATOM      3  H   UNL     1       6.054   2.356  24.823  0.00  0.00    +0.210 HD
ENDBRANCH   1   2
BRANCH   1   4
ATOM      4  C   UNL     1       7.186   0.968  27.502  0.00  0.00    +0.055 C 
BRANCH   4   5
ATOM      5  C   UNL     1       5.754   0.374  27.710  0.00  0.00    +0.076 C 
BRANCH   5   6
ATOM      6  N   UNL     1       5.733  -1.058  27.412  0.00  0.00    -0.308 N 
ATOM      7  H   UNL     1       6.017  -1.671  28.162  0.00  0.00    +0.149 HD
ATOM      8  C   UNL     1       5.230  -1.591  26.244  0.00  0.00    +0.244 C 
ATOM      9  O   UNL     1       4.772  -0.906  25.336  0.00  0.00    -0.270 OA
BRANCH   8  10
ATOM     10  C   UNL     1       5.242  -3.082  26.136  0.00  0.00    +0.038 A 
ATOM     11  C   UNL     1       6.065  -3.805  27.017  0.00  0.00    +0.035 A 
ATOM     12  C   UNL     1       6.095  -5.200  26.976  0.00  0.00    +0.025 A 
ATOM     13  C   UNL     1       5.383  -5.860  25.973  0.00  0.00    +0.023 A 
ATOM     14  C   UNL     1       4.553  -5.155  25.099  0.00  0.00    +0.003 A 
ATOM     15  C   UNL     1       4.470  -3.766  25.193  0.00  0.00    +0.013 A 
BRANCH  12  16
ATOM     16  N   UNL     1       7.003  -5.910  27.775  0.00  0.00    -0.358 N 
ATOM     17  H   UNL     1       7.642  -6.489  27.238  0.00  0.00    +0.142 HD
ATOM     18  H   UNL     1       7.489  -5.330  28.452  0.00  0.00    +0.142 HD
ENDBRANCH  12  16
ENDBRANCH   8  10
ENDBRANCH   5   6
BRANCH   5  19
ATOM     19  C   UNL     1       5.207   0.525  29.141  0.00  0.00    +0.025 C 
BRANCH  19  21
ATOM     20  C   UNL     1       3.082   1.456  28.058  0.00  0.00    +0.007 C 
ATOM     21  C   UNL     1       3.722   0.864  29.314  0.00  0.00    -0.015 C 
ATOM     22  C   UNL     1       2.967  -0.412  29.720  0.00  0.00    +0.007 C 
ENDBRANCH  19  21
ENDBRANCH   5  19
ENDBRANCH   4   5
ENDBRANCH   1   4
BRANCH   1  23
ATOM     23  C   UNL     1       8.317   1.734  25.206  0.00  0.00    +0.106 C 
BRANCH  23  24
ATOM     24  N   UNL     1       8.545   0.315  24.836  0.00  0.00    -0.307 N 
ATOM     25  H   UNL     1       7.726  -0.239  24.618  0.00  0.00    +0.149 HD
ATOM     26  C   UNL     1       9.773  -0.306  24.760  0.00  0.00    +0.251 C 
ATOM     27  O   UNL     1      10.843   0.242  25.013  0.00  0.00    -0.272 OA
BRANCH  26  28
ATOM     28  C   UNL     1       9.748  -1.721  24.230  0.00  0.00    +0.324 C 
BRANCH  28  29
ATOM     29  O   UNL     1       8.466  -2.222  24.503  0.00  0.00    -0.482 OA
BRANCH  29  30
ATOM     30  C   UNL     1       7.996  -3.330  23.862  0.00  0.00    +0.127 A 
ATOM     31  C   UNL     1       7.085  -2.974  22.832  0.00  0.00    -0.009 A 
ATOM     32  C   UNL     1       6.661  -1.537  22.641  0.00  0.00    +0.047 C 
ATOM     33  C   UNL     1       6.559  -3.954  21.984  0.00  0.00    +0.007 A 
ATOM     34  C   UNL     1       6.932  -5.280  22.142  0.00  0.00    +0.001 A 
ATOM     35  C   UNL     1       7.806  -5.634  23.165  0.00  0.00    +0.007 A 
ATOM     36  C   UNL     1       8.339  -4.682  24.062  0.00  0.00    -0.009 A 
ATOM     37  C   UNL     1       9.288  -5.264  25.076  0.00  0.00    +0.047 C 
ENDBRANCH  29  30
ENDBRANCH  28  29
ENDBRANCH  26  28
ENDBRANCH  23  24
BRANCH  23  38
ATOM     38  C   UNL     1       8.314   2.641  23.955  0.00  0.00    +0.060 C 
BRANCH  38  39
ATOM     39  C   UNL     1       9.392   3.674  23.709  0.00  0.00    -0.046 A 
ATOM     40  C   UNL     1      10.693   3.264  23.349  0.00  0.00    +0.004 A 
ATOM     41  C   UNL     1      11.758   4.169  23.325  0.00  0.00    +0.000 A 
ATOM     42  C   UNL     1      11.542   5.502  23.653  0.00  0.00    +0.000 A 
ATOM     43  C   UNL     1      10.258   5.934  23.973  0.00  0.00    +0.000 A 
ATOM     44  C   UNL     1       9.190   5.028  23.997  0.00  0.00    +0.004 A 
ENDBRANCH  38  39
ENDBRANCH  23  38
ENDBRANCH   1  23
TORSDOF 15
ENDMDL
MODEL 6
REMARK VINA RESULT:      -6.8      3.035      5.447
REMARK  Name = 
REMARK  19 active torsions:
REMARK  status: ('A' for Active; 'I' for Inactive)
REMARK    1  A    between atoms: C_1  and  C_2
REMARK    2  A    between atoms: C_2  and  C_3
REMARK    3  A    between atoms: C_2  and  C_4
REMARK    4  A    between atoms: C_4  and  C_5
REMARK    5  A    between atoms: C_5  and  C_7
REMARK    6  A    between atoms: C_5  and  N_33
REMARK    7  A    between atoms: C_7  and  C_8
REMARK    8  A    between atoms: C_8  and  O_10
REMARK    9  A    between atoms: C_8  and  C_11
REMARK   10  A    between atoms: C_11  and  C_13
REMARK   11  A    between atoms: C_11  and  N_20
REMARK   12  A    between atoms: C_13  and  C_14
REMARK   13  A    between atoms: C_21  and  C_23
REMARK   14  A    between atoms: C_23  and  O_24
REMARK   15  A    between atoms: O_24  and  C_25
REMARK   16  A    between atoms: C_26  and  C_27
REMARK   17  A    between atoms: C_31  and  C_32
REMARK   18  A    between atoms: C_34  and  C_36
REMARK   19  A    between atoms: C_40  and  N_41
REMARK                            x       y       z     vdW  Elec       q    Type
REMARK                         _______ _______ _______ _____ _____    ______ ____
ROOT
ATOM      1  C   UNL     1       5.041   0.076  26.348  0.00  0.00    +0.137 C 
ENDROOT
BRANCH   1   2
ATOM      2  O   UNL     1       3.636   0.399  26.487  0.00  0.00    -0.390 OA
ATOM      3  H   UNL     1       3.281  -0.351  27.009  0.00  0.00    +0.210 HD
ENDBRANCH   1   2
BRANCH   1   4
ATOM      4  C   UNL     1       5.731   0.532  27.648  0.00  0.00    +0.055 C 
BRANCH   4   5
ATOM      5  C   UNL     1       7.090   1.246  27.345  0.00  0.00    +0.076 C 
BRANCH   5   6
ATOM      6  N   UNL     1       7.633   0.813  26.057  0.00  0.00    -0.308 N 
ATOM      7  H   UNL     1       7.380   1.376  25.258  0.00  0.00    +0.149 HD
ATOM      8  C   UNL     1       8.549  -0.207  25.915  0.00  0.00    +0.244 C 
ATOM      9  O   UNL     1       8.977  -0.861  26.859  0.00  0.00    -0.270 OA
BRANCH   8  10
ATOM     10  C   UNL     1       9.033  -0.476  24.526  0.00  0.00    +0.038 A 
ATOM     11  C   UNL     1       8.808   0.503  23.543  0.00  0.00    +0.035 A 
ATOM     12  C   UNL     1       9.260   0.315  22.237  0.00  0.00    +0.025 A 
ATOM     13  C   UNL     1       9.840  -0.909  21.895  0.00  0.00    +0.023 A 
ATOM     14  C   UNL     1      10.080  -1.885  22.864  0.00  0.00    +0.003 A 
ATOM     15  C   UNL     1       9.691  -1.660  24.184  0.00  0.00    +0.013 A 
BRANCH  12  16
ATOM     16  N   UNL     1       8.932   1.239  21.235  0.00  0.00    -0.358 N 
ATOM     17  H   UNL     1       9.726   1.508  20.660  0.00  0.00    +0.142 HD
ATOM     18  H   UNL     1       8.130   0.964  20.676  0.00  0.00    +0.142 HD
ENDBRANCH  12  16
ENDBRANCH   8  10
ENDBRANCH   5   6
BRANCH   5  19
ATOM     19  C   UNL     1       6.998   2.782  27.279  0.00  0.00    +0.025 C 
BRANCH  19  21
ATOM     20  C   UNL     1       5.640   3.778  25.351  0.00  0.00    +0.007 C 
ATOM     21  C   UNL     1       7.029   3.449  25.900  0.00  0.00    -0.015 C 
ATOM     22  C   UNL     1       7.862   4.737  25.991  0.00  0.00    +0.007 C 
ENDBRANCH  19  21
ENDBRANCH   5  19
ENDBRANCH   4   5
ENDBRANCH   1   4
BRANCH   1  23
ATOM     23  C   UNL     1       5.087  -1.434  25.959  0.00  0.00    +0.106 C 
BRANCH  23  24
ATOM     24  N   UNL     1       3.910  -2.207  26.429  0.00  0.00    -0.307 N 
ATOM     25  H   UNL     1       3.033  -2.041  25.952  0.00  0.00    +0.149 HD
ATOM     26  C   UNL     1       3.915  -3.130  27.453  0.00  0.00    +0.251 C 
ATOM     27  O   UNL     1       4.904  -3.414  28.124  0.00  0.00    -0.272 OA
BRANCH  26  28
ATOM     28  C   UNL     1       2.618  -3.880  27.650  0.00  0.00    +0.324 C 
BRANCH  28  29
ATOM     29  O   UNL     1       2.814  -5.159  27.108  0.00  0.00    -0.482 OA
BRANCH  29  30
ATOM     30  C   UNL     1       3.059  -5.324  25.777  0.00  0.00    +0.127 A 
ATOM     31  C   UNL     1       4.190  -6.158  25.568  0.00  0.00    -0.009 A 
ATOM     32  C   UNL     1       5.019  -6.640  26.736  0.00  0.00    +0.047 C 
ATOM     33  C   UNL     1       4.559  -6.538  24.274  0.00  0.00    +0.007 A 
ATOM     34  C   UNL     1       3.814  -6.106  23.187  0.00  0.00    +0.001 A 
ATOM     35  C   UNL     1       2.721  -5.270  23.387  0.00  0.00    +0.007 A 
ATOM     36  C   UNL     1       2.330  -4.838  24.674  0.00  0.00    -0.009 A 
ATOM     37  C   UNL     1       1.104  -3.964  24.678  0.00  0.00    +0.047 C 
ENDBRANCH  29  30
ENDBRANCH  28  29
ENDBRANCH  26  28
ENDBRANCH  23  24
BRANCH  23  38
ATOM     38  C   UNL     1       5.477  -1.836  24.518  0.00  0.00    +0.060 C 
BRANCH  38  39
ATOM     39  C   UNL     1       6.250  -3.101  24.219  0.00  0.00    -0.046 A 
ATOM     40  C   UNL     1       6.937  -3.770  25.254  0.00  0.00    +0.004 A 
ATOM     41  C   UNL     1       7.830  -4.809  24.978  0.00  0.00    +0.000 A 
ATOM     42  C   UNL     1       8.048  -5.205  23.664  0.00  0.00    +0.000 A 
ATOM     43  C   UNL     1       7.349  -4.584  22.632  0.00  0.00    +0.000 A 
ATOM     44  C   UNL     1       6.455  -3.542  22.908  0.00  0.00    +0.004 A 
ENDBRANCH  38  39
ENDBRANCH  23  38
ENDBRANCH   1  23
TORSDOF 15
ENDMDL
MODEL 7
REMARK VINA RESULT:      -6.8      2.094      3.906
REMARK  Name = 
REMARK  19 active torsions:
REMARK  status: ('A' for Active; 'I' for Inactive)
REMARK    1  A    between atoms: C_1  and  C_2
REMARK    2  A    between atoms: C_2  and  C_3
REMARK    3  A    between atoms: C_2  and  C_4
REMARK    4  A    between atoms: C_4  and  C_5
REMARK    5  A    between atoms: C_5  and  C_7
REMARK    6  A    between atoms: C_5  and  N_33
REMARK    7  A    between atoms: C_7  and  C_8
REMARK    8  A    between atoms: C_8  and  O_10
REMARK    9  A    between atoms: C_8  and  C_11
REMARK   10  A    between atoms: C_11  and  C_13
REMARK   11  A    between atoms: C_11  and  N_20
REMARK   12  A    between atoms: C_13  and  C_14
REMARK   13  A    between atoms: C_21  and  C_23
REMARK   14  A    between atoms: C_23  and  O_24
REMARK   15  A    between atoms: O_24  and  C_25
REMARK   16  A    between atoms: C_26  and  C_27
REMARK   17  A    between atoms: C_31  and  C_32
REMARK   18  A    between atoms: C_34  and  C_36
REMARK   19  A    between atoms: C_40  and  N_41
REMARK                            x       y       z     vdW  Elec       q    Type
REMARK                         _______ _______ _______ _____ _____    ______ ____
ROOT
ATOM      1  C   UNL     1       5.996   0.624  25.864  0.00  0.00    +0.137 C 
ENDROOT
BRANCH   1   2
ATOM      2  O   UNL     1       4.934   1.207  26.658  0.00  0.00    -0.390 OA
ATOM      3  H   UNL     1       4.591   1.926  26.086  0.00  0.00    +0.210 HD
ENDBRANCH   1   2
BRANCH   1   4
ATOM      4  C   UNL     1       7.209   1.567  25.987  0.00  0.00    +0.055 C 
BRANCH   4   5
ATOM      5  C   UNL     1       7.743   1.984  24.577  0.00  0.00    +0.076 C 
BRANCH   5   6
ATOM      6  N   UNL     1       8.802   2.987  24.694  0.00  0.00    -0.308 N 
ATOM      7  H   UNL     1       9.562   2.759  25.318  0.00  0.00    +0.149 HD
ATOM      8  C   UNL     1       8.873   4.122  23.914  0.00  0.00    +0.244 C 
ATOM      9  O   UNL     1       8.038   4.404  23.062  0.00  0.00    -0.270 OA
BRANCH   8  10
ATOM     10  C   UNL     1      10.056   5.007  24.137  0.00  0.00    +0.038 A 
ATOM     11  C   UNL     1      11.271   4.661  23.520  0.00  0.00    +0.035 A 
ATOM     12  C   UNL     1      12.400   5.465  23.674  0.00  0.00    +0.025 A 
ATOM     13  C   UNL     1      12.336   6.558  24.541  0.00  0.00    +0.023 A 
ATOM     14  C   UNL     1      11.133   6.920  25.151  0.00  0.00    +0.003 A 
ATOM     15  C   UNL     1       9.989   6.153  24.934  0.00  0.00    +0.013 A 
BRANCH  12  16
ATOM     16  N   UNL     1      13.636   5.054  23.155  0.00  0.00    -0.358 N 
ATOM     17  H   UNL     1      13.849   4.079  23.347  0.00  0.00    +0.142 HD
ATOM     18  H   UNL     1      13.764   5.288  22.175  0.00  0.00    +0.142 HD
ENDBRANCH  12  16
ENDBRANCH   8  10
ENDBRANCH   5   6
BRANCH   5  19
ATOM     19  C   UNL     1       8.336   0.824  23.755  0.00  0.00    +0.025 C 
BRANCH  19  21
ATOM     20  C   UNL     1      10.601   0.359  24.854  0.00  0.00    +0.007 C 
ATOM     21  C   UNL     1       9.858   0.768  23.582  0.00  0.00    -0.015 C 
ATOM     22  C   UNL     1      10.191  -0.222  22.455  0.00  0.00    +0.007 C 
ENDBRANCH  19  21
ENDBRANCH   5  19
ENDBRANCH   4   5
ENDBRANCH   1   4
BRANCH   1  23
ATOM     23  C   UNL     1       6.131  -0.848  26.362  0.00  0.00    +0.106 C 
BRANCH  23  24
ATOM     24  N   UNL     1       5.302  -1.814  25.600  0.00  0.00    -0.307 N 
ATOM     25  H   UNL     1       5.509  -1.918  24.614  0.00  0.00    +0.149 HD
ATOM     26  C   UNL     1       4.281  -2.581  26.121  0.00  0.00    +0.251 C 
ATOM     27  O   UNL     1       3.915  -2.543  27.293  0.00  0.00    -0.272 OA
BRANCH  26  28
ATOM     28  C   UNL     1       3.678  -3.586  25.166  0.00  0.00    +0.324 C 
BRANCH  28  29
ATOM     29  O   UNL     1       4.275  -3.352  23.918  0.00  0.00    -0.482 OA
BRANCH  29  30
ATOM     30  C   UNL     1       5.083  -4.286  23.343  0.00  0.00    +0.127 A 
ATOM     31  C   UNL     1       6.187  -3.674  22.692  0.00  0.00    -0.009 A 
ATOM     32  C   UNL     1       6.288  -2.169  22.598  0.00  0.00    +0.047 C 
ATOM     33  C   UNL     1       7.194  -4.457  22.119  0.00  0.00    +0.007 A 
ATOM     34  C   UNL     1       7.122  -5.839  22.192  0.00  0.00    +0.001 A 
ATOM     35  C   UNL     1       6.030  -6.442  22.808  0.00  0.00    +0.007 A 
ATOM     36  C   UNL     1       4.976  -5.691  23.373  0.00  0.00    -0.009 A 
ATOM     37  C   UNL     1       3.905  -6.532  24.018  0.00  0.00    +0.047 C 
ENDBRANCH  29  30
ENDBRANCH  28  29
ENDBRANCH  26  28
ENDBRANCH  23  24
BRANCH  23  38
ATOM     38  C   UNL     1       7.534  -1.428  26.652  0.00  0.00    +0.060 C 
BRANCH  38  39
ATOM     39  C   UNL     1       7.993  -2.748  26.075  0.00  0.00    -0.046 A 
ATOM     40  C   UNL     1       7.566  -3.960  26.658  0.00  0.00    +0.004 A 
ATOM     41  C   UNL     1       8.136  -5.182  26.290  0.00  0.00    +0.000 A 
ATOM     42  C   UNL     1       9.138  -5.218  25.329  0.00  0.00    +0.000 A 
ATOM     43  C   UNL     1       9.546  -4.038  24.714  0.00  0.00    +0.000 A 
ATOM     44  C   UNL     1       8.976  -2.813  25.082  0.00  0.00    +0.004 A 
ENDBRANCH  38  39
ENDBRANCH  23  38
ENDBRANCH   1  23
TORSDOF 15
ENDMDL
MODEL 8
REMARK VINA RESULT:      -6.7      2.654      8.475
REMARK  Name = 
REMARK  19 active torsions:
REMARK  status: ('A' for Active; 'I' for Inactive)
REMARK    1  A    between atoms: C_1  and  C_2
REMARK    2  A    between atoms: C_2  and  C_3
REMARK    3  A    between atoms: C_2  and  C_4
REMARK    4  A    between atoms: C_4  and  C_5
REMARK    5  A    between atoms: C_5  and  C_7
REMARK    6  A    between atoms: C_5  and  N_33
REMARK    7  A    between atoms: C_7  and  C_8
REMARK    8  A    between atoms: C_8  and  O_10
REMARK    9  A    between atoms: C_8  and  C_11
REMARK   10  A    between atoms: C_11  and  C_13
REMARK   11  A    between atoms: C_11  and  N_20
REMARK   12  A    between atoms: C_13  and  C_14
REMARK   13  A    between atoms: C_21  and  C_23
REMARK   14  A    between atoms: C_23  and  O_24
REMARK   15  A    between atoms: O_24  and  C_25
REMARK   16  A    between atoms: C_26  and  C_27
REMARK   17  A    between atoms: C_31  and  C_32
REMARK   18  A    between atoms: C_34  and  C_36
REMARK   19  A    between atoms: C_40  and  N_41
REMARK                            x       y       z     vdW  Elec       q    Type
REMARK                         _______ _______ _______ _____ _____    ______ ____
ROOT
ATOM      1  C   UNL     1       5.066   0.514  26.880  0.00  0.00    +0.137 C 
ENDROOT
BRANCH   1   2
ATOM      2  O   UNL     1       3.851   0.131  26.191  0.00  0.00    -0.390 OA
ATOM      3  H   UNL     1       3.374  -0.409  26.856  0.00  0.00    +0.210 HD
ENDBRANCH   1   2
BRANCH   1   4
ATOM      4  C   UNL     1       5.326  -0.562  27.952  0.00  0.00    +0.055 C 
BRANCH   4   5
ATOM      5  C   UNL     1       4.616  -1.907  27.584  0.00  0.00    +0.076 C 
BRANCH   5   6
ATOM      6  N   UNL     1       5.454  -2.718  26.701  0.00  0.00    -0.308 N 
ATOM      7  H   UNL     1       6.269  -3.137  27.125  0.00  0.00    +0.149 HD
ATOM      8  C   UNL     1       5.119  -3.033  25.402  0.00  0.00    +0.244 C 
ATOM      9  O   UNL     1       4.091  -2.642  24.860  0.00  0.00    -0.270 OA
BRANCH   8  10
ATOM     10  C   UNL     1       6.073  -3.917  24.666  0.00  0.00    +0.038 A 
ATOM     11  C   UNL     1       7.226  -4.357  25.339  0.00  0.00    +0.035 A 
ATOM     12  C   UNL     1       8.137  -5.204  24.708  0.00  0.00    +0.025 A 
ATOM     13  C   UNL     1       7.945  -5.517  23.361  0.00  0.00    +0.023 A 
ATOM     14  C   UNL     1       6.798  -5.096  22.683  0.00  0.00    +0.003 A 
ATOM     15  C   UNL     1       5.854  -4.311  23.343  0.00  0.00    +0.013 A 
BRANCH  12  16
ATOM     16  N   UNL     1       9.341  -5.544  25.341  0.00  0.00    -0.358 N 
ATOM     17  H   UNL     1      10.153  -5.094  24.928  0.00  0.00    +0.142 HD
ATOM     18  H   UNL     1       9.315  -5.435  26.351  0.00  0.00    +0.142 HD
ENDBRANCH  12  16
ENDBRANCH   8  10
ENDBRANCH   5   6
BRANCH   5  19
ATOM     19  C   UNL     1       4.279  -2.797  28.795  0.00  0.00    +0.025 C 
BRANCH  19  21
ATOM     20  C   UNL     1       4.926  -5.004  29.919  0.00  0.00    +0.007 C 
ATOM     21  C   UNL     1       4.442  -4.313  28.644  0.00  0.00    -0.015 C 
ATOM     22  C   UNL     1       3.095  -4.917  28.216  0.00  0.00    +0.007 C 
ENDBRANCH  19  21
ENDBRANCH   5  19
ENDBRANCH   4   5
ENDBRANCH   1   4
BRANCH   1  23
ATOM     23  C   UNL     1       6.129   0.736  25.761  0.00  0.00    +0.106 C 
BRANCH  23  24
ATOM     24  N   UNL     1       6.279   2.155  25.354  0.00  0.00    -0.307 N 
ATOM     25  H   UNL     1       7.043   2.673  25.770  0.00  0.00    +0.149 HD
ATOM     26  C   UNL     1       5.471   2.821  24.457  0.00  0.00    +0.251 C 
ATOM     27  O   UNL     1       4.502   2.320  23.893  0.00  0.00    -0.272 OA
BRANCH  26  28
ATOM     28  C   UNL     1       5.914   4.225  24.110  0.00  0.00    +0.324 C 
BRANCH  28  29
ATOM     29  O   UNL     1       6.775   4.106  23.009  0.00  0.00    -0.482 OA
BRANCH  29  30
ATOM     30  C   UNL     1       8.040   3.620  23.158  0.00  0.00    +0.127 A 
ATOM     31  C   UNL     1       8.259   2.503  22.310  0.00  0.00    -0.009 A 
ATOM     32  C   UNL     1       7.131   1.928  21.485  0.00  0.00    +0.047 C 
ATOM     33  C   UNL     1       9.524   1.910  22.233  0.00  0.00    +0.007 A 
ATOM     34  C   UNL     1      10.573   2.420  22.983  0.00  0.00    +0.001 A 
ATOM     35  C   UNL     1      10.355   3.499  23.832  0.00  0.00    +0.007 A 
ATOM     36  C   UNL     1       9.088   4.109  23.963  0.00  0.00    -0.009 A 
ATOM     37  C   UNL     1       9.070   5.281  24.909  0.00  0.00    +0.047 C 
ENDBRANCH  29  30
ENDBRANCH  28  29
ENDBRANCH  26  28
ENDBRANCH  23  24
BRANCH  23  38
ATOM     38  C   UNL     1       7.506   0.041  25.870  0.00  0.00    +0.060 C 
BRANCH  38  39
ATOM     39  C   UNL     1       8.080  -0.786  24.741  0.00  0.00    -0.046 A 
ATOM     40  C   UNL     1       9.393  -1.295  24.838  0.00  0.00    +0.004 A 
ATOM     41  C   UNL     1      10.028  -1.874  23.736  0.00  0.00    +0.000 A 
ATOM     42  C   UNL     1       9.363  -1.962  22.519  0.00  0.00    +0.000 A 
ATOM     43  C   UNL     1       8.053  -1.501  22.415  0.00  0.00    +0.000 A 
ATOM     44  C   UNL     1       7.416  -0.920  23.518  0.00  0.00    +0.004 A 
ENDBRANCH  38  39
ENDBRANCH  23  38
ENDBRANCH   1  23
TORSDOF 15
ENDMDL
MODEL 9
REMARK VINA RESULT:      -6.7      1.812      3.899
REMARK  Name = 
REMARK  19 active torsions:
REMARK  status: ('A' for Active; 'I' for Inactive)
REMARK    1  A    between atoms: C_1  and  C_2
REMARK    2  A    between atoms: C_2  and  C_3
REMARK    3  A    between atoms: C_2  and  C_4
REMARK    4  A    between atoms: C_4  and  C_5
REMARK    5  A    between atoms: C_5  and  C_7
REMARK    6  A    between atoms: C_5  and  N_33
REMARK    7  A    between atoms: C_7  and  C_8
REMARK    8  A    between atoms: C_8  and  O_10
REMARK    9  A    between atoms: C_8  and  C_11
REMARK   10  A    between atoms: C_11  and  C_13
REMARK   11  A    between atoms: C_11  and  N_20
REMARK   12  A    between atoms: C_13  and  C_14
REMARK   13  A    between atoms: C_21  and  C_23
REMARK   14  A    between atoms: C_23  and  O_24
REMARK   15  A    between atoms: O_24  and  C_25
REMARK   16  A    between atoms: C_26  and  C_27
REMARK   17  A    between atoms: C_31  and  C_32
REMARK   18  A    between atoms: C_34  and  C_36
REMARK   19  A    between atoms: C_40  and  N_41
REMARK                            x       y       z     vdW  Elec       q    Type
REMARK                         _______ _______ _______ _____ _____    ______ ____
ROOT
ATOM      1  C   UNL     1       9.914  -0.398  22.833  0.00  0.00    +0.137 C 
ENDROOT
BRANCH   1   2
ATOM      2  O   UNL     1       9.277   0.359  21.774  0.00  0.00    -0.390 OA
ATOM      3  H   UNL     1       9.908   1.092  21.609  0.00  0.00    +0.210 HD
ENDBRANCH   1   2
BRANCH   1   4
ATOM      4  C   UNL     1      10.814   0.587  23.603  0.00  0.00    +0.055 C 
BRANCH   4   5
ATOM      5  C   UNL     1      10.319   2.061  23.425  0.00  0.00    +0.076 C 
BRANCH   5   6
ATOM      6  N   UNL     1       9.188   2.344  24.308  0.00  0.00    -0.308 N 
ATOM      7  H   UNL     1       9.396   2.386  25.295  0.00  0.00    +0.149 HD
ATOM      8  C   UNL     1       7.929   2.679  23.858  0.00  0.00    +0.244 C 
ATOM      9  O   UNL     1       7.637   2.749  22.670  0.00  0.00    -0.270 OA
BRANCH   8  10
ATOM     10  C   UNL     1       6.910   2.987  24.908  0.00  0.00    +0.038 A 
ATOM     11  C   UNL     1       7.357   3.225  26.219  0.00  0.00    +0.035 A 
ATOM     12  C   UNL     1       6.451   3.542  27.232  0.00  0.00    +0.025 A 
ATOM     13  C   UNL     1       5.084   3.509  26.948  0.00  0.00    +0.023 A 
ATOM     14  C   UNL     1       4.627   3.285  25.647  0.00  0.00    +0.003 A 
ATOM     15  C   UNL     1       5.542   3.042  24.624  0.00  0.00    +0.013 A 
BRANCH  12  16
ATOM     16  N   UNL     1       6.888   3.662  28.558  0.00  0.00    -0.358 N 
ATOM     17  H   UNL     1       7.021   4.626  28.852  0.00  0.00    +0.142 HD
ATOM     18  H   UNL     1       6.327   3.135  29.221  0.00  0.00    +0.142 HD
ENDBRANCH  12  16
ENDBRANCH   8  10
ENDBRANCH   5   6
BRANCH   5  19
ATOM     19  C   UNL     1      11.385   3.128  23.733  0.00  0.00    +0.025 C 
BRANCH  19  21
ATOM     20  C   UNL     1      10.357   5.455  24.021  0.00  0.00    +0.007 C 
ATOM     21  C   UNL     1      11.196   4.529  23.140  0.00  0.00    -0.015 C 
ATOM     22  C   UNL     1      12.578   5.158  22.907  0.00  0.00    +0.007 C 
ENDBRANCH  19  21
ENDBRANCH   5  19
ENDBRANCH   4   5
ENDBRANCH   1   4
BRANCH   1  23
ATOM     23  C   UNL     1       8.753  -1.112  23.592  0.00  0.00    +0.106 C 
BRANCH  23  24
ATOM     24  N   UNL     1       8.558  -2.527  23.189  0.00  0.00    -0.307 N 
ATOM     25  H   UNL     1       9.311  -3.171  23.399  0.00  0.00    +0.149 HD
ATOM     26  C   UNL     1       7.440  -3.035  22.562  0.00  0.00    +0.251 C 
ATOM     27  O   UNL     1       6.463  -2.365  22.237  0.00  0.00    -0.272 OA
BRANCH  26  28
ATOM     28  C   UNL     1       7.431  -4.536  22.379  0.00  0.00    +0.324 C 
BRANCH  28  29
ATOM     29  O   UNL     1       6.517  -5.043  23.315  0.00  0.00    -0.482 OA
BRANCH  29  30
ATOM     30  C   UNL     1       6.647  -4.761  24.642  0.00  0.00    +0.127 A 
ATOM     31  C   UNL     1       5.427  -4.270  25.180  0.00  0.00    -0.009 A 
ATOM     32  C   UNL     1       4.240  -4.008  24.283  0.00  0.00    +0.047 C 
ATOM     33  C   UNL     1       5.311  -4.010  26.549  0.00  0.00    +0.007 A 
ATOM     34  C   UNL     1       6.388  -4.241  27.391  0.00  0.00    +0.001 A 
ATOM     35  C   UNL     1       7.591  -4.700  26.864  0.00  0.00    +0.007 A 
ATOM     36  C   UNL     1       7.762  -4.947  25.483  0.00  0.00    -0.009 A 
ATOM     37  C   UNL     1       9.128  -5.468  25.122  0.00  0.00    +0.047 C 
ENDBRANCH  29  30
ENDBRANCH  28  29
ENDBRANCH  26  28
ENDBRANCH  23  24
BRANCH  23  38
ATOM     38  C   UNL     1       8.632  -0.948  25.124  0.00  0.00    +0.060 C 
BRANCH  38  39
ATOM     39  C   UNL     1       7.335  -0.546  25.790  0.00  0.00    -0.046 A 
ATOM     40  C   UNL     1       7.310  -0.258  27.171  0.00  0.00    +0.004 A 
ATOM     41  C   UNL     1       6.103  -0.096  27.856  0.00  0.00    +0.000 A 
ATOM     42  C   UNL     1       4.898  -0.211  27.174  0.00  0.00    +0.000 A 
ATOM     43  C   UNL     1       4.902  -0.456  25.804  0.00  0.00    +0.000 A 
ATOM     44  C   UNL     1       6.111  -0.619  25.117  0.00  0.00    +0.004 A 
ENDBRANCH  38  39
ENDBRANCH  23  38
ENDBRANCH   1  23
TORSDOF 15
ENDMDL
