MODEL 1
REMARK VINA RESULT:      -4.7      0.000      0.000
REMARK  Name = 
REMARK  45 active torsions:
REMARK  status: ('A' for Active; 'I' for Inactive)
REMARK    1  A    between atoms: C_1  and  C_2
REMARK    2  A    between atoms: C_2  and  C_3
REMARK    3  A    between atoms: C_3  and  C_4
REMARK    4  A    between atoms: C_4  and  C_5
REMARK    5  A    between atoms: C_5  and  C_6
REMARK    6  A    between atoms: C_6  and  C_7
REMARK    7  A    between atoms: C_7  and  C_8
REMARK    8  A    between atoms: C_8  and  C_9
REMARK    9  A    between atoms: C_9  and  C_10
REMARK   10  A    between atoms: C_10  and  C_11
REMARK   11  A    between atoms: C_11  and  C_12
REMARK   12  A    between atoms: C_12  and  C_13
REMARK   13  A    between atoms: C_13  and  C_14
REMARK   14  A    between atoms: C_14  and  C_15
REMARK   15  A    between atoms: C_15  and  C_16
REMARK   16  A    between atoms: C_16  and  O_18
REMARK   17  A    between atoms: O_18  and  C_19
REMARK   18  A    between atoms: C_19  and  C_20
REMARK   19  A    between atoms: C_20  and  C_22
REMARK   20  A    between atoms: C_20  and  O_34
REMARK   21  A    between atoms: C_22  and  O_23
REMARK   22  A    between atoms: O_23  and  P_24
REMARK   23  A    between atoms: P_24  and  O_27
REMARK   24  A    between atoms: O_27  and  C_28
REMARK   25  A    between atoms: C_28  and  C_29
REMARK   26  A    between atoms: C_29  and  N_30
REMARK   27  A    between atoms: N_30  and  C_31
REMARK   28  A    between atoms: N_30  and  C_32
REMARK   29  A    between atoms: N_30  and  C_33
REMARK   30  A    between atoms: O_34  and  C_35
REMARK   31  A    between atoms: C_35  and  C_37
REMARK   32  A    between atoms: C_37  and  C_38
REMARK   33  A    between atoms: C_38  and  C_39
REMARK   34  A    between atoms: C_39  and  C_40
REMARK   35  A    between atoms: C_40  and  C_41
REMARK   36  A    between atoms: C_41  and  C_42
REMARK   37  A    between atoms: C_42  and  C_43
REMARK   38  A    between atoms: C_43  and  C_44
REMARK   39  A    between atoms: C_44  and  C_45
REMARK   40  A    between atoms: C_45  and  C_46
REMARK   41  A    between atoms: C_46  and  C_47
REMARK   42  A    between atoms: C_47  and  C_48
REMARK   43  A    between atoms: C_48  and  C_49
REMARK   44  A    between atoms: C_49  and  C_50
REMARK   45  A    between atoms: C_50  and  C_51
REMARK                            x       y       z     vdW  Elec       q    Type
REMARK                         _______ _______ _______ _____ _____    ______ ____
ROOT
ATOM      1  C   UNL     1       5.055  -5.182  24.734  0.00  0.00    +0.240 C 
ENDROOT
BRANCH   1   2
ATOM      2  C   UNL     1       4.830  -6.387  25.647  0.00  0.00    +0.216 C 
BRANCH   2   3
ATOM      3  O   UNL     1       5.975  -6.651  26.430  0.00  0.00    -0.324 OA
BRANCH   3   4
ATOM      4  P   UNL     1       5.873  -5.958  28.012  0.00  0.00    +0.213 P 
ATOM      5  O   UNL     1       7.222  -5.261  27.846  0.00  0.00    -0.517 OA
ATOM      6  O   UNL     1       5.746  -7.358  28.613  0.00  0.00    -0.437 OA
BRANCH   4   7
ATOM      7  O   UNL     1       5.772  -5.264  29.594  0.00  0.00    -0.322 OA
BRANCH   7   8
ATOM      8  C   UNL     1       4.556  -4.550  29.750  0.00  0.00    +0.218 C 
BRANCH   8   9
ATOM      9  C   UNL     1       3.744  -4.643  28.474  0.00  0.00    +0.161 C 
BRANCH   9  10
ATOM     10  N   UNL     1       2.271  -5.093  28.678  0.00  0.00    +0.239 N 
ATOM     11  C   UNL     1       1.454  -3.846  28.955  0.00  0.00    +0.192 C 
ATOM     12  C   UNL     1       2.150  -6.060  29.837  0.00  0.00    +0.192 C 
ATOM     13  C   UNL     1       1.733  -5.759  27.402  0.00  0.00    +0.192 C 
ENDBRANCH   9  10
ENDBRANCH   8   9
ENDBRANCH   7   8
ENDBRANCH   4   7
ENDBRANCH   3   4
ENDBRANCH   2   3
ENDBRANCH   1   2
BRANCH   1  14
ATOM     14  C   UNL     1       5.459  -5.588  23.307  0.00  0.00    +0.279 C 
BRANCH  14  15
ATOM     15  O   UNL     1       6.686  -4.975  22.889  0.00  0.00    -0.461 OA
BRANCH  15  16
ATOM     16  C   UNL     1       6.574  -3.765  22.269  0.00  0.00    +0.307 C 
ATOM     17  O   UNL     1       5.650  -3.434  21.533  0.00  0.00    -0.251 OA
BRANCH  16  18
ATOM     18  C   UNL     1       7.685  -2.838  22.697  0.00  0.00    +0.120 C 
BRANCH  18  19
ATOM     19  C   UNL     1       8.533  -3.515  23.767  0.00  0.00    +0.011 C 
BRANCH  19  20
ATOM     20  C   UNL     1       8.945  -2.554  24.880  0.00  0.00    +0.001 C 
BRANCH  20  21
ATOM     21  C   UNL     1       8.768  -1.105  24.424  0.00  0.00    +0.000 C 
BRANCH  21  22
ATOM     22  C   UNL     1       9.755  -0.170  25.117  0.00  0.00    +0.000 C 
BRANCH  22  23
ATOM     23  C   UNL     1      10.768   0.386  24.117  0.00  0.00    +0.000 C 
BRANCH  23  24
ATOM     24  C   UNL     1      10.573   1.885  23.918  0.00  0.00    -0.000 C 
BRANCH  24  25
ATOM     25  C   UNL     1      10.227   2.204  22.466  0.00  0.00    -0.000 C 
BRANCH  25  26
ATOM     26  C   UNL     1       9.199   1.215  21.925  0.00  0.00    -0.000 C 
BRANCH  26  27
ATOM     27  C   UNL     1       7.970   1.942  21.389  0.00  0.00    -0.000 C 
BRANCH  27  28
ATOM     28  C   UNL     1       6.835   1.912  22.409  0.00  0.00    -0.000 C 
BRANCH  28  29
ATOM     29  C   UNL     1       5.906   3.111  22.229  0.00  0.00    -0.000 C 
BRANCH  29  30
ATOM     30  C   UNL     1       4.690   2.998  23.147  0.00  0.00    -0.000 C 
BRANCH  30  32
ATOM     31  C   UNL     1       3.421   5.113  22.667  0.00  0.00    +0.004 C 
ATOM     32  C   UNL     1       4.275   4.367  23.679  0.00  0.00    -0.003 C 
ENDBRANCH  30  32
ENDBRANCH  29  30
ENDBRANCH  28  29
ENDBRANCH  27  28
ENDBRANCH  26  27
ENDBRANCH  25  26
ENDBRANCH  24  25
ENDBRANCH  23  24
ENDBRANCH  22  23
ENDBRANCH  21  22
ENDBRANCH  20  21
ENDBRANCH  19  20
ENDBRANCH  18  19
ENDBRANCH  16  18
ENDBRANCH  15  16
ENDBRANCH  14  15
ENDBRANCH   1  14
BRANCH   1  33
ATOM     33  O   UNL     1       3.821  -4.427  24.624  0.00  0.00    -0.456 OA
BRANCH  33  34
ATOM     34  C   UNL     1       3.796  -3.238  25.276  0.00  0.00    +0.308 C 
ATOM     35  O   UNL     1       2.789  -2.634  25.619  0.00  0.00    -0.251 OA
BRANCH  34  36
ATOM     36  C   UNL     1       5.188  -2.759  25.579  0.00  0.00    +0.120 C 
BRANCH  36  37
ATOM     37  C   UNL     1       5.292  -1.295  25.184  0.00  0.00    +0.011 C 
BRANCH  37  38
ATOM     38  C   UNL     1       5.600  -0.396  26.375  0.00  0.00    +0.001 C 
BRANCH  38  39
ATOM     39  C   UNL     1       4.894   0.945  26.202  0.00  0.00    +0.000 C 
BRANCH  39  40
ATOM     40  C   UNL     1       5.332   1.946  27.263  0.00  0.00    +0.000 C 
BRANCH  40  41
ATOM     41  C   UNL     1       6.009   3.147  26.612  0.00  0.00    +0.000 C 
BRANCH  41  42
ATOM     42  C   UNL     1       7.472   2.845  26.319  0.00  0.00    -0.000 C 
BRANCH  42  43
ATOM     43  C   UNL     1       7.994   3.733  25.196  0.00  0.00    -0.000 C 
BRANCH  43  44
ATOM     44  C   UNL     1       7.383   5.127  25.291  0.00  0.00    -0.000 C 
BRANCH  44  45
ATOM     45  C   UNL     1       8.343   6.180  24.748  0.00  0.00    -0.000 C 
BRANCH  45  46
ATOM     46  C   UNL     1       9.583   6.282  25.629  0.00  0.00    -0.000 C 
BRANCH  46  47
ATOM     47  C   UNL     1      10.803   6.689  24.809  0.00  0.00    -0.000 C 
BRANCH  47  48
ATOM     48  C   UNL     1      11.107   5.649  23.735  0.00  0.00    -0.000 C 
BRANCH  48  49
ATOM     49  C   UNL     1      12.607   5.400  23.620  0.00  0.00    -0.003 C 
ATOM     50  C   UNL     1      13.071   5.508  22.177  0.00  0.00    +0.004 C 
ENDBRANCH  48  49
ENDBRANCH  47  48
ENDBRANCH  46  47
ENDBRANCH  45  46
ENDBRANCH  44  45
ENDBRANCH  43  44
ENDBRANCH  42  43
ENDBRANCH  41  42
ENDBRANCH  40  41
ENDBRANCH  39  40
ENDBRANCH  38  39
ENDBRANCH  37  38
ENDBRANCH  36  37
ENDBRANCH  34  36
ENDBRANCH  33  34
ENDBRANCH   1  33
TORSDOF 40
ENDMDL
MODEL 2
REMARK VINA RESULT:      -4.6      2.725      6.677
REMARK  Name = 
REMARK  45 active torsions:
REMARK  status: ('A' for Active; 'I' for Inactive)
REMARK    1  A    between atoms: C_1  and  C_2
REMARK    2  A    between atoms: C_2  and  C_3
REMARK    3  A    between atoms: C_3  and  C_4
REMARK    4  A    between atoms: C_4  and  C_5
REMARK    5  A    between atoms: C_5  and  C_6
REMARK    6  A    between atoms: C_6  and  C_7
REMARK    7  A    between atoms: C_7  and  C_8
REMARK    8  A    between atoms: C_8  and  C_9
REMARK    9  A    between atoms: C_9  and  C_10
REMARK   10  A    between atoms: C_10  and  C_11
REMARK   11  A    between atoms: C_11  and  C_12
REMARK   12  A    between atoms: C_12  and  C_13
REMARK   13  A    between atoms: C_13  and  C_14
REMARK   14  A    between atoms: C_14  and  C_15
REMARK   15  A    between atoms: C_15  and  C_16
REMARK   16  A    between atoms: C_16  and  O_18
REMARK   17  A    between atoms: O_18  and  C_19
REMARK   18  A    between atoms: C_19  and  C_20
REMARK   19  A    between atoms: C_20  and  C_22
REMARK   20  A    between atoms: C_20  and  O_34
REMARK   21  A    between atoms: C_22  and  O_23
REMARK   22  A    between atoms: O_23  and  P_24
REMARK   23  A    between atoms: P_24  and  O_27
REMARK   24  A    between atoms: O_27  and  C_28
REMARK   25  A    between atoms: C_28  and  C_29
REMARK   26  A    between atoms: C_29  and  N_30
REMARK   27  A    between atoms: N_30  and  C_31
REMARK   28  A    between atoms: N_30  and  C_32
REMARK   29  A    between atoms: N_30  and  C_33
REMARK   30  A    between atoms: O_34  and  C_35
REMARK   31  A    between atoms: C_35  and  C_37
REMARK   32  A    between atoms: C_37  and  C_38
REMARK   33  A    between atoms: C_38  and  C_39
REMARK   34  A    between atoms: C_39  and  C_40
REMARK   35  A    between atoms: C_40  and  C_41
REMARK   36  A    between atoms: C_41  and  C_42
REMARK   37  A    between atoms: C_42  and  C_43
REMARK   38  A    between atoms: C_43  and  C_44
REMARK   39  A    between atoms: C_44  and  C_45
REMARK   40  A    between atoms: C_45  and  C_46
REMARK   41  A    between atoms: C_46  and  C_47
REMARK   42  A    between atoms: C_47  and  C_48
REMARK   43  A    between atoms: C_48  and  C_49
REMARK   44  A    between atoms: C_49  and  C_50
REMARK   45  A    between atoms: C_50  and  C_51
REMARK                            x       y       z     vdW  Elec       q    Type
REMARK                         _______ _______ _______ _____ _____    ______ ____
ROOT
ATOM      1  C   UNL     1       9.556  -1.221  24.352  0.00  0.00    +0.240 C 
ENDROOT
BRANCH   1   2
ATOM      2  C   UNL     1       8.333  -0.468  24.877  0.00  0.00    +0.216 C 
BRANCH   2   3
ATOM      3  O   UNL     1       7.141  -0.994  24.333  0.00  0.00    -0.324 OA
BRANCH   3   4
ATOM      4  P   UNL     1       5.843  -1.017  25.476  0.00  0.00    +0.213 P 
ATOM      5  O   UNL     1       5.319   0.330  24.981  0.00  0.00    -0.517 OA
ATOM      6  O   UNL     1       6.854  -1.130  26.618  0.00  0.00    -0.437 OA
BRANCH   4   7
ATOM      7  O   UNL     1       4.544  -1.039  26.619  0.00  0.00    -0.322 OA
BRANCH   7   8
ATOM      8  C   UNL     1       4.194   0.281  27.004  0.00  0.00    +0.218 C 
BRANCH   8   9
ATOM      9  C   UNL     1       4.907   0.641  28.293  0.00  0.00    +0.161 C 
BRANCH   9  10
ATOM     10  N   UNL     1       5.294   2.141  28.419  0.00  0.00    +0.239 N 
ATOM     11  C   UNL     1       4.918   2.586  29.819  0.00  0.00    +0.192 C 
ATOM     12  C   UNL     1       4.563   2.982  27.394  0.00  0.00    +0.192 C 
ATOM     13  C   UNL     1       6.809   2.320  28.236  0.00  0.00    +0.192 C 
ENDBRANCH   9  10
ENDBRANCH   8   9
ENDBRANCH   7   8
ENDBRANCH   4   7
ENDBRANCH   3   4
ENDBRANCH   2   3
ENDBRANCH   1   2
BRANCH   1  14
ATOM     14  C   UNL     1       9.208  -2.624  23.830  0.00  0.00    +0.279 C 
BRANCH  14  15
ATOM     15  O   UNL     1      10.057  -3.641  24.379  0.00  0.00    -0.461 OA
BRANCH  15  16
ATOM     16  C   UNL     1       9.431  -4.659  25.035  0.00  0.00    +0.307 C 
ATOM     17  O   UNL     1       9.417  -5.830  24.668  0.00  0.00    -0.251 OA
BRANCH  16  18
ATOM     18  C   UNL     1       8.846  -4.178  26.341  0.00  0.00    +0.120 C 
BRANCH  18  19
ATOM     19  C   UNL     1       7.964  -5.268  26.937  0.00  0.00    +0.011 C 
BRANCH  19  20
ATOM     20  C   UNL     1       6.561  -4.765  27.272  0.00  0.00    +0.001 C 
BRANCH  20  21
ATOM     21  C   UNL     1       5.905  -5.675  28.312  0.00  0.00    +0.000 C 
BRANCH  21  22
ATOM     22  C   UNL     1       4.528  -6.151  27.858  0.00  0.00    +0.000 C 
BRANCH  22  23
ATOM     23  C   UNL     1       4.616  -6.850  26.502  0.00  0.00    +0.000 C 
BRANCH  23  24
ATOM     24  C   UNL     1       3.366  -6.586  25.670  0.00  0.00    -0.000 C 
BRANCH  24  25
ATOM     25  C   UNL     1       2.726  -5.253  26.051  0.00  0.00    -0.000 C 
BRANCH  25  26
ATOM     26  C   UNL     1       3.313  -4.115  25.221  0.00  0.00    -0.000 C 
BRANCH  26  27
ATOM     27  C   UNL     1       3.396  -4.501  23.747  0.00  0.00    -0.000 C 
BRANCH  27  28
ATOM     28  C   UNL     1       4.653  -3.922  23.105  0.00  0.00    -0.000 C 
BRANCH  28  29
ATOM     29  C   UNL     1       5.911  -4.462  23.781  0.00  0.00    -0.000 C 
BRANCH  29  30
ATOM     30  C   UNL     1       6.262  -5.849  23.247  0.00  0.00    -0.000 C 
BRANCH  30  32
ATOM     31  C   UNL     1       6.225  -5.843  20.735  0.00  0.00    +0.004 C 
ATOM     32  C   UNL     1       7.099  -5.753  21.974  0.00  0.00    -0.003 C 
ENDBRANCH  30  32
ENDBRANCH  29  30
ENDBRANCH  28  29
ENDBRANCH  27  28
ENDBRANCH  26  27
ENDBRANCH  25  26
ENDBRANCH  24  25
ENDBRANCH  23  24
ENDBRANCH  22  23
ENDBRANCH  21  22
ENDBRANCH  20  21
ENDBRANCH  19  20
ENDBRANCH  18  19
ENDBRANCH  16  18
ENDBRANCH  15  16
ENDBRANCH  14  15
ENDBRANCH   1  14
BRANCH   1  33
ATOM     33  O   UNL     1      10.130  -0.488  23.240  0.00  0.00    -0.456 OA
BRANCH  33  34
ATOM     34  C   UNL     1      10.566   0.766  23.521  0.00  0.00    +0.308 C 
ATOM     35  O   UNL     1      11.261   1.083  24.476  0.00  0.00    -0.251 OA
BRANCH  34  36
ATOM     36  C   UNL     1      10.121   1.741  22.466  0.00  0.00    +0.120 C 
BRANCH  36  37
ATOM     37  C   UNL     1       9.074   1.066  21.595  0.00  0.00    +0.011 C 
BRANCH  37  38
ATOM     38  C   UNL     1       7.904   1.989  21.280  0.00  0.00    +0.001 C 
BRANCH  38  39
ATOM     39  C   UNL     1       7.011   2.125  22.510  0.00  0.00    +0.000 C 
BRANCH  39  40
ATOM     40  C   UNL     1       6.489   3.546  22.666  0.00  0.00    +0.000 C 
BRANCH  40  41
ATOM     41  C   UNL     1       7.617   4.551  22.462  0.00  0.00    +0.000 C 
BRANCH  41  42
ATOM     42  C   UNL     1       7.080   5.976  22.494  0.00  0.00    -0.000 C 
BRANCH  42  43
ATOM     43  C   UNL     1       7.744   6.780  23.606  0.00  0.00    -0.000 C 
BRANCH  43  44
ATOM     44  C   UNL     1       7.664   6.027  24.929  0.00  0.00    -0.000 C 
BRANCH  44  45
ATOM     45  C   UNL     1       8.998   6.077  25.664  0.00  0.00    -0.000 C 
BRANCH  45  46
ATOM     46  C   UNL     1       9.928   7.101  25.021  0.00  0.00    -0.000 C 
BRANCH  46  47
ATOM     47  C   UNL     1      11.303   6.497  24.755  0.00  0.00    -0.000 C 
BRANCH  47  48
ATOM     48  C   UNL     1      11.259   5.553  23.558  0.00  0.00    -0.000 C 
BRANCH  48  49
ATOM     49  C   UNL     1      12.634   4.952  23.280  0.00  0.00    -0.003 C 
ATOM     50  C   UNL     1      13.305   5.640  22.103  0.00  0.00    +0.004 C 
ENDBRANCH  48  49
ENDBRANCH  47  48
ENDBRANCH  46  47
ENDBRANCH  45  46
ENDBRANCH  44  45
ENDBRANCH  43  44
ENDBRANCH  42  43
ENDBRANCH  41  42
ENDBRANCH  40  41
ENDBRANCH  39  40
ENDBRANCH  38  39
ENDBRANCH  37  38
ENDBRANCH  36  37
ENDBRANCH  34  36
ENDBRANCH  33  34
ENDBRANCH   1  33
TORSDOF 40
ENDMDL
MODEL 3
REMARK VINA RESULT:      -4.6      1.371      3.135
REMARK  Name = 
REMARK  45 active torsions:
REMARK  status: ('A' for Active; 'I' for Inactive)
REMARK    1  A    between atoms: C_1  and  C_2
REMARK    2  A    between atoms: C_2  and  C_3
REMARK    3  A    between atoms: C_3  and  C_4
REMARK    4  A    between atoms: C_4  and  C_5
REMARK    5  A    between atoms: C_5  and  C_6
REMARK    6  A    between atoms: C_6  and  C_7
REMARK    7  A    between atoms: C_7  and  C_8
REMARK    8  A    between atoms: C_8  and  C_9
REMARK    9  A    between atoms: C_9  and  C_10
REMARK   10  A    between atoms: C_10  and  C_11
REMARK   11  A    between atoms: C_11  and  C_12
REMARK   12  A    between atoms: C_12  and  C_13
REMARK   13  A    between atoms: C_13  and  C_14
REMARK   14  A    between atoms: C_14  and  C_15
REMARK   15  A    between atoms: C_15  and  C_16
REMARK   16  A    between atoms: C_16  and  O_18
REMARK   17  A    between atoms: O_18  and  C_19
REMARK   18  A    between atoms: C_19  and  C_20
REMARK   19  A    between atoms: C_20  and  C_22
REMARK   20  A    between atoms: C_20  and  O_34
REMARK   21  A    between atoms: C_22  and  O_23
REMARK   22  A    between atoms: O_23  and  P_24
REMARK   23  A    between atoms: P_24  and  O_27
REMARK   24  A    between atoms: O_27  and  C_28
REMARK   25  A    between atoms: C_28  and  C_29
REMARK   26  A    between atoms: C_29  and  N_30
REMARK   27  A    between atoms: N_30  and  C_31
REMARK   28  A    between atoms: N_30  and  C_32
REMARK   29  A    between atoms: N_30  and  C_33
REMARK   30  A    between atoms: O_34  and  C_35
REMARK   31  A    between atoms: C_35  and  C_37
REMARK   32  A    between atoms: C_37  and  C_38
REMARK   33  A    between atoms: C_38  and  C_39
REMARK   34  A    between atoms: C_39  and  C_40
REMARK   35  A    between atoms: C_40  and  C_41
REMARK   36  A    between atoms: C_41  and  C_42
REMARK   37  A    between atoms: C_42  and  C_43
REMARK   38  A    between atoms: C_43  and  C_44
REMARK   39  A    between atoms: C_44  and  C_45
REMARK   40  A    between atoms: C_45  and  C_46
REMARK   41  A    between atoms: C_46  and  C_47
REMARK   42  A    between atoms: C_47  and  C_48
REMARK   43  A    between atoms: C_48  and  C_49
REMARK   44  A    between atoms: C_49  and  C_50
REMARK   45  A    between atoms: C_50  and  C_51
REMARK                            x       y       z     vdW  Elec       q    Type
REMARK                         _______ _______ _______ _____ _____    ______ ____
ROOT
ATOM      1  C   UNL     1       4.906  -5.323  24.768  0.00  0.00    +0.240 C 
ENDROOT
BRANCH   1   2
ATOM      2  C   UNL     1       4.682  -6.435  25.792  0.00  0.00    +0.216 C 
BRANCH   2   3
ATOM      3  O   UNL     1       5.865  -6.706  26.514  0.00  0.00    -0.324 OA
BRANCH   3   4
ATOM      4  P   UNL     1       5.881  -5.952  28.071  0.00  0.00    +0.213 P 
ATOM      5  O   UNL     1       7.234  -5.300  27.795  0.00  0.00    -0.517 OA
ATOM      6  O   UNL     1       5.755  -7.325  28.733  0.00  0.00    -0.437 OA
BRANCH   4   7
ATOM      7  O   UNL     1       5.897  -5.197  29.628  0.00  0.00    -0.322 OA
BRANCH   7   8
ATOM      8  C   UNL     1       4.578  -4.884  30.047  0.00  0.00    +0.218 C 
BRANCH   8   9
ATOM      9  C   UNL     1       3.790  -4.333  28.875  0.00  0.00    +0.161 C 
BRANCH   9  10
ATOM     10  N   UNL     1       2.255  -4.551  28.970  0.00  0.00    +0.239 N 
ATOM     11  C   UNL     1       1.600  -3.186  28.875  0.00  0.00    +0.192 C 
ATOM     12  C   UNL     1       1.877  -5.217  30.277  0.00  0.00    +0.192 C 
ATOM     13  C   UNL     1       1.763  -5.415  27.799  0.00  0.00    +0.192 C 
ENDBRANCH   9  10
ENDBRANCH   8   9
ENDBRANCH   7   8
ENDBRANCH   4   7
ENDBRANCH   3   4
ENDBRANCH   2   3
ENDBRANCH   1   2
BRANCH   1  14
ATOM     14  C   UNL     1       5.270  -5.863  23.376  0.00  0.00    +0.279 C 
BRANCH  14  15
ATOM     15  O   UNL     1       6.501  -5.321  22.881  0.00  0.00    -0.461 OA
BRANCH  15  16
ATOM     16  C   UNL     1       6.422  -4.104  22.272  0.00  0.00    +0.307 C 
ATOM     17  O   UNL     1       5.522  -3.752  21.515  0.00  0.00    -0.251 OA
BRANCH  16  18
ATOM     18  C   UNL     1       7.533  -3.196  22.740  0.00  0.00    +0.120 C 
BRANCH  18  19
ATOM     19  C   UNL     1       8.312  -3.877  23.860  0.00  0.00    +0.011 C 
BRANCH  19  20
ATOM     20  C   UNL     1       8.761  -2.894  24.939  0.00  0.00    +0.001 C 
BRANCH  20  21
ATOM     21  C   UNL     1       8.446  -1.459  24.516  0.00  0.00    +0.000 C 
BRANCH  21  22
ATOM     22  C   UNL     1       9.003  -0.441  25.508  0.00  0.00    +0.000 C 
BRANCH  22  23
ATOM     23  C   UNL     1      10.222   0.272  24.925  0.00  0.00    +0.000 C 
BRANCH  23  24
ATOM     24  C   UNL     1       9.878   1.705  24.532  0.00  0.00    -0.000 C 
BRANCH  24  25
ATOM     25  C   UNL     1      10.395   2.027  23.132  0.00  0.00    -0.000 C 
BRANCH  25  26
ATOM     26  C   UNL     1       9.779   1.088  22.099  0.00  0.00    -0.000 C 
BRANCH  26  27
ATOM     27  C   UNL     1       8.551   1.719  21.450  0.00  0.00    -0.000 C 
BRANCH  27  28
ATOM     28  C   UNL     1       7.286   1.363  22.225  0.00  0.00    -0.000 C 
BRANCH  28  29
ATOM     29  C   UNL     1       6.327   2.550  22.283  0.00  0.00    -0.000 C 
BRANCH  29  30
ATOM     30  C   UNL     1       7.089   3.870  22.178  0.00  0.00    -0.000 C 
BRANCH  30  32
ATOM     31  C   UNL     1       8.243   4.934  24.140  0.00  0.00    +0.004 C 
ATOM     32  C   UNL     1       6.913   4.709  23.441  0.00  0.00    -0.003 C 
ENDBRANCH  30  32
ENDBRANCH  29  30
ENDBRANCH  28  29
ENDBRANCH  27  28
ENDBRANCH  26  27
ENDBRANCH  25  26
ENDBRANCH  24  25
ENDBRANCH  23  24
ENDBRANCH  22  23
ENDBRANCH  21  22
ENDBRANCH  20  21
ENDBRANCH  19  20
ENDBRANCH  18  19
ENDBRANCH  16  18
ENDBRANCH  15  16
ENDBRANCH  14  15
ENDBRANCH   1  14
BRANCH   1  33
ATOM     33  O   UNL     1       3.684  -4.556  24.617  0.00  0.00    -0.456 OA
BRANCH  33  34
ATOM     34  C   UNL     1       3.661  -3.351  25.239  0.00  0.00    +0.308 C 
ATOM     35  O   UNL     1       2.657  -2.709  25.514  0.00  0.00    -0.251 OA
BRANCH  34  36
ATOM     36  C   UNL     1       5.050  -2.905  25.603  0.00  0.00    +0.120 C 
BRANCH  36  37
ATOM     37  C   UNL     1       5.006  -1.426  25.953  0.00  0.00    +0.011 C 
BRANCH  37  38
ATOM     38  C   UNL     1       5.092  -1.187  27.455  0.00  0.00    +0.001 C 
BRANCH  38  39
ATOM     39  C   UNL     1       3.901  -0.350  27.911  0.00  0.00    +0.000 C 
BRANCH  39  40
ATOM     40  C   UNL     1       3.971  -0.045  29.401  0.00  0.00    +0.000 C 
BRANCH  40  41
ATOM     41  C   UNL     1       4.458   1.381  29.628  0.00  0.00    +0.000 C 
BRANCH  41  42
ATOM     42  C   UNL     1       5.917   1.388  30.066  0.00  0.00    -0.000 C 
BRANCH  42  43
ATOM     43  C   UNL     1       6.680   2.522  29.392  0.00  0.00    -0.000 C 
BRANCH  43  44
ATOM     44  C   UNL     1       7.238   2.064  28.049  0.00  0.00    -0.000 C 
BRANCH  44  45
ATOM     45  C   UNL     1       6.627   2.865  26.905  0.00  0.00    -0.000 C 
BRANCH  45  46
ATOM     46  C   UNL     1       6.120   1.935  25.808  0.00  0.00    -0.000 C 
BRANCH  46  47
ATOM     47  C   UNL     1       4.664   2.235  25.469  0.00  0.00    -0.000 C 
BRANCH  47  48
ATOM     48  C   UNL     1       4.225   3.561  26.082  0.00  0.00    -0.000 C 
BRANCH  48  49
ATOM     49  C   UNL     1       3.655   4.496  25.020  0.00  0.00    -0.003 C 
ATOM     50  C   UNL     1       3.124   3.715  23.830  0.00  0.00    +0.004 C 
ENDBRANCH  48  49
ENDBRANCH  47  48
ENDBRANCH  46  47
ENDBRANCH  45  46
ENDBRANCH  44  45
ENDBRANCH  43  44
ENDBRANCH  42  43
ENDBRANCH  41  42
ENDBRANCH  40  41
ENDBRANCH  39  40
ENDBRANCH  38  39
ENDBRANCH  37  38
ENDBRANCH  36  37
ENDBRANCH  34  36
ENDBRANCH  33  34
ENDBRANCH   1  33
TORSDOF 40
ENDMDL
MODEL 4
REMARK VINA RESULT:      -4.5      1.308      3.084
REMARK  Name = 
REMARK  45 active torsions:
REMARK  status: ('A' for Active; 'I' for Inactive)
REMARK    1  A    between atoms: C_1  and  C_2
REMARK    2  A    between atoms: C_2  and  C_3
REMARK    3  A    between atoms: C_3  and  C_4
REMARK    4  A    between atoms: C_4  and  C_5
REMARK    5  A    between atoms: C_5  and  C_6
REMARK    6  A    between atoms: C_6  and  C_7
REMARK    7  A    between atoms: C_7  and  C_8
REMARK    8  A    between atoms: C_8  and  C_9
REMARK    9  A    between atoms: C_9  and  C_10
REMARK   10  A    between atoms: C_10  and  C_11
REMARK   11  A    between atoms: C_11  and  C_12
REMARK   12  A    between atoms: C_12  and  C_13
REMARK   13  A    between atoms: C_13  and  C_14
REMARK   14  A    between atoms: C_14  and  C_15
REMARK   15  A    between atoms: C_15  and  C_16
REMARK   16  A    between atoms: C_16  and  O_18
REMARK   17  A    between atoms: O_18  and  C_19
REMARK   18  A    between atoms: C_19  and  C_20
REMARK   19  A    between atoms: C_20  and  C_22
REMARK   20  A    between atoms: C_20  and  O_34
REMARK   21  A    between atoms: C_22  and  O_23
REMARK   22  A    between atoms: O_23  and  P_24
REMARK   23  A    between atoms: P_24  and  O_27
REMARK   24  A    between atoms: O_27  and  C_28
REMARK   25  A    between atoms: C_28  and  C_29
REMARK   26  A    between atoms: C_29  and  N_30
REMARK   27  A    between atoms: N_30  and  C_31
REMARK   28  A    between atoms: N_30  and  C_32
REMARK   29  A    between atoms: N_30  and  C_33
REMARK   30  A    between atoms: O_34  and  C_35
REMARK   31  A    between atoms: C_35  and  C_37
REMARK   32  A    between atoms: C_37  and  C_38
REMARK   33  A    between atoms: C_38  and  C_39
REMARK   34  A    between atoms: C_39  and  C_40
REMARK   35  A    between atoms: C_40  and  C_41
REMARK   36  A    between atoms: C_41  and  C_42
REMARK   37  A    between atoms: C_42  and  C_43
REMARK   38  A    between atoms: C_43  and  C_44
REMARK   39  A    between atoms: C_44  and  C_45
REMARK   40  A    between atoms: C_45  and  C_46
REMARK   41  A    between atoms: C_46  and  C_47
REMARK   42  A    between atoms: C_47  and  C_48
REMARK   43  A    between atoms: C_48  and  C_49
REMARK   44  A    between atoms: C_49  and  C_50
REMARK   45  A    between atoms: C_50  and  C_51
REMARK                            x       y       z     vdW  Elec       q    Type
REMARK                         _______ _______ _______ _____ _____    ______ ____
ROOT
ATOM      1  C   UNL     1       5.036  -5.271  24.811  0.00  0.00    +0.240 C 
ENDROOT
BRANCH   1   2
ATOM      2  C   UNL     1       4.983  -6.429  25.808  0.00  0.00    +0.216 C 
BRANCH   2   3
ATOM      3  O   UNL     1       6.160  -6.484  26.585  0.00  0.00    -0.324 OA
BRANCH   3   4
ATOM      4  P   UNL     1       5.935  -5.853  28.180  0.00  0.00    +0.213 P 
ATOM      5  O   UNL     1       6.868  -4.677  27.899  0.00  0.00    -0.517 OA
ATOM      6  O   UNL     1       6.437  -7.171  28.769  0.00  0.00    -0.437 OA
BRANCH   4   7
ATOM      7  O   UNL     1       5.709  -5.221  29.775  0.00  0.00    -0.322 OA
BRANCH   7   8
ATOM      8  C   UNL     1       4.338  -4.952  30.018  0.00  0.00    +0.218 C 
BRANCH   8   9
ATOM      9  C   UNL     1       3.526  -5.298  28.785  0.00  0.00    +0.161 C 
BRANCH   9  10
ATOM     10  N   UNL     1       2.297  -6.210  29.057  0.00  0.00    +0.239 N 
ATOM     11  C   UNL     1       2.767  -7.347  29.943  0.00  0.00    +0.192 C 
ATOM     12  C   UNL     1       1.728  -6.760  27.766  0.00  0.00    +0.192 C 
ATOM     13  C   UNL     1       1.204  -5.427  29.801  0.00  0.00    +0.192 C 
ENDBRANCH   9  10
ENDBRANCH   8   9
ENDBRANCH   7   8
ENDBRANCH   4   7
ENDBRANCH   3   4
ENDBRANCH   2   3
ENDBRANCH   1   2
BRANCH   1  14
ATOM     14  C   UNL     1       5.680  -5.670  23.474  0.00  0.00    +0.279 C 
BRANCH  14  15
ATOM     15  O   UNL     1       6.749  -4.793  23.096  0.00  0.00    -0.461 OA
BRANCH  15  16
ATOM     16  C   UNL     1       6.383  -3.589  22.570  0.00  0.00    +0.307 C 
ATOM     17  O   UNL     1       5.479  -3.421  21.757  0.00  0.00    -0.251 OA
BRANCH  16  18
ATOM     18  C   UNL     1       7.164  -2.465  23.206  0.00  0.00    +0.120 C 
BRANCH  18  19
ATOM     19  C   UNL     1       6.519  -1.130  22.851  0.00  0.00    +0.011 C 
BRANCH  19  20
ATOM     20  C   UNL     1       6.569  -0.133  24.007  0.00  0.00    +0.001 C 
BRANCH  20  21
ATOM     21  C   UNL     1       7.566  -0.598  25.068  0.00  0.00    +0.000 C 
BRANCH  21  22
ATOM     22  C   UNL     1       8.637   0.455  25.338  0.00  0.00    +0.000 C 
BRANCH  22  23
ATOM     23  C   UNL     1      10.035  -0.137  25.163  0.00  0.00    +0.000 C 
BRANCH  23  24
ATOM     24  C   UNL     1      10.694   0.388  23.892  0.00  0.00    -0.000 C 
BRANCH  24  25
ATOM     25  C   UNL     1      10.310  -0.464  22.685  0.00  0.00    -0.000 C 
BRANCH  25  26
ATOM     26  C   UNL     1       9.605   0.382  21.629  0.00  0.00    -0.000 C 
BRANCH  26  27
ATOM     27  C   UNL     1       9.657   1.863  21.992  0.00  0.00    -0.000 C 
BRANCH  27  28
ATOM     28  C   UNL     1       8.250   2.447  22.088  0.00  0.00    -0.000 C 
BRANCH  28  29
ATOM     29  C   UNL     1       8.233   3.691  22.974  0.00  0.00    -0.000 C 
BRANCH  29  30
ATOM     30  C   UNL     1       9.515   3.789  23.798  0.00  0.00    -0.000 C 
BRANCH  30  32
ATOM     31  C   UNL     1       9.104   6.216  23.294  0.00  0.00    +0.004 C 
ATOM     32  C   UNL     1       9.785   5.229  24.227  0.00  0.00    -0.003 C 
ENDBRANCH  30  32
ENDBRANCH  29  30
ENDBRANCH  28  29
ENDBRANCH  27  28
ENDBRANCH  26  27
ENDBRANCH  25  26
ENDBRANCH  24  25
ENDBRANCH  23  24
ENDBRANCH  22  23
ENDBRANCH  21  22
ENDBRANCH  20  21
ENDBRANCH  19  20
ENDBRANCH  18  19
ENDBRANCH  16  18
ENDBRANCH  15  16
ENDBRANCH  14  15
ENDBRANCH   1  14
BRANCH   1  33
ATOM     33  O   UNL     1       3.686  -4.831  24.514  0.00  0.00    -0.456 OA
BRANCH  33  34
ATOM     34  C   UNL     1       3.265  -3.725  25.178  0.00  0.00    +0.308 C 
ATOM     35  O   UNL     1       2.105  -3.462  25.464  0.00  0.00    -0.251 OA
BRANCH  34  36
ATOM     36  C   UNL     1       4.428  -2.858  25.573  0.00  0.00    +0.120 C 
BRANCH  36  37
ATOM     37  C   UNL     1       4.108  -2.198  26.905  0.00  0.00    +0.011 C 
BRANCH  37  38
ATOM     38  C   UNL     1       4.371  -0.698  26.883  0.00  0.00    +0.001 C 
BRANCH  38  39
ATOM     39  C   UNL     1       5.177  -0.300  28.116  0.00  0.00    +0.000 C 
BRANCH  39  40
ATOM     40  C   UNL     1       5.951   0.990  27.883  0.00  0.00    +0.000 C 
BRANCH  40  41
ATOM     41  C   UNL     1       5.040   2.055  27.283  0.00  0.00    +0.000 C 
BRANCH  41  42
ATOM     42  C   UNL     1       5.725   2.752  26.115  0.00  0.00    -0.000 C 
BRANCH  42  43
ATOM     43  C   UNL     1       6.911   3.579  26.597  0.00  0.00    -0.000 C 
BRANCH  43  44
ATOM     44  C   UNL     1       6.739   5.040  26.195  0.00  0.00    -0.000 C 
BRANCH  44  45
ATOM     45  C   UNL     1       5.264   5.388  26.028  0.00  0.00    -0.000 C 
BRANCH  45  46
ATOM     46  C   UNL     1       5.085   6.478  24.978  0.00  0.00    -0.000 C 
BRANCH  46  47
ATOM     47  C   UNL     1       5.538   5.992  23.605  0.00  0.00    -0.000 C 
BRANCH  47  48
ATOM     48  C   UNL     1       4.364   5.426  22.814  0.00  0.00    -0.000 C 
BRANCH  48  49
ATOM     49  C   UNL     1       4.490   3.914  22.647  0.00  0.00    -0.003 C 
ATOM     50  C   UNL     1       3.401   3.185  23.415  0.00  0.00    +0.004 C 
ENDBRANCH  48  49
ENDBRANCH  47  48
ENDBRANCH  46  47
ENDBRANCH  45  46
ENDBRANCH  44  45
ENDBRANCH  43  44
ENDBRANCH  42  43
ENDBRANCH  41  42
ENDBRANCH  40  41
ENDBRANCH  39  40
ENDBRANCH  38  39
ENDBRANCH  37  38
ENDBRANCH  36  37
ENDBRANCH  34  36
ENDBRANCH  33  34
ENDBRANCH   1  33
TORSDOF 40
ENDMDL
MODEL 5
REMARK VINA RESULT:      -4.5      1.867      4.136
REMARK  Name = 
REMARK  45 active torsions:
REMARK  status: ('A' for Active; 'I' for Inactive)
REMARK    1  A    between atoms: C_1  and  C_2
REMARK    2  A    between atoms: C_2  and  C_3
REMARK    3  A    between atoms: C_3  and  C_4
REMARK    4  A    between atoms: C_4  and  C_5
REMARK    5  A    between atoms: C_5  and  C_6
REMARK    6  A    between atoms: C_6  and  C_7
REMARK    7  A    between atoms: C_7  and  C_8
REMARK    8  A    between atoms: C_8  and  C_9
REMARK    9  A    between atoms: C_9  and  C_10
REMARK   10  A    between atoms: C_10  and  C_11
REMARK   11  A    between atoms: C_11  and  C_12
REMARK   12  A    between atoms: C_12  and  C_13
REMARK   13  A    between atoms: C_13  and  C_14
REMARK   14  A    between atoms: C_14  and  C_15
REMARK   15  A    between atoms: C_15  and  C_16
REMARK   16  A    between atoms: C_16  and  O_18
REMARK   17  A    between atoms: O_18  and  C_19
REMARK   18  A    between atoms: C_19  and  C_20
REMARK   19  A    between atoms: C_20  and  C_22
REMARK   20  A    between atoms: C_20  and  O_34
REMARK   21  A    between atoms: C_22  and  O_23
REMARK   22  A    between atoms: O_23  and  P_24
REMARK   23  A    between atoms: P_24  and  O_27
REMARK   24  A    between atoms: O_27  and  C_28
REMARK   25  A    between atoms: C_28  and  C_29
REMARK   26  A    between atoms: C_29  and  N_30
REMARK   27  A    between atoms: N_30  and  C_31
REMARK   28  A    between atoms: N_30  and  C_32
REMARK   29  A    between atoms: N_30  and  C_33
REMARK   30  A    between atoms: O_34  and  C_35
REMARK   31  A    between atoms: C_35  and  C_37
REMARK   32  A    between atoms: C_37  and  C_38
REMARK   33  A    between atoms: C_38  and  C_39
REMARK   34  A    between atoms: C_39  and  C_40
REMARK   35  A    between atoms: C_40  and  C_41
REMARK   36  A    between atoms: C_41  and  C_42
REMARK   37  A    between atoms: C_42  and  C_43
REMARK   38  A    between atoms: C_43  and  C_44
REMARK   39  A    between atoms: C_44  and  C_45
REMARK   40  A    between atoms: C_45  and  C_46
REMARK   41  A    between atoms: C_46  and  C_47
REMARK   42  A    between atoms: C_47  and  C_48
REMARK   43  A    between atoms: C_48  and  C_49
REMARK   44  A    between atoms: C_49  and  C_50
REMARK   45  A    between atoms: C_50  and  C_51
REMARK                            x       y       z     vdW  Elec       q    Type
REMARK                         _______ _______ _______ _____ _____    ______ ____
ROOT
ATOM      1  C   UNL     1       6.969  -3.623  26.739  0.00  0.00    +0.240 C 
ENDROOT
BRANCH   1   2
ATOM      2  C   UNL     1       7.279  -5.063  27.145  0.00  0.00    +0.216 C 
BRANCH   2   3
ATOM      3  O   UNL     1       6.842  -5.325  28.462  0.00  0.00    -0.324 OA
BRANCH   3   4
ATOM      4  P   UNL     1       5.373  -6.237  28.506  0.00  0.00    +0.213 P 
ATOM      5  O   UNL     1       5.619  -6.793  27.105  0.00  0.00    -0.517 OA
ATOM      6  O   UNL     1       4.585  -4.949  28.747  0.00  0.00    -0.437 OA
BRANCH   4   7
ATOM      7  O   UNL     1       3.903  -7.150  28.550  0.00  0.00    -0.322 OA
BRANCH   7   8
ATOM      8  C   UNL     1       2.784  -6.307  28.329  0.00  0.00    +0.218 C 
BRANCH   8   9
ATOM      9  C   UNL     1       1.801  -6.998  27.405  0.00  0.00    +0.161 C 
BRANCH   9  10
ATOM     10  N   UNL     1       1.988  -6.664  25.899  0.00  0.00    +0.239 N 
ATOM     11  C   UNL     1       0.606  -6.598  25.278  0.00  0.00    +0.192 C 
ATOM     12  C   UNL     1       2.819  -7.721  25.202  0.00  0.00    +0.192 C 
ATOM     13  C   UNL     1       2.666  -5.295  25.735  0.00  0.00    +0.192 C 
ENDBRANCH   9  10
ENDBRANCH   8   9
ENDBRANCH   7   8
ENDBRANCH   4   7
ENDBRANCH   3   4
ENDBRANCH   2   3
ENDBRANCH   1   2
BRANCH   1  14
ATOM     14  C   UNL     1       8.132  -2.956  25.987  0.00  0.00    +0.279 C 
BRANCH  14  15
ATOM     15  O   UNL     1       8.842  -2.012  26.800  0.00  0.00    -0.461 OA
BRANCH  15  16
ATOM     16  C   UNL     1       8.414  -0.719  26.735  0.00  0.00    +0.307 C 
ATOM     17  O   UNL     1       7.918  -0.094  27.668  0.00  0.00    -0.251 OA
BRANCH  16  18
ATOM     18  C   UNL     1       8.733  -0.114  25.390  0.00  0.00    +0.120 C 
BRANCH  18  19
ATOM     19  C   UNL     1      10.192  -0.385  25.041  0.00  0.00    +0.011 C 
BRANCH  19  20
ATOM     20  C   UNL     1      10.929   0.877  24.596  0.00  0.00    +0.001 C 
BRANCH  20  21
ATOM     21  C   UNL     1       9.953   2.047  24.473  0.00  0.00    +0.000 C 
BRANCH  21  22
ATOM     22  C   UNL     1      10.186   2.846  23.193  0.00  0.00    +0.000 C 
BRANCH  22  23
ATOM     23  C   UNL     1      10.087   1.942  21.965  0.00  0.00    +0.000 C 
BRANCH  23  24
ATOM     24  C   UNL     1       8.636   1.771  21.530  0.00  0.00    -0.000 C 
BRANCH  24  25
ATOM     25  C   UNL     1       8.223   0.301  21.563  0.00  0.00    -0.000 C 
BRANCH  25  26
ATOM     26  C   UNL     1       9.442  -0.605  21.423  0.00  0.00    -0.000 C 
BRANCH  26  27
ATOM     27  C   UNL     1       9.196  -1.957  22.086  0.00  0.00    -0.000 C 
BRANCH  27  28
ATOM     28  C   UNL     1       7.717  -2.141  22.410  0.00  0.00    -0.000 C 
BRANCH  28  29
ATOM     29  C   UNL     1       7.363  -3.621  22.535  0.00  0.00    -0.000 C 
BRANCH  29  30
ATOM     30  C   UNL     1       6.088  -3.943  21.759  0.00  0.00    -0.000 C 
BRANCH  30  32
ATOM     31  C   UNL     1       7.121  -6.225  21.958  0.00  0.00    +0.004 C 
ATOM     32  C   UNL     1       6.129  -5.362  21.197  0.00  0.00    -0.003 C 
ENDBRANCH  30  32
ENDBRANCH  29  30
ENDBRANCH  28  29
ENDBRANCH  27  28
ENDBRANCH  26  27
ENDBRANCH  25  26
ENDBRANCH  24  25
ENDBRANCH  23  24
ENDBRANCH  22  23
ENDBRANCH  21  22
ENDBRANCH  20  21
ENDBRANCH  19  20
ENDBRANCH  18  19
ENDBRANCH  16  18
ENDBRANCH  15  16
ENDBRANCH  14  15
ENDBRANCH   1  14
BRANCH   1  33
ATOM     33  O   UNL     1       5.827  -3.611  25.844  0.00  0.00    -0.456 OA
BRANCH  33  34
ATOM     34  C   UNL     1       5.213  -2.412  25.685  0.00  0.00    +0.308 C 
ATOM     35  O   UNL     1       4.916  -1.898  24.615  0.00  0.00    -0.251 OA
BRANCH  34  36
ATOM     36  C   UNL     1       4.887  -1.792  27.015  0.00  0.00    +0.120 C 
BRANCH  36  37
ATOM     37  C   UNL     1       3.427  -1.365  27.004  0.00  0.00    +0.011 C 
BRANCH  37  38
ATOM     38  C   UNL     1       3.266   0.140  27.174  0.00  0.00    +0.001 C 
BRANCH  38  39
ATOM     39  C   UNL     1       4.616   0.825  26.987  0.00  0.00    +0.000 C 
BRANCH  39  40
ATOM     40  C   UNL     1       4.571   1.849  25.862  0.00  0.00    +0.000 C 
BRANCH  40  41
ATOM     41  C   UNL     1       5.569   1.482  24.769  0.00  0.00    +0.000 C 
BRANCH  41  42
ATOM     42  C   UNL     1       6.371   2.703  24.341  0.00  0.00    -0.000 C 
BRANCH  42  43
ATOM     43  C   UNL     1       5.753   3.352  23.107  0.00  0.00    -0.000 C 
BRANCH  43  44
ATOM     44  C   UNL     1       6.538   4.598  22.712  0.00  0.00    -0.000 C 
BRANCH  44  45
ATOM     45  C   UNL     1       6.042   5.818  23.479  0.00  0.00    -0.000 C 
BRANCH  45  46
ATOM     46  C   UNL     1       7.215   6.672  23.946  0.00  0.00    -0.000 C 
BRANCH  46  47
ATOM     47  C   UNL     1       7.690   6.237  25.329  0.00  0.00    -0.000 C 
BRANCH  47  48
ATOM     48  C   UNL     1       9.153   5.808  25.292  0.00  0.00    -0.000 C 
BRANCH  48  49
ATOM     49  C   UNL     1       9.851   6.340  24.044  0.00  0.00    -0.003 C 
ATOM     50  C   UNL     1      11.351   6.111  24.116  0.00  0.00    +0.004 C 
ENDBRANCH  48  49
ENDBRANCH  47  48
ENDBRANCH  46  47
ENDBRANCH  45  46
ENDBRANCH  44  45
ENDBRANCH  43  44
ENDBRANCH  42  43
ENDBRANCH  41  42
ENDBRANCH  40  41
ENDBRANCH  39  40
ENDBRANCH  38  39
ENDBRANCH  37  38
ENDBRANCH  36  37
ENDBRANCH  34  36
ENDBRANCH  33  34
ENDBRANCH   1  33
TORSDOF 40
ENDMDL
MODEL 6
REMARK VINA RESULT:      -4.5      2.047      5.366
REMARK  Name = 
REMARK  45 active torsions:
REMARK  status: ('A' for Active; 'I' for Inactive)
REMARK    1  A    between atoms: C_1  and  C_2
REMARK    2  A    between atoms: C_2  and  C_3
REMARK    3  A    between atoms: C_3  and  C_4
REMARK    4  A    between atoms: C_4  and  C_5
REMARK    5  A    between atoms: C_5  and  C_6
REMARK    6  A    between atoms: C_6  and  C_7
REMARK    7  A    between atoms: C_7  and  C_8
REMARK    8  A    between atoms: C_8  and  C_9
REMARK    9  A    between atoms: C_9  and  C_10
REMARK   10  A    between atoms: C_10  and  C_11
REMARK   11  A    between atoms: C_11  and  C_12
REMARK   12  A    between atoms: C_12  and  C_13
REMARK   13  A    between atoms: C_13  and  C_14
REMARK   14  A    between atoms: C_14  and  C_15
REMARK   15  A    between atoms: C_15  and  C_16
REMARK   16  A    between atoms: C_16  and  O_18
REMARK   17  A    between atoms: O_18  and  C_19
REMARK   18  A    between atoms: C_19  and  C_20
REMARK   19  A    between atoms: C_20  and  C_22
REMARK   20  A    between atoms: C_20  and  O_34
REMARK   21  A    between atoms: C_22  and  O_23
REMARK   22  A    between atoms: O_23  and  P_24
REMARK   23  A    between atoms: P_24  and  O_27
REMARK   24  A    between atoms: O_27  and  C_28
REMARK   25  A    between atoms: C_28  and  C_29
REMARK   26  A    between atoms: C_29  and  N_30
REMARK   27  A    between atoms: N_30  and  C_31
REMARK   28  A    between atoms: N_30  and  C_32
REMARK   29  A    between atoms: N_30  and  C_33
REMARK   30  A    between atoms: O_34  and  C_35
REMARK   31  A    between atoms: C_35  and  C_37
REMARK   32  A    between atoms: C_37  and  C_38
REMARK   33  A    between atoms: C_38  and  C_39
REMARK   34  A    between atoms: C_39  and  C_40
REMARK   35  A    between atoms: C_40  and  C_41
REMARK   36  A    between atoms: C_41  and  C_42
REMARK   37  A    between atoms: C_42  and  C_43
REMARK   38  A    between atoms: C_43  and  C_44
REMARK   39  A    between atoms: C_44  and  C_45
REMARK   40  A    between atoms: C_45  and  C_46
REMARK   41  A    between atoms: C_46  and  C_47
REMARK   42  A    between atoms: C_47  and  C_48
REMARK   43  A    between atoms: C_48  and  C_49
REMARK   44  A    between atoms: C_49  and  C_50
REMARK   45  A    between atoms: C_50  and  C_51
REMARK                            x       y       z     vdW  Elec       q    Type
REMARK                         _______ _______ _______ _____ _____    ______ ____
ROOT
ATOM      1  C   UNL     1       8.145  -3.066  25.250  0.00  0.00    +0.240 C 
ENDROOT
BRANCH   1   2
ATOM      2  C   UNL     1       8.156  -3.900  26.531  0.00  0.00    +0.216 C 
BRANCH   2   3
ATOM      3  O   UNL     1       6.915  -3.819  27.200  0.00  0.00    -0.324 OA
BRANCH   3   4
ATOM      4  P   UNL     1       6.113  -5.349  27.299  0.00  0.00    +0.213 P 
ATOM      5  O   UNL     1       5.008  -4.768  28.178  0.00  0.00    -0.517 OA
ATOM      6  O   UNL     1       7.380  -5.972  27.886  0.00  0.00    -0.437 OA
BRANCH   4   7
ATOM      7  O   UNL     1       5.310  -6.879  27.398  0.00  0.00    -0.322 OA
BRANCH   7   8
ATOM      8  C   UNL     1       4.324  -6.993  26.385  0.00  0.00    +0.218 C 
BRANCH   8   9
ATOM      9  C   UNL     1       4.888  -6.497  25.068  0.00  0.00    +0.161 C 
BRANCH   9  10
ATOM     10  N   UNL     1       3.859  -5.774  24.156  0.00  0.00    +0.239 N 
ATOM     11  C   UNL     1       2.805  -6.793  23.770  0.00  0.00    +0.192 C 
ATOM     12  C   UNL     1       4.523  -5.219  22.913  0.00  0.00    +0.192 C 
ATOM     13  C   UNL     1       3.178  -4.629  24.922  0.00  0.00    +0.192 C 
ENDBRANCH   9  10
ENDBRANCH   8   9
ENDBRANCH   7   8
ENDBRANCH   4   7
ENDBRANCH   3   4
ENDBRANCH   2   3
ENDBRANCH   1   2
BRANCH   1  14
ATOM     14  C   UNL     1       9.209  -3.520  24.239  0.00  0.00    +0.279 C 
BRANCH  14  15
ATOM     15  O   UNL     1      10.167  -2.493  23.951  0.00  0.00    -0.461 OA
BRANCH  15  16
ATOM     16  C   UNL     1       9.918  -1.728  22.850  0.00  0.00    +0.307 C 
ATOM     17  O   UNL     1       9.482  -2.151  21.782  0.00  0.00    -0.251 OA
BRANCH  16  18
ATOM     18  C   UNL     1      10.141  -0.266  23.149  0.00  0.00    +0.120 C 
BRANCH  18  19
ATOM     19  C   UNL     1       9.802   0.565  21.917  0.00  0.00    +0.011 C 
BRANCH  19  20
ATOM     20  C   UNL     1       9.958   2.065  22.163  0.00  0.00    +0.001 C 
BRANCH  20  21
ATOM     21  C   UNL     1       8.633   2.667  22.632  0.00  0.00    +0.000 C 
BRANCH  21  22
ATOM     22  C   UNL     1       7.446   2.085  21.869  0.00  0.00    +0.000 C 
BRANCH  22  23
ATOM     23  C   UNL     1       6.142   2.752  22.305  0.00  0.00    +0.000 C 
BRANCH  23  24
ATOM     24  C   UNL     1       6.334   4.253  22.493  0.00  0.00    -0.000 C 
BRANCH  24  25
ATOM     25  C   UNL     1       5.729   4.721  23.814  0.00  0.00    -0.000 C 
BRANCH  25  26
ATOM     26  C   UNL     1       6.682   5.665  24.542  0.00  0.00    -0.000 C 
BRANCH  26  27
ATOM     27  C   UNL     1       7.540   4.905  25.549  0.00  0.00    -0.000 C 
BRANCH  27  28
ATOM     28  C   UNL     1       9.017   5.232  25.359  0.00  0.00    -0.000 C 
BRANCH  28  29
ATOM     29  C   UNL     1       9.242   6.017  24.068  0.00  0.00    -0.000 C 
BRANCH  29  30
ATOM     30  C   UNL     1      10.731   6.273  23.840  0.00  0.00    -0.000 C 
BRANCH  30  32
ATOM     31  C   UNL     1      12.821   5.198  22.951  0.00  0.00    +0.004 C 
ATOM     32  C   UNL     1      11.491   4.964  23.648  0.00  0.00    -0.003 C 
ENDBRANCH  30  32
ENDBRANCH  29  30
ENDBRANCH  28  29
ENDBRANCH  27  28
ENDBRANCH  26  27
ENDBRANCH  25  26
ENDBRANCH  24  25
ENDBRANCH  23  24
ENDBRANCH  22  23
ENDBRANCH  21  22
ENDBRANCH  20  21
ENDBRANCH  19  20
ENDBRANCH  18  19
ENDBRANCH  16  18
ENDBRANCH  15  16
ENDBRANCH  14  15
ENDBRANCH   1  14
BRANCH   1  33
ATOM     33  O   UNL     1       6.857  -3.205  24.598  0.00  0.00    -0.456 OA
BRANCH  33  34
ATOM     34  C   UNL     1       6.342  -2.072  24.058  0.00  0.00    +0.308 C 
ATOM     35  O   UNL     1       6.404  -1.751  22.879  0.00  0.00    -0.251 OA
BRANCH  34  36
ATOM     36  C   UNL     1       5.626  -1.256  25.097  0.00  0.00    +0.120 C 
BRANCH  36  37
ATOM     37  C   UNL     1       5.949   0.212  24.866  0.00  0.00    +0.011 C 
BRANCH  37  38
ATOM     38  C   UNL     1       7.282   0.613  25.483  0.00  0.00    +0.001 C 
BRANCH  38  39
ATOM     39  C   UNL     1       7.038   1.498  26.702  0.00  0.00    +0.000 C 
BRANCH  39  40
ATOM     40  C   UNL     1       6.913   0.672  27.974  0.00  0.00    +0.000 C 
BRANCH  40  41
ATOM     41  C   UNL     1       7.238   1.525  29.195  0.00  0.00    +0.000 C 
BRANCH  41  42
ATOM     42  C   UNL     1       5.965   1.903  29.941  0.00  0.00    -0.000 C 
BRANCH  42  43
ATOM     43  C   UNL     1       5.848   3.417  30.080  0.00  0.00    -0.000 C 
BRANCH  43  44
ATOM     44  C   UNL     1       4.596   3.921  29.371  0.00  0.00    -0.000 C 
BRANCH  44  45
ATOM     45  C   UNL     1       4.889   4.235  27.908  0.00  0.00    -0.000 C 
BRANCH  45  46
ATOM     46  C   UNL     1       3.628   4.088  27.064  0.00  0.00    -0.000 C 
BRANCH  46  47
ATOM     47  C   UNL     1       3.679   2.814  26.227  0.00  0.00    -0.000 C 
BRANCH  47  48
ATOM     48  C   UNL     1       2.656   1.796  26.723  0.00  0.00    -0.000 C 
BRANCH  48  49
ATOM     49  C   UNL     1       3.285   0.824  27.717  0.00  0.00    -0.003 C 
ATOM     50  C   UNL     1       2.856  -0.605  27.431  0.00  0.00    +0.004 C 
ENDBRANCH  48  49
ENDBRANCH  47  48
ENDBRANCH  46  47
ENDBRANCH  45  46
ENDBRANCH  44  45
ENDBRANCH  43  44
ENDBRANCH  42  43
ENDBRANCH  41  42
ENDBRANCH  40  41
ENDBRANCH  39  40
ENDBRANCH  38  39
ENDBRANCH  37  38
ENDBRANCH  36  37
ENDBRANCH  34  36
ENDBRANCH  33  34
ENDBRANCH   1  33
TORSDOF 40
ENDMDL
MODEL 7
REMARK VINA RESULT:      -4.5      2.722      6.686
REMARK  Name = 
REMARK  45 active torsions:
REMARK  status: ('A' for Active; 'I' for Inactive)
REMARK    1  A    between atoms: C_1  and  C_2
REMARK    2  A    between atoms: C_2  and  C_3
REMARK    3  A    between atoms: C_3  and  C_4
REMARK    4  A    between atoms: C_4  and  C_5
REMARK    5  A    between atoms: C_5  and  C_6
REMARK    6  A    between atoms: C_6  and  C_7
REMARK    7  A    between atoms: C_7  and  C_8
REMARK    8  A    between atoms: C_8  and  C_9
REMARK    9  A    between atoms: C_9  and  C_10
REMARK   10  A    between atoms: C_10  and  C_11
REMARK   11  A    between atoms: C_11  and  C_12
REMARK   12  A    between atoms: C_12  and  C_13
REMARK   13  A    between atoms: C_13  and  C_14
REMARK   14  A    between atoms: C_14  and  C_15
REMARK   15  A    between atoms: C_15  and  C_16
REMARK   16  A    between atoms: C_16  and  O_18
REMARK   17  A    between atoms: O_18  and  C_19
REMARK   18  A    between atoms: C_19  and  C_20
REMARK   19  A    between atoms: C_20  and  C_22
REMARK   20  A    between atoms: C_20  and  O_34
REMARK   21  A    between atoms: C_22  and  O_23
REMARK   22  A    between atoms: O_23  and  P_24
REMARK   23  A    between atoms: P_24  and  O_27
REMARK   24  A    between atoms: O_27  and  C_28
REMARK   25  A    between atoms: C_28  and  C_29
REMARK   26  A    between atoms: C_29  and  N_30
REMARK   27  A    between atoms: N_30  and  C_31
REMARK   28  A    between atoms: N_30  and  C_32
REMARK   29  A    between atoms: N_30  and  C_33
REMARK   30  A    between atoms: O_34  and  C_35
REMARK   31  A    between atoms: C_35  and  C_37
REMARK   32  A    between atoms: C_37  and  C_38
REMARK   33  A    between atoms: C_38  and  C_39
REMARK   34  A    between atoms: C_39  and  C_40
REMARK   35  A    between atoms: C_40  and  C_41
REMARK   36  A    between atoms: C_41  and  C_42
REMARK   37  A    between atoms: C_42  and  C_43
REMARK   38  A    between atoms: C_43  and  C_44
REMARK   39  A    between atoms: C_44  and  C_45
REMARK   40  A    between atoms: C_45  and  C_46
REMARK   41  A    between atoms: C_46  and  C_47
REMARK   42  A    between atoms: C_47  and  C_48
REMARK   43  A    between atoms: C_48  and  C_49
REMARK   44  A    between atoms: C_49  and  C_50
REMARK   45  A    between atoms: C_50  and  C_51
REMARK                            x       y       z     vdW  Elec       q    Type
REMARK                         _______ _______ _______ _____ _____    ______ ____
ROOT
ATOM      1  C   UNL     1       6.021  -1.598  26.942  0.00  0.00    +0.240 C 
ENDROOT
BRANCH   1   2
ATOM      2  C   UNL     1       4.672  -1.157  26.374  0.00  0.00    +0.216 C 
BRANCH   2   3
ATOM      3  O   UNL     1       4.841  -0.221  25.331  0.00  0.00    -0.324 OA
BRANCH   3   4
ATOM      4  P   UNL     1       4.647   1.413  25.866  0.00  0.00    +0.213 P 
ATOM      5  O   UNL     1       3.320   1.084  26.547  0.00  0.00    -0.517 OA
ATOM      6  O   UNL     1       4.723   1.892  24.416  0.00  0.00    -0.437 OA
BRANCH   4   7
ATOM      7  O   UNL     1       4.453   3.046  26.401  0.00  0.00    -0.322 OA
BRANCH   7   8
ATOM      8  C   UNL     1       5.621   3.498  27.068  0.00  0.00    +0.218 C 
BRANCH   8   9
ATOM      9  C   UNL     1       6.361   2.312  27.655  0.00  0.00    +0.161 C 
BRANCH   9  10
ATOM     10  N   UNL     1       6.478   2.327  29.204  0.00  0.00    +0.239 N 
ATOM     11  C   UNL     1       5.132   1.906  29.761  0.00  0.00    +0.192 C 
ATOM     12  C   UNL     1       6.841   3.707  29.712  0.00  0.00    +0.192 C 
ATOM     13  C   UNL     1       7.540   1.319  29.670  0.00  0.00    +0.192 C 
ENDBRANCH   9  10
ENDBRANCH   8   9
ENDBRANCH   7   8
ENDBRANCH   4   7
ENDBRANCH   3   4
ENDBRANCH   2   3
ENDBRANCH   1   2
BRANCH   1  14
ATOM     14  C   UNL     1       6.002  -3.047  27.455  0.00  0.00    +0.279 C 
BRANCH  14  15
ATOM     15  O   UNL     1       6.581  -3.968  26.522  0.00  0.00    -0.461 OA
BRANCH  15  16
ATOM     16  C   UNL     1       7.531  -4.811  27.018  0.00  0.00    +0.307 C 
ATOM     17  O   UNL     1       7.321  -5.713  27.824  0.00  0.00    -0.251 OA
BRANCH  16  18
ATOM     18  C   UNL     1       8.866  -4.564  26.358  0.00  0.00    +0.120 C 
BRANCH  18  19
ATOM     19  C   UNL     1       9.045  -5.529  25.192  0.00  0.00    +0.011 C 
BRANCH  19  20
ATOM     20  C   UNL     1       8.265  -5.098  23.952  0.00  0.00    +0.001 C 
BRANCH  20  21
ATOM     21  C   UNL     1       8.549  -3.630  23.629  0.00  0.00    +0.000 C 
BRANCH  21  22
ATOM     22  C   UNL     1       7.599  -3.092  22.563  0.00  0.00    +0.000 C 
BRANCH  22  23
ATOM     23  C   UNL     1       6.301  -3.898  22.537  0.00  0.00    +0.000 C 
BRANCH  23  24
ATOM     24  C   UNL     1       5.204  -3.192  23.326  0.00  0.00    -0.000 C 
BRANCH  24  25
ATOM     25  C   UNL     1       4.149  -4.185  23.807  0.00  0.00    -0.000 C 
BRANCH  25  26
ATOM     26  C   UNL     1       4.319  -5.533  23.112  0.00  0.00    -0.000 C 
BRANCH  26  27
ATOM     27  C   UNL     1       3.959  -6.680  24.051  0.00  0.00    -0.000 C 
BRANCH  27  28
ATOM     28  C   UNL     1       4.917  -6.732  25.237  0.00  0.00    -0.000 C 
BRANCH  28  29
ATOM     29  C   UNL     1       4.153  -6.736  26.559  0.00  0.00    -0.000 C 
BRANCH  29  30
ATOM     30  C   UNL     1       2.646  -6.791  26.315  0.00  0.00    -0.000 C 
BRANCH  30  32
ATOM     31  C   UNL     1       2.565  -4.410  27.113  0.00  0.00    +0.004 C 
ATOM     32  C   UNL     1       1.910  -5.779  27.188  0.00  0.00    -0.003 C 
ENDBRANCH  30  32
ENDBRANCH  29  30
ENDBRANCH  28  29
ENDBRANCH  27  28
ENDBRANCH  26  27
ENDBRANCH  25  26
ENDBRANCH  24  25
ENDBRANCH  23  24
ENDBRANCH  22  23
ENDBRANCH  21  22
ENDBRANCH  20  21
ENDBRANCH  19  20
ENDBRANCH  18  19
ENDBRANCH  16  18
ENDBRANCH  15  16
ENDBRANCH  14  15
ENDBRANCH   1  14
BRANCH   1  33
ATOM     33  O   UNL     1       7.025  -1.535  25.897  0.00  0.00    -0.456 OA
BRANCH  33  34
ATOM     34  C   UNL     1       8.120  -0.784  26.174  0.00  0.00    +0.308 C 
ATOM     35  O   UNL     1       8.901  -0.975  27.096  0.00  0.00    -0.251 OA
BRANCH  34  36
ATOM     36  C   UNL     1       8.294   0.312  25.160  0.00  0.00    +0.120 C 
BRANCH  36  37
ATOM     37  C   UNL     1       9.778   0.470  24.869  0.00  0.00    +0.011 C 
BRANCH  37  38
ATOM     38  C   UNL     1      10.288  -0.579  23.890  0.00  0.00    +0.001 C 
BRANCH  38  39
ATOM     39  C   UNL     1       9.942  -0.162  22.464  0.00  0.00    +0.000 C 
BRANCH  39  40
ATOM     40  C   UNL     1      10.048   1.345  22.282  0.00  0.00    +0.000 C 
BRANCH  40  41
ATOM     41  C   UNL     1       8.755   1.902  21.698  0.00  0.00    +0.000 C 
BRANCH  41  42
ATOM     42  C   UNL     1       8.139   2.930  22.638  0.00  0.00    -0.000 C 
BRANCH  42  43
ATOM     43  C   UNL     1       6.878   3.533  22.030  0.00  0.00    -0.000 C 
BRANCH  43  44
ATOM     44  C   UNL     1       6.604   4.909  22.628  0.00  0.00    -0.000 C 
BRANCH  44  45
ATOM     45  C   UNL     1       7.213   5.027  24.021  0.00  0.00    -0.000 C 
BRANCH  45  46
ATOM     46  C   UNL     1       8.230   6.161  24.068  0.00  0.00    -0.000 C 
BRANCH  46  47
ATOM     47  C   UNL     1       9.529   5.701  24.721  0.00  0.00    -0.000 C 
BRANCH  47  48
ATOM     48  C   UNL     1      10.727   6.017  23.831  0.00  0.00    -0.000 C 
BRANCH  48  49
ATOM     49  C   UNL     1      11.511   4.753  23.494  0.00  0.00    -0.003 C 
ATOM     50  C   UNL     1      12.938   5.085  23.090  0.00  0.00    +0.004 C 
ENDBRANCH  48  49
ENDBRANCH  47  48
ENDBRANCH  46  47
ENDBRANCH  45  46
ENDBRANCH  44  45
ENDBRANCH  43  44
ENDBRANCH  42  43
ENDBRANCH  41  42
ENDBRANCH  40  41
ENDBRANCH  39  40
ENDBRANCH  38  39
ENDBRANCH  37  38
ENDBRANCH  36  37
ENDBRANCH  34  36
ENDBRANCH  33  34
ENDBRANCH   1  33
TORSDOF 40
ENDMDL
MODEL 8
REMARK VINA RESULT:      -4.4      2.640      5.968
REMARK  Name = 
REMARK  45 active torsions:
REMARK  status: ('A' for Active; 'I' for Inactive)
REMARK    1  A    between atoms: C_1  and  C_2
REMARK    2  A    between atoms: C_2  and  C_3
REMARK    3  A    between atoms: C_3  and  C_4
REMARK    4  A    between atoms: C_4  and  C_5
REMARK    5  A    between atoms: C_5  and  C_6
REMARK    6  A    between atoms: C_6  and  C_7
REMARK    7  A    between atoms: C_7  and  C_8
REMARK    8  A    between atoms: C_8  and  C_9
REMARK    9  A    between atoms: C_9  and  C_10
REMARK   10  A    between atoms: C_10  and  C_11
REMARK   11  A    between atoms: C_11  and  C_12
REMARK   12  A    between atoms: C_12  and  C_13
REMARK   13  A    between atoms: C_13  and  C_14
REMARK   14  A    between atoms: C_14  and  C_15
REMARK   15  A    between atoms: C_15  and  C_16
REMARK   16  A    between atoms: C_16  and  O_18
REMARK   17  A    between atoms: O_18  and  C_19
REMARK   18  A    between atoms: C_19  and  C_20
REMARK   19  A    between atoms: C_20  and  C_22
REMARK   20  A    between atoms: C_20  and  O_34
REMARK   21  A    between atoms: C_22  and  O_23
REMARK   22  A    between atoms: O_23  and  P_24
REMARK   23  A    between atoms: P_24  and  O_27
REMARK   24  A    between atoms: O_27  and  C_28
REMARK   25  A    between atoms: C_28  and  C_29
REMARK   26  A    between atoms: C_29  and  N_30
REMARK   27  A    between atoms: N_30  and  C_31
REMARK   28  A    between atoms: N_30  and  C_32
REMARK   29  A    between atoms: N_30  and  C_33
REMARK   30  A    between atoms: O_34  and  C_35
REMARK   31  A    between atoms: C_35  and  C_37
REMARK   32  A    between atoms: C_37  and  C_38
REMARK   33  A    between atoms: C_38  and  C_39
REMARK   34  A    between atoms: C_39  and  C_40
REMARK   35  A    between atoms: C_40  and  C_41
REMARK   36  A    between atoms: C_41  and  C_42
REMARK   37  A    between atoms: C_42  and  C_43
REMARK   38  A    between atoms: C_43  and  C_44
REMARK   39  A    between atoms: C_44  and  C_45
REMARK   40  A    between atoms: C_45  and  C_46
REMARK   41  A    between atoms: C_46  and  C_47
REMARK   42  A    between atoms: C_47  and  C_48
REMARK   43  A    between atoms: C_48  and  C_49
REMARK   44  A    between atoms: C_49  and  C_50
REMARK   45  A    between atoms: C_50  and  C_51
REMARK                            x       y       z     vdW  Elec       q    Type
REMARK                         _______ _______ _______ _____ _____    ______ ____
ROOT
ATOM      1  C   UNL     1       8.735  -2.346  23.686  0.00  0.00    +0.240 C 
ENDROOT
BRANCH   1   2
ATOM      2  C   UNL     1       8.055  -3.705  23.520  0.00  0.00    +0.216 C 
BRANCH   2   3
ATOM      3  O   UNL     1       7.607  -3.890  22.194  0.00  0.00    -0.324 OA
BRANCH   3   4
ATOM      4  P   UNL     1       6.152  -4.822  22.108  0.00  0.00    +0.213 P 
ATOM      5  O   UNL     1       6.824  -5.882  21.238  0.00  0.00    -0.517 OA
ATOM      6  O   UNL     1       5.421  -3.618  21.511  0.00  0.00    -0.437 OA
BRANCH   4   7
ATOM      7  O   UNL     1       4.696  -5.754  22.022  0.00  0.00    -0.322 OA
BRANCH   7   8
ATOM      8  C   UNL     1       4.107  -5.882  23.307  0.00  0.00    +0.218 C 
BRANCH   8   9
ATOM      9  C   UNL     1       5.193  -5.904  24.364  0.00  0.00    +0.161 C 
BRANCH   9  10
ATOM     10  N   UNL     1       4.765  -5.323  25.740  0.00  0.00    +0.239 N 
ATOM     11  C   UNL     1       3.273  -5.551  25.881  0.00  0.00    +0.192 C 
ATOM     12  C   UNL     1       5.074  -3.843  25.829  0.00  0.00    +0.192 C 
ATOM     13  C   UNL     1       5.485  -6.061  26.880  0.00  0.00    +0.192 C 
ENDBRANCH   9  10
ENDBRANCH   8   9
ENDBRANCH   7   8
ENDBRANCH   4   7
ENDBRANCH   3   4
ENDBRANCH   2   3
ENDBRANCH   1   2
BRANCH   1  14
ATOM     14  C   UNL     1       9.203  -1.751  22.348  0.00  0.00    +0.279 C 
BRANCH  14  15
ATOM     15  O   UNL     1      10.251  -0.786  22.513  0.00  0.00    -0.461 OA
BRANCH  15  16
ATOM     16  C   UNL     1       9.935   0.504  22.206  0.00  0.00    +0.307 C 
ATOM     17  O   UNL     1       9.278   0.856  21.231  0.00  0.00    -0.251 OA
BRANCH  16  18
ATOM     18  C   UNL     1      10.406   1.445  23.289  0.00  0.00    +0.120 C 
BRANCH  18  19
ATOM     19  C   UNL     1       9.468   2.643  23.368  0.00  0.00    +0.011 C 
BRANCH  19  20
ATOM     20  C   UNL     1       8.580   2.609  24.611  0.00  0.00    +0.001 C 
BRANCH  20  21
ATOM     21  C   UNL     1       7.105   2.589  24.209  0.00  0.00    +0.000 C 
BRANCH  21  22
ATOM     22  C   UNL     1       6.930   2.655  22.695  0.00  0.00    +0.000 C 
BRANCH  22  23
ATOM     23  C   UNL     1       5.934   3.749  22.311  0.00  0.00    +0.000 C 
BRANCH  23  24
ATOM     24  C   UNL     1       6.284   5.068  22.993  0.00  0.00    -0.000 C 
BRANCH  24  25
ATOM     25  C   UNL     1       7.393   5.797  22.237  0.00  0.00    -0.000 C 
BRANCH  25  26
ATOM     26  C   UNL     1       8.226   6.649  23.190  0.00  0.00    -0.000 C 
BRANCH  26  27
ATOM     27  C   UNL     1       7.967   6.257  24.641  0.00  0.00    -0.000 C 
BRANCH  27  28
ATOM     28  C   UNL     1       9.278   5.974  25.368  0.00  0.00    -0.000 C 
BRANCH  28  29
ATOM     29  C   UNL     1      10.306   7.068  25.089  0.00  0.00    -0.000 C 
BRANCH  29  30
ATOM     30  C   UNL     1      11.676   6.463  24.790  0.00  0.00    -0.000 C 
BRANCH  30  32
ATOM     31  C   UNL     1      13.012   5.057  23.193  0.00  0.00    +0.004 C 
ATOM     32  C   UNL     1      11.641   5.628  23.513  0.00  0.00    -0.003 C 
ENDBRANCH  30  32
ENDBRANCH  29  30
ENDBRANCH  28  29
ENDBRANCH  27  28
ENDBRANCH  26  27
ENDBRANCH  25  26
ENDBRANCH  24  25
ENDBRANCH  23  24
ENDBRANCH  22  23
ENDBRANCH  21  22
ENDBRANCH  20  21
ENDBRANCH  19  20
ENDBRANCH  18  19
ENDBRANCH  16  18
ENDBRANCH  15  16
ENDBRANCH  14  15
ENDBRANCH   1  14
BRANCH   1  33
ATOM     33  O   UNL     1       7.792  -1.405  24.259  0.00  0.00    -0.456 OA
BRANCH  33  34
ATOM     34  C   UNL     1       8.126  -0.897  25.472  0.00  0.00    +0.308 C 
ATOM     35  O   UNL     1       9.265  -0.708  25.877  0.00  0.00    -0.251 OA
BRANCH  34  36
ATOM     36  C   UNL     1       6.900  -0.539  26.264  0.00  0.00    +0.120 C 
BRANCH  36  37
ATOM     37  C   UNL     1       7.316   0.357  27.420  0.00  0.00    +0.011 C 
BRANCH  37  38
ATOM     38  C   UNL     1       6.320   1.483  27.663  0.00  0.00    +0.001 C 
BRANCH  38  39
ATOM     39  C   UNL     1       7.006   2.623  28.411  0.00  0.00    +0.000 C 
BRANCH  39  40
ATOM     40  C   UNL     1       6.783   3.959  27.717  0.00  0.00    +0.000 C 
BRANCH  40  41
ATOM     41  C   UNL     1       5.508   3.917  26.881  0.00  0.00    +0.000 C 
BRANCH  41  42
ATOM     42  C   UNL     1       5.069   5.324  26.500  0.00  0.00    -0.000 C 
BRANCH  42  43
ATOM     43  C   UNL     1       3.595   5.346  26.111  0.00  0.00    -0.000 C 
BRANCH  43  44
ATOM     44  C   UNL     1       2.896   4.084  26.603  0.00  0.00    -0.000 C 
BRANCH  44  45
ATOM     45  C   UNL     1       2.124   3.414  25.471  0.00  0.00    -0.000 C 
BRANCH  45  46
ATOM     46  C   UNL     1       3.025   3.196  24.261  0.00  0.00    -0.000 C 
BRANCH  46  47
ATOM     47  C   UNL     1       2.253   3.405  22.962  0.00  0.00    -0.000 C 
BRANCH  47  48
ATOM     48  C   UNL     1       1.837   4.864  22.806  0.00  0.00    -0.000 C 
BRANCH  48  49
ATOM     49  C   UNL     1       2.536   5.512  21.615  0.00  0.00    -0.003 C 
ATOM     50  C   UNL     1       3.200   6.819  22.014  0.00  0.00    +0.004 C 
ENDBRANCH  48  49
ENDBRANCH  47  48
ENDBRANCH  46  47
ENDBRANCH  45  46
ENDBRANCH  44  45
ENDBRANCH  43  44
ENDBRANCH  42  43
ENDBRANCH  41  42
ENDBRANCH  40  41
ENDBRANCH  39  40
ENDBRANCH  38  39
ENDBRANCH  37  38
ENDBRANCH  36  37
ENDBRANCH  34  36
ENDBRANCH  33  34
ENDBRANCH   1  33
TORSDOF 40
ENDMDL
MODEL 9
REMARK VINA RESULT:      -4.3      2.244      5.636
REMARK  Name = 
REMARK  45 active torsions:
REMARK  status: ('A' for Active; 'I' for Inactive)
REMARK    1  A    between atoms: C_1  and  C_2
REMARK    2  A    between atoms: C_2  and  C_3
REMARK    3  A    between atoms: C_3  and  C_4
REMARK    4  A    between atoms: C_4  and  C_5
REMARK    5  A    between atoms: C_5  and  C_6
REMARK    6  A    between atoms: C_6  and  C_7
REMARK    7  A    between atoms: C_7  and  C_8
REMARK    8  A    between atoms: C_8  and  C_9
REMARK    9  A    between atoms: C_9  and  C_10
REMARK   10  A    between atoms: C_10  and  C_11
REMARK   11  A    between atoms: C_11  and  C_12
REMARK   12  A    between atoms: C_12  and  C_13
REMARK   13  A    between atoms: C_13  and  C_14
REMARK   14  A    between atoms: C_14  and  C_15
REMARK   15  A    between atoms: C_15  and  C_16
REMARK   16  A    between atoms: C_16  and  O_18
REMARK   17  A    between atoms: O_18  and  C_19
REMARK   18  A    between atoms: C_19  and  C_20
REMARK   19  A    between atoms: C_20  and  C_22
REMARK   20  A    between atoms: C_20  and  O_34
REMARK   21  A    between atoms: C_22  and  O_23
REMARK   22  A    between atoms: O_23  and  P_24
REMARK   23  A    between atoms: P_24  and  O_27
REMARK   24  A    between atoms: O_27  and  C_28
REMARK   25  A    between atoms: C_28  and  C_29
REMARK   26  A    between atoms: C_29  and  N_30
REMARK   27  A    between atoms: N_30  and  C_31
REMARK   28  A    between atoms: N_30  and  C_32
REMARK   29  A    between atoms: N_30  and  C_33
REMARK   30  A    between atoms: O_34  and  C_35
REMARK   31  A    between atoms: C_35  and  C_37
REMARK   32  A    between atoms: C_37  and  C_38
REMARK   33  A    between atoms: C_38  and  C_39
REMARK   34  A    between atoms: C_39  and  C_40
REMARK   35  A    between atoms: C_40  and  C_41
REMARK   36  A    between atoms: C_41  and  C_42
REMARK   37  A    between atoms: C_42  and  C_43
REMARK   38  A    between atoms: C_43  and  C_44
REMARK   39  A    between atoms: C_44  and  C_45
REMARK   40  A    between atoms: C_45  and  C_46
REMARK   41  A    between atoms: C_46  and  C_47
REMARK   42  A    between atoms: C_47  and  C_48
REMARK   43  A    between atoms: C_48  and  C_49
REMARK   44  A    between atoms: C_49  and  C_50
REMARK   45  A    between atoms: C_50  and  C_51
REMARK                            x       y       z     vdW  Elec       q    Type
REMARK                         _______ _______ _______ _____ _____    ______ ____
ROOT
ATOM      1  C   UNL     1       7.242  -1.979  22.705  0.00  0.00    +0.240 C 
ENDROOT
BRANCH   1   2
ATOM      2  C   UNL     1       6.744  -3.422  22.627  0.00  0.00    +0.216 C 
BRANCH   2   3
ATOM      3  O   UNL     1       5.548  -3.586  23.360  0.00  0.00    -0.324 OA
BRANCH   3   4
ATOM      4  P   UNL     1       5.226  -5.243  23.742  0.00  0.00    +0.213 P 
ATOM      5  O   UNL     1       6.714  -5.546  23.904  0.00  0.00    -0.517 OA
ATOM      6  O   UNL     1       4.500  -5.405  22.406  0.00  0.00    -0.437 OA
BRANCH   4   7
ATOM      7  O   UNL     1       4.904  -6.899  24.124  0.00  0.00    -0.322 OA
BRANCH   7   8
ATOM      8  C   UNL     1       4.092  -6.997  25.284  0.00  0.00    +0.218 C 
BRANCH   8   9
ATOM      9  C   UNL     1       4.923  -6.686  26.513  0.00  0.00    +0.161 C 
BRANCH   9  10
ATOM     10  N   UNL     1       4.207  -5.795  27.567  0.00  0.00    +0.239 N 
ATOM     11  C   UNL     1       3.996  -6.644  28.805  0.00  0.00    +0.192 C 
ATOM     12  C   UNL     1       2.875  -5.296  27.047  0.00  0.00    +0.192 C 
ATOM     13  C   UNL     1       5.090  -4.594  27.939  0.00  0.00    +0.192 C 
ENDBRANCH   9  10
ENDBRANCH   8   9
ENDBRANCH   7   8
ENDBRANCH   4   7
ENDBRANCH   3   4
ENDBRANCH   2   3
ENDBRANCH   1   2
BRANCH   1  14
ATOM     14  C   UNL     1       7.382  -1.478  24.152  0.00  0.00    +0.279 C 
BRANCH  14  15
ATOM     15  O   UNL     1       6.659  -0.262  24.384  0.00  0.00    -0.461 OA
BRANCH  15  16
ATOM     16  C   UNL     1       7.393   0.800  24.824  0.00  0.00    +0.307 C 
ATOM     17  O   UNL     1       8.396   0.720  25.526  0.00  0.00    -0.251 OA
BRANCH  16  18
ATOM     18  C   UNL     1       6.875   2.091  24.238  0.00  0.00    +0.120 C 
BRANCH  18  19
ATOM     19  C   UNL     1       6.506   1.877  22.775  0.00  0.00    +0.011 C 
BRANCH  19  20
ATOM     20  C   UNL     1       6.604   3.161  21.954  0.00  0.00    +0.001 C 
BRANCH  20  21
ATOM     21  C   UNL     1       7.270   4.267  22.775  0.00  0.00    +0.000 C 
BRANCH  21  22
ATOM     22  C   UNL     1       7.267   5.601  22.033  0.00  0.00    +0.000 C 
BRANCH  22  23
ATOM     23  C   UNL     1       6.600   6.687  22.875  0.00  0.00    +0.000 C 
BRANCH  23  24
ATOM     24  C   UNL     1       5.091   6.473  22.946  0.00  0.00    -0.000 C 
BRANCH  24  25
ATOM     25  C   UNL     1       4.554   6.818  24.333  0.00  0.00    -0.000 C 
BRANCH  25  26
ATOM     26  C   UNL     1       3.727   5.666  24.895  0.00  0.00    -0.000 C 
BRANCH  26  27
ATOM     27  C   UNL     1       3.650   4.513  23.898  0.00  0.00    -0.000 C 
BRANCH  27  28
ATOM     28  C   UNL     1       3.459   3.183  24.621  0.00  0.00    -0.000 C 
BRANCH  28  29
ATOM     29  C   UNL     1       2.453   3.320  25.762  0.00  0.00    -0.000 C 
BRANCH  29  30
ATOM     30  C   UNL     1       3.023   2.749  27.059  0.00  0.00    -0.000 C 
BRANCH  30  32
ATOM     31  C   UNL     1       5.045   1.506  27.882  0.00  0.00    +0.004 C 
ATOM     32  C   UNL     1       4.542   2.623  26.984  0.00  0.00    -0.003 C 
ENDBRANCH  30  32
ENDBRANCH  29  30
ENDBRANCH  28  29
ENDBRANCH  27  28
ENDBRANCH  26  27
ENDBRANCH  25  26
ENDBRANCH  24  25
ENDBRANCH  23  24
ENDBRANCH  22  23
ENDBRANCH  21  22
ENDBRANCH  20  21
ENDBRANCH  19  20
ENDBRANCH  18  19
ENDBRANCH  16  18
ENDBRANCH  15  16
ENDBRANCH  14  15
ENDBRANCH   1  14
BRANCH   1  33
ATOM     33  O   UNL     1       8.558  -1.892  22.101  0.00  0.00    -0.456 OA
BRANCH  33  34
ATOM     34  C   UNL     1       9.604  -1.866  22.964  0.00  0.00    +0.308 C 
ATOM     35  O   UNL     1      10.001  -2.809  23.635  0.00  0.00    -0.251 OA
BRANCH  34  36
ATOM     36  C   UNL     1      10.269  -0.518  22.965  0.00  0.00    +0.120 C 
BRANCH  36  37
ATOM     37  C   UNL     1       9.734   0.286  21.790  0.00  0.00    +0.011 C 
BRANCH  37  38
ATOM     38  C   UNL     1      10.053   1.770  21.914  0.00  0.00    +0.001 C 
BRANCH  38  39
ATOM     39  C   UNL     1      10.623   2.059  23.300  0.00  0.00    +0.000 C 
BRANCH  39  40
ATOM     40  C   UNL     1      10.529   3.538  23.645  0.00  0.00    +0.000 C 
BRANCH  40  41
ATOM     41  C   UNL     1      11.829   4.250  23.289  0.00  0.00    +0.000 C 
BRANCH  41  42
ATOM     42  C   UNL     1      11.758   5.722  23.673  0.00  0.00    -0.000 C 
BRANCH  42  43
ATOM     43  C   UNL     1      10.325   6.130  23.997  0.00  0.00    -0.000 C 
BRANCH  43  44
ATOM     44  C   UNL     1      10.275   6.904  25.309  0.00  0.00    -0.000 C 
BRANCH  44  45
ATOM     45  C   UNL     1       8.940   6.692  26.014  0.00  0.00    -0.000 C 
BRANCH  45  46
ATOM     46  C   UNL     1       8.463   5.254  25.841  0.00  0.00    -0.000 C 
BRANCH  46  47
ATOM     47  C   UNL     1       7.056   5.076  26.402  0.00  0.00    -0.000 C 
BRANCH  47  48
ATOM     48  C   UNL     1       6.672   6.254  27.290  0.00  0.00    -0.000 C 
BRANCH  48  49
ATOM     49  C   UNL     1       5.815   5.800  28.468  0.00  0.00    -0.003 C 
ATOM     50  C   UNL     1       6.659   5.100  29.521  0.00  0.00    +0.004 C 
ENDBRANCH  48  49
ENDBRANCH  47  48
ENDBRANCH  46  47
ENDBRANCH  45  46
ENDBRANCH  44  45
ENDBRANCH  43  44
ENDBRANCH  42  43
ENDBRANCH  41  42
ENDBRANCH  40  41
ENDBRANCH  39  40
ENDBRANCH  38  39
ENDBRANCH  37  38
ENDBRANCH  36  37
ENDBRANCH  34  36
ENDBRANCH  33  34
ENDBRANCH   1  33
TORSDOF 40
ENDMDL
