MODEL 1
REMARK VINA RESULT:      -6.9      0.000      0.000
REMARK  Name = 
REMARK  21 active torsions:
REMARK  status: ('A' for Active; 'I' for Inactive)
REMARK    1  A    between atoms: N_6  and  C_9
REMARK    2  A    between atoms: C_12  and  O_14
REMARK    3  A    between atoms: C_15  and  C_16
REMARK    4  A    between atoms: C_16  and  O_17
REMARK    5  A    between atoms: O_17  and  P_18
REMARK    6  A    between atoms: P_18  and  O_19
REMARK    7  A    between atoms: P_18  and  O_21
REMARK    8  A    between atoms: O_21  and  P_22
REMARK    9  A    between atoms: P_22  and  O_23
REMARK   10  A    between atoms: P_22  and  O_25
REMARK   11  A    between atoms: O_25  and  P_26
REMARK   12  A    between atoms: P_26  and  O_27
REMARK   13  A    between atoms: P_26  and  O_29
REMARK   14  A    between atoms: O_29  and  P_30
REMARK   15  A    between atoms: P_30  and  O_31
REMARK   16  A    between atoms: P_30  and  O_33
REMARK   17  A    between atoms: O_33  and  C_34
REMARK   18  A    between atoms: C_34  and  C_35
REMARK   19  A    between atoms: C_38  and  N_46
REMARK   20  A    between atoms: C_40  and  O_42
REMARK   21  A    between atoms: C_43  and  O_45
REMARK                            x       y       z     vdW  Elec       q    Type
REMARK                         _______ _______ _______ _____ _____    ______ ____
ROOT
ATOM      1  O   UNL     1       7.500  -4.575  22.623  0.00  0.00    -0.186 OA
ENDROOT
BRANCH   1   2
ATOM      2  P   UNL     1       8.305  -4.164  24.146  0.00  0.00    +0.492 P 
ATOM      3  O   UNL     1       8.794  -5.374  24.873  0.00  0.00    -0.226 OA
BRANCH   2   4
ATOM      4  O   UNL     1       6.894  -3.649  24.774  0.00  0.00    -0.302 OA
ATOM      5  H   UNL     1       6.803  -3.955  25.700  0.00  0.00    +0.222 HD
ENDBRANCH   2   4
BRANCH   2   6
ATOM      6  O   UNL     1       9.241  -2.713  24.711  0.00  0.00    -0.186 OA
BRANCH   6   7
ATOM      7  P   UNL     1       9.746  -1.537  23.547  0.00  0.00    +0.483 P 
ATOM      8  O   UNL     1      10.146  -0.595  24.684  0.00  0.00    -0.227 OA
BRANCH   7   9
ATOM      9  O   UNL     1       8.149  -1.237  23.343  0.00  0.00    -0.302 OA
ATOM     10  H   UNL     1       8.098  -0.293  23.075  0.00  0.00    +0.222 HD
ENDBRANCH   7   9
BRANCH   7  11
ATOM     11  O   UNL     1      10.250  -0.363  22.383  0.00  0.00    -0.284 OA
BRANCH  11  12
ATOM     12  C   UNL     1       9.227   0.035  21.441  0.00  0.00    +0.206 C 
BRANCH  12  13
ATOM     13  C   UNL     1       8.591   1.410  21.629  0.00  0.00    +0.178 C 
ATOM     14  C   UNL     1       9.249   2.262  22.695  0.00  0.00    +0.178 C 
ATOM     15  C   UNL     1       8.145   3.275  23.046  0.00  0.00    +0.195 C 
ATOM     16  C   UNL     1       6.835   2.620  22.496  0.00  0.00    +0.255 C 
ATOM     17  O   UNL     1       7.216   1.329  21.972  0.00  0.00    -0.346 OA
BRANCH  16  18
ATOM     18  N   UNL     1       5.683   2.449  23.398  0.00  0.00    -0.271 N 
ATOM     19  C   UNL     1       5.829   1.630  24.530  0.00  0.00    +0.331 A 
ATOM     20  O   UNL     1       6.829   0.962  24.775  0.00  0.00    -0.246 OA
ATOM     21  N   UNL     1       4.774   1.636  25.415  0.00  0.00    -0.275 N 
ATOM     22  H   UNL     1       4.883   1.081  26.251  0.00  0.00    +0.173 HD
ATOM     23  C   UNL     1       3.784   2.583  25.453  0.00  0.00    +0.254 A 
ATOM     24  O   UNL     1       3.031   2.714  26.420  0.00  0.00    -0.268 OA
ATOM     25  C   UNL     1       3.701   3.450  24.296  0.00  0.00    +0.088 A 
ATOM     26  C   UNL     1       4.622   3.339  23.338  0.00  0.00    +0.098 A 
ENDBRANCH  16  18
BRANCH  15  27
ATOM     27  O   UNL     1       8.390   4.530  22.394  0.00  0.00    -0.385 OA
ATOM     28  H   UNL     1       7.874   5.215  22.853  0.00  0.00    +0.210 HD
ENDBRANCH  15  27
BRANCH  14  29
ATOM     29  O   UNL     1      10.459   2.818  22.178  0.00  0.00    -0.386 OA
ATOM     30  H   UNL     1      10.837   3.426  22.833  0.00  0.00    +0.210 HD
ENDBRANCH  14  29
ENDBRANCH  12  13
ENDBRANCH  11  12
ENDBRANCH   7  11
ENDBRANCH   6   7
ENDBRANCH   2   6
ENDBRANCH   1   2
BRANCH   1  31
ATOM     31  P   UNL     1       5.900  -3.942  22.142  0.00  0.00    +0.492 P 
ATOM     32  O   UNL     1       5.899  -2.443  22.235  0.00  0.00    -0.226 OA
BRANCH  31  33
ATOM     33  O   UNL     1       5.881  -4.481  20.633  0.00  0.00    -0.302 OA
ATOM     34  H   UNL     1       5.161  -5.118  20.461  0.00  0.00    +0.222 HD
ENDBRANCH  31  33
BRANCH  31  35
ATOM     35  O   UNL     1       4.258  -4.532  22.597  0.00  0.00    -0.186 OA
BRANCH  35  36
ATOM     36  P   UNL     1       4.218  -5.976  23.550  0.00  0.00    +0.483 P 
ATOM     37  O   UNL     1       2.893  -6.382  22.898  0.00  0.00    -0.227 OA
BRANCH  36  38
ATOM     38  O   UNL     1       5.424  -6.622  22.658  0.00  0.00    -0.302 OA
ATOM     39  H   UNL     1       5.361  -7.590  22.576  0.00  0.00    +0.222 HD
ENDBRANCH  36  38
BRANCH  36  40
ATOM     40  O   UNL     1       4.178  -7.418  24.505  0.00  0.00    -0.284 OA
BRANCH  40  41
ATOM     41  C   UNL     1       3.573  -7.264  25.872  0.00  0.00    +0.206 C 
BRANCH  41  44
ATOM     42  C   UNL     1       4.737  -3.951  27.188  0.00  0.00    +0.226 C 
ATOM     43  O   UNL     1       3.655  -4.873  26.782  0.00  0.00    -0.348 OA
ATOM     44  C   UNL     1       4.034  -6.293  27.099  0.00  0.00    +0.175 C 
ATOM     45  C   UNL     1       5.496  -6.163  27.573  0.00  0.00    +0.150 C 
ATOM     46  C   UNL     1       5.560  -4.749  28.189  0.00  0.00    +0.088 C 
BRANCH  42  53
ATOM     47  N   UNL     1       1.551   0.417  28.060  0.00  0.00    -0.343 N 
ATOM     48  H   UNL     1       1.461   0.951  28.915  0.00  0.00    +0.144 HD
ATOM     49  H   UNL     1       1.323   0.941  27.219  0.00  0.00    +0.144 HD
ATOM     50  C   UNL     1       2.598  -0.462  27.928  0.00  0.00    +0.123 A 
ATOM     51  C   UNL     1       3.123  -1.179  29.112  0.00  0.00    +0.061 A 
ATOM     52  C   UNL     1       3.858  -2.266  28.849  0.00  0.00    +0.096 A 
ATOM     53  N   UNL     1       4.250  -2.587  27.561  0.00  0.00    -0.273 N 
ATOM     54  C   UNL     1       4.062  -1.623  26.550  0.00  0.00    +0.352 A 
ATOM     55  O   UNL     1       4.710  -1.656  25.506  0.00  0.00    -0.244 OA
ATOM     56  N   UNL     1       3.091  -0.655  26.743  0.00  0.00    -0.178 NA
ENDBRANCH  42  53
BRANCH  45  57
ATOM     57  O   UNL     1       6.414  -6.212  26.483  0.00  0.00    -0.389 OA
ATOM     58  H   UNL     1       6.135  -6.946  25.907  0.00  0.00    +0.210 HD
ENDBRANCH  45  57
ENDBRANCH  41  44
ENDBRANCH  40  41
ENDBRANCH  36  40
ENDBRANCH  35  36
ENDBRANCH  31  35
ENDBRANCH   1  31
TORSDOF 21
ENDMDL
MODEL 2
REMARK VINA RESULT:      -6.6      3.571      8.356
REMARK  Name = 
REMARK  21 active torsions:
REMARK  status: ('A' for Active; 'I' for Inactive)
REMARK    1  A    between atoms: N_6  and  C_9
REMARK    2  A    between atoms: C_12  and  O_14
REMARK    3  A    between atoms: C_15  and  C_16
REMARK    4  A    between atoms: C_16  and  O_17
REMARK    5  A    between atoms: O_17  and  P_18
REMARK    6  A    between atoms: P_18  and  O_19
REMARK    7  A    between atoms: P_18  and  O_21
REMARK    8  A    between atoms: O_21  and  P_22
REMARK    9  A    between atoms: P_22  and  O_23
REMARK   10  A    between atoms: P_22  and  O_25
REMARK   11  A    between atoms: O_25  and  P_26
REMARK   12  A    between atoms: P_26  and  O_27
REMARK   13  A    between atoms: P_26  and  O_29
REMARK   14  A    between atoms: O_29  and  P_30
REMARK   15  A    between atoms: P_30  and  O_31
REMARK   16  A    between atoms: P_30  and  O_33
REMARK   17  A    between atoms: O_33  and  C_34
REMARK   18  A    between atoms: C_34  and  C_35
REMARK   19  A    between atoms: C_38  and  N_46
REMARK   20  A    between atoms: C_40  and  O_42
REMARK   21  A    between atoms: C_43  and  O_45
REMARK                            x       y       z     vdW  Elec       q    Type
REMARK                         _______ _______ _______ _____ _____    ______ ____
ROOT
ATOM      1  O   UNL     1       5.554   2.400  24.474  0.00  0.00    -0.186 OA
ENDROOT
BRANCH   1   2
ATOM      2  P   UNL     1       6.196   1.739  25.987  0.00  0.00    +0.492 P 
ATOM      3  O   UNL     1       7.128   2.688  26.669  0.00  0.00    -0.226 OA
BRANCH   2   4
ATOM      4  O   UNL     1       7.030   0.611  25.162  0.00  0.00    -0.302 OA
ATOM      5  H   UNL     1       7.470  -0.007  25.782  0.00  0.00    +0.222 HD
ENDBRANCH   2   4
BRANCH   2   6
ATOM      6  O   UNL     1       5.548   0.561  27.209  0.00  0.00    -0.186 OA
BRANCH   6   7
ATOM      7  P   UNL     1       4.090  -0.298  26.851  0.00  0.00    +0.483 P 
ATOM      8  O   UNL     1       4.753  -0.890  25.606  0.00  0.00    -0.227 OA
BRANCH   7   9
ATOM      9  O   UNL     1       3.515   1.144  26.332  0.00  0.00    -0.302 OA
ATOM     10  H   UNL     1       2.539   1.032  26.294  0.00  0.00    +0.222 HD
ENDBRANCH   7   9
BRANCH   7  11
ATOM     11  O   UNL     1       2.632  -1.157  26.494  0.00  0.00    -0.284 OA
BRANCH  11  12
ATOM     12  C   UNL     1       2.293  -2.194  27.443  0.00  0.00    +0.206 C 
BRANCH  12  13
ATOM     13  C   UNL     1       2.373  -3.642  26.965  0.00  0.00    +0.178 C 
ATOM     14  C   UNL     1       3.241  -4.537  27.827  0.00  0.00    +0.178 C 
ATOM     15  C   UNL     1       3.581  -5.696  26.873  0.00  0.00    +0.195 C 
ATOM     16  C   UNL     1       3.270  -5.125  25.450  0.00  0.00    +0.255 C 
ATOM     17  O   UNL     1       2.876  -3.749  25.642  0.00  0.00    -0.346 OA
BRANCH  16  18
ATOM     18  N   UNL     1       4.309  -5.184  24.409  0.00  0.00    -0.271 N 
ATOM     19  C   UNL     1       4.715  -6.441  23.932  0.00  0.00    +0.331 A 
ATOM     20  O   UNL     1       4.330  -7.512  24.393  0.00  0.00    -0.246 OA
ATOM     21  N   UNL     1       5.570  -6.428  22.852  0.00  0.00    -0.275 N 
ATOM     22  H   UNL     1       5.838  -7.325  22.476  0.00  0.00    +0.173 HD
ATOM     23  C   UNL     1       5.783  -5.351  22.031  0.00  0.00    +0.254 A 
ATOM     24  O   UNL     1       6.324  -5.456  20.928  0.00  0.00    -0.268 OA
ATOM     25  C   UNL     1       5.298  -4.079  22.527  0.00  0.00    +0.088 A 
ATOM     26  C   UNL     1       4.612  -4.051  23.670  0.00  0.00    +0.098 A 
ENDBRANCH  16  18
BRANCH  15  27
ATOM     27  O   UNL     1       2.751  -6.834  27.150  0.00  0.00    -0.385 OA
ATOM     28  H   UNL     1       3.043  -7.567  26.581  0.00  0.00    +0.210 HD
ENDBRANCH  15  27
BRANCH  14  29
ATOM     29  O   UNL     1       2.525  -4.897  29.009  0.00  0.00    -0.386 OA
ATOM     30  H   UNL     1       2.465  -4.125  29.595  0.00  0.00    +0.210 HD
ENDBRANCH  14  29
ENDBRANCH  12  13
ENDBRANCH  11  12
ENDBRANCH   7  11
ENDBRANCH   6   7
ENDBRANCH   2   6
ENDBRANCH   1   2
BRANCH   1  31
ATOM     31  P   UNL     1       6.544   2.682  23.014  0.00  0.00    +0.492 P 
ATOM     32  O   UNL     1       6.677   1.404  22.237  0.00  0.00    -0.226 OA
BRANCH  31  33
ATOM     33  O   UNL     1       5.601   3.761  22.298  0.00  0.00    -0.302 OA
ATOM     34  H   UNL     1       6.021   4.637  22.204  0.00  0.00    +0.222 HD
ENDBRANCH  31  33
BRANCH  31  35
ATOM     35  O   UNL     1       8.085   3.603  22.843  0.00  0.00    -0.186 OA
BRANCH  35  36
ATOM     36  P   UNL     1       9.508   2.793  23.402  0.00  0.00    +0.483 P 
ATOM     37  O   UNL     1       9.747   2.223  22.000  0.00  0.00    -0.227 OA
BRANCH  36  38
ATOM     38  O   UNL     1      10.305   4.216  23.496  0.00  0.00    -0.302 OA
ATOM     39  H   UNL     1      10.554   4.454  24.405  0.00  0.00    +0.222 HD
ENDBRANCH  36  38
BRANCH  36  40
ATOM     40  O   UNL     1      10.930   1.982  23.961  0.00  0.00    -0.284 OA
BRANCH  40  41
ATOM     41  C   UNL     1      10.821   0.486  24.049  0.00  0.00    +0.206 C 
BRANCH  41  44
ATOM     42  C   UNL     1       9.059  -2.823  24.107  0.00  0.00    +0.226 C 
ATOM     43  O   UNL     1       9.344  -1.500  24.702  0.00  0.00    -0.348 OA
ATOM     44  C   UNL     1       9.582  -0.484  23.619  0.00  0.00    +0.175 C 
ATOM     45  C   UNL     1       9.581  -1.338  22.336  0.00  0.00    +0.150 C 
ATOM     46  C   UNL     1       8.641  -2.515  22.677  0.00  0.00    +0.088 C 
BRANCH  42  53
ATOM     47  N   UNL     1       7.195  -6.094  28.086  0.00  0.00    -0.343 N 
ATOM     48  H   UNL     1       6.377  -5.953  28.665  0.00  0.00    +0.144 HD
ATOM     49  H   UNL     1       7.467  -7.069  27.985  0.00  0.00    +0.144 HD
ATOM     50  C   UNL     1       7.354  -5.330  26.955  0.00  0.00    +0.123 A 
ATOM     51  C   UNL     1       6.862  -3.934  26.924  0.00  0.00    +0.061 A 
ATOM     52  C   UNL     1       7.380  -3.161  25.962  0.00  0.00    +0.096 A 
ATOM     53  N   UNL     1       8.178  -3.682  24.959  0.00  0.00    -0.273 N 
ATOM     54  C   UNL     1       8.249  -5.084  24.827  0.00  0.00    +0.352 A 
ATOM     55  O   UNL     1       8.594  -5.610  23.772  0.00  0.00    -0.244 OA
ATOM     56  N   UNL     1       7.961  -5.859  25.937  0.00  0.00    -0.178 NA
ENDBRANCH  42  53
BRANCH  45  57
ATOM     57  O   UNL     1      10.872  -1.872  22.052  0.00  0.00    -0.389 OA
ATOM     58  H   UNL     1      10.905  -2.043  21.093  0.00  0.00    +0.210 HD
ENDBRANCH  45  57
ENDBRANCH  41  44
ENDBRANCH  40  41
ENDBRANCH  36  40
ENDBRANCH  35  36
ENDBRANCH  31  35
ENDBRANCH   1  31
TORSDOF 21
ENDMDL
MODEL 3
REMARK VINA RESULT:      -6.5      3.855      8.093
REMARK  Name = 
REMARK  21 active torsions:
REMARK  status: ('A' for Active; 'I' for Inactive)
REMARK    1  A    between atoms: N_6  and  C_9
REMARK    2  A    between atoms: C_12  and  O_14
REMARK    3  A    between atoms: C_15  and  C_16
REMARK    4  A    between atoms: C_16  and  O_17
REMARK    5  A    between atoms: O_17  and  P_18
REMARK    6  A    between atoms: P_18  and  O_19
REMARK    7  A    between atoms: P_18  and  O_21
REMARK    8  A    between atoms: O_21  and  P_22
REMARK    9  A    between atoms: P_22  and  O_23
REMARK   10  A    between atoms: P_22  and  O_25
REMARK   11  A    between atoms: O_25  and  P_26
REMARK   12  A    between atoms: P_26  and  O_27
REMARK   13  A    between atoms: P_26  and  O_29
REMARK   14  A    between atoms: O_29  and  P_30
REMARK   15  A    between atoms: P_30  and  O_31
REMARK   16  A    between atoms: P_30  and  O_33
REMARK   17  A    between atoms: O_33  and  C_34
REMARK   18  A    between atoms: C_34  and  C_35
REMARK   19  A    between atoms: C_38  and  N_46
REMARK   20  A    between atoms: C_40  and  O_42
REMARK   21  A    between atoms: C_43  and  O_45
REMARK                            x       y       z     vdW  Elec       q    Type
REMARK                         _______ _______ _______ _____ _____    ______ ____
ROOT
ATOM      1  O   UNL     1       7.698   6.601  24.771  0.00  0.00    -0.186 OA
ENDROOT
BRANCH   1   2
ATOM      2  P   UNL     1       8.290   6.093  26.362  0.00  0.00    +0.492 P 
ATOM      3  O   UNL     1       9.674   6.585  26.633  0.00  0.00    -0.226 OA
BRANCH   2   4
ATOM      4  O   UNL     1       8.318   4.540  25.876  0.00  0.00    -0.302 OA
ATOM      5  H   UNL     1       9.189   4.323  25.483  0.00  0.00    +0.222 HD
ENDBRANCH   2   4
BRANCH   2   6
ATOM      6  O   UNL     1       7.469   5.725  27.940  0.00  0.00    -0.186 OA
BRANCH   6   7
ATOM      7  P   UNL     1       6.694   4.192  28.143  0.00  0.00    +0.483 P 
ATOM      8  O   UNL     1       5.662   4.583  27.084  0.00  0.00    -0.227 OA
BRANCH   7   9
ATOM      9  O   UNL     1       6.085   4.823  29.525  0.00  0.00    -0.302 OA
ATOM     10  H   UNL     1       5.113   4.860  29.383  0.00  0.00    +0.222 HD
ENDBRANCH   7   9
BRANCH   7  11
ATOM     11  O   UNL     1       5.921   2.659  28.346  0.00  0.00    -0.284 OA
BRANCH  11  12
ATOM     12  C   UNL     1       6.821   1.529  28.404  0.00  0.00    +0.206 C 
BRANCH  12  13
ATOM     13  C   UNL     1       7.070   0.758  27.111  0.00  0.00    +0.178 C 
ATOM     14  C   UNL     1       6.043   1.011  26.026  0.00  0.00    +0.178 C 
ATOM     15  C   UNL     1       6.197  -0.226  25.121  0.00  0.00    +0.195 C 
ATOM     16  C   UNL     1       6.949  -1.264  26.017  0.00  0.00    +0.255 C 
ATOM     17  O   UNL     1       7.102  -0.646  27.314  0.00  0.00    -0.346 OA
BRANCH  16  18
ATOM     18  N   UNL     1       6.377  -2.609  26.193  0.00  0.00    -0.271 N 
ATOM     19  C   UNL     1       7.224  -3.653  26.603  0.00  0.00    +0.331 A 
ATOM     20  O   UNL     1       8.440  -3.545  26.735  0.00  0.00    -0.246 OA
ATOM     21  N   UNL     1       6.605  -4.846  26.903  0.00  0.00    -0.275 N 
ATOM     22  H   UNL     1       7.198  -5.591  27.235  0.00  0.00    +0.173 HD
ATOM     23  C   UNL     1       5.265  -4.998  27.147  0.00  0.00    +0.254 A 
ATOM     24  O   UNL     1       4.799  -6.006  27.683  0.00  0.00    -0.268 OA
ATOM     25  C   UNL     1       4.428  -3.878  26.768  0.00  0.00    +0.088 A 
ATOM     26  C   UNL     1       5.005  -2.767  26.308  0.00  0.00    +0.098 A 
ENDBRANCH  16  18
BRANCH  15  27
ATOM     27  O   UNL     1       6.979   0.096  23.961  0.00  0.00    -0.385 OA
ATOM     28  H   UNL     1       7.150  -0.728  23.474  0.00  0.00    +0.210 HD
ENDBRANCH  15  27
BRANCH  14  29
ATOM     29  O   UNL     1       6.307   2.270  25.405  0.00  0.00    -0.386 OA
ATOM     30  H   UNL     1       5.760   2.354  24.608  0.00  0.00    +0.210 HD
ENDBRANCH  14  29
ENDBRANCH  12  13
ENDBRANCH  11  12
ENDBRANCH   7  11
ENDBRANCH   6   7
ENDBRANCH   2   6
ENDBRANCH   1   2
BRANCH   1  31
ATOM     31  P   UNL     1       7.861   5.616  23.289  0.00  0.00    +0.492 P 
ATOM     32  O   UNL     1       7.337   6.383  22.110  0.00  0.00    -0.226 OA
BRANCH  31  33
ATOM     33  O   UNL     1       9.455   5.463  23.286  0.00  0.00    -0.302 OA
ATOM     34  H   UNL     1       9.907   6.151  22.761  0.00  0.00    +0.222 HD
ENDBRANCH  31  33
BRANCH  31  35
ATOM     35  O   UNL     1       7.482   3.871  23.034  0.00  0.00    -0.186 OA
BRANCH  35  36
ATOM     36  P   UNL     1       8.826   2.866  22.613  0.00  0.00    +0.483 P 
ATOM     37  O   UNL     1       8.919   2.368  24.058  0.00  0.00    -0.227 OA
BRANCH  36  38
ATOM     38  O   UNL     1       7.837   1.848  21.805  0.00  0.00    -0.302 OA
ATOM     39  H   UNL     1       8.053   1.775  20.859  0.00  0.00    +0.222 HD
ENDBRANCH  36  38
BRANCH  36  40
ATOM     40  O   UNL     1      10.171   1.863  22.191  0.00  0.00    -0.284 OA
BRANCH  40  41
ATOM     41  C   UNL     1       9.818   0.578  21.496  0.00  0.00    +0.206 C 
BRANCH  41  44
ATOM     42  C   UNL     1       8.401  -2.460  23.175  0.00  0.00    +0.226 C 
ATOM     43  O   UNL     1       8.614  -1.629  21.970  0.00  0.00    -0.348 OA
ATOM     44  C   UNL     1       9.956  -0.955  22.033  0.00  0.00    +0.175 C 
ATOM     45  C   UNL     1      10.459  -1.316  23.446  0.00  0.00    +0.150 C 
ATOM     46  C   UNL     1       9.799  -2.682  23.734  0.00  0.00    +0.088 C 
BRANCH  42  53
ATOM     47  N   UNL     1       5.693  -6.584  20.796  0.00  0.00    -0.343 N 
ATOM     48  H   UNL     1       5.674  -7.554  21.084  0.00  0.00    +0.144 HD
ATOM     49  H   UNL     1       4.874  -6.294  20.267  0.00  0.00    +0.144 HD
ATOM     50  C   UNL     1       6.185  -5.638  21.663  0.00  0.00    +0.123 A 
ATOM     51  C   UNL     1       7.282  -5.982  22.596  0.00  0.00    +0.061 A 
ATOM     52  C   UNL     1       7.943  -4.942  23.117  0.00  0.00    +0.096 A 
ATOM     53  N   UNL     1       7.512  -3.640  22.937  0.00  0.00    -0.273 N 
ATOM     54  C   UNL     1       6.229  -3.434  22.391  0.00  0.00    +0.352 A 
ATOM     55  O   UNL     1       5.626  -2.377  22.554  0.00  0.00    -0.244 OA
ATOM     56  N   UNL     1       5.677  -4.445  21.622  0.00  0.00    -0.178 NA
ENDBRANCH  42  53
BRANCH  45  57
ATOM     57  O   UNL     1      10.000  -0.388  24.426  0.00  0.00    -0.389 OA
ATOM     58  H   UNL     1       9.180   0.010  24.081  0.00  0.00    +0.210 HD
ENDBRANCH  45  57
ENDBRANCH  41  44
ENDBRANCH  40  41
ENDBRANCH  36  40
ENDBRANCH  35  36
ENDBRANCH  31  35
ENDBRANCH   1  31
TORSDOF 21
ENDMDL
MODEL 4
REMARK VINA RESULT:      -6.4      3.690      6.948
REMARK  Name = 
REMARK  21 active torsions:
REMARK  status: ('A' for Active; 'I' for Inactive)
REMARK    1  A    between atoms: N_6  and  C_9
REMARK    2  A    between atoms: C_12  and  O_14
REMARK    3  A    between atoms: C_15  and  C_16
REMARK    4  A    between atoms: C_16  and  O_17
REMARK    5  A    between atoms: O_17  and  P_18
REMARK    6  A    between atoms: P_18  and  O_19
REMARK    7  A    between atoms: P_18  and  O_21
REMARK    8  A    between atoms: O_21  and  P_22
REMARK    9  A    between atoms: P_22  and  O_23
REMARK   10  A    between atoms: P_22  and  O_25
REMARK   11  A    between atoms: O_25  and  P_26
REMARK   12  A    between atoms: P_26  and  O_27
REMARK   13  A    between atoms: P_26  and  O_29
REMARK   14  A    between atoms: O_29  and  P_30
REMARK   15  A    between atoms: P_30  and  O_31
REMARK   16  A    between atoms: P_30  and  O_33
REMARK   17  A    between atoms: O_33  and  C_34
REMARK   18  A    between atoms: C_34  and  C_35
REMARK   19  A    between atoms: C_38  and  N_46
REMARK   20  A    between atoms: C_40  and  O_42
REMARK   21  A    between atoms: C_43  and  O_45
REMARK                            x       y       z     vdW  Elec       q    Type
REMARK                         _______ _______ _______ _____ _____    ______ ____
ROOT
ATOM      1  O   UNL     1       8.198   2.417  23.349  0.00  0.00    -0.186 OA
ENDROOT
BRANCH   1   2
ATOM      2  P   UNL     1       9.896   1.937  23.194  0.00  0.00    +0.492 P 
ATOM      3  O   UNL     1      10.828   2.968  23.741  0.00  0.00    -0.226 OA
BRANCH   2   4
ATOM      4  O   UNL     1       9.799   2.054  21.573  0.00  0.00    -0.302 OA
ATOM      5  H   UNL     1      10.082   2.944  21.280  0.00  0.00    +0.222 HD
ENDBRANCH   2   4
BRANCH   2   6
ATOM      6  O   UNL     1      10.740   0.329  23.162  0.00  0.00    -0.186 OA
BRANCH   6   7
ATOM      7  P   UNL     1       9.802  -1.113  23.353  0.00  0.00    +0.483 P 
ATOM      8  O   UNL     1      10.772  -1.856  22.434  0.00  0.00    -0.227 OA
BRANCH   7   9
ATOM      9  O   UNL     1       8.747  -0.414  22.315  0.00  0.00    -0.302 OA
ATOM     10  H   UNL     1       9.307   0.029  21.640  0.00  0.00    +0.222 HD
ENDBRANCH   7   9
BRANCH   7  11
ATOM     11  O   UNL     1       8.865  -2.553  23.545  0.00  0.00    -0.284 OA
BRANCH  11  12
ATOM     12  C   UNL     1       8.012  -2.874  22.422  0.00  0.00    +0.206 C 
BRANCH  12  13
ATOM     13  C   UNL     1       7.214  -4.173  22.492  0.00  0.00    +0.178 C 
ATOM     14  C   UNL     1       5.760  -4.035  22.086  0.00  0.00    +0.178 C 
ATOM     15  C   UNL     1       5.107  -5.263  22.748  0.00  0.00    +0.195 C 
ATOM     16  C   UNL     1       6.143  -5.709  23.831  0.00  0.00    +0.255 C 
ATOM     17  O   UNL     1       7.215  -4.742  23.792  0.00  0.00    -0.346 OA
BRANCH  16  18
ATOM     18  N   UNL     1       5.700  -5.875  25.225  0.00  0.00    -0.271 N 
ATOM     19  C   UNL     1       4.748  -6.867  25.516  0.00  0.00    +0.331 A 
ATOM     20  O   UNL     1       4.181  -7.550  24.668  0.00  0.00    -0.246 OA
ATOM     21  N   UNL     1       4.492  -7.080  26.852  0.00  0.00    -0.275 N 
ATOM     22  H   UNL     1       3.839  -7.816  27.075  0.00  0.00    +0.173 HD
ATOM     23  C   UNL     1       5.292  -6.662  27.884  0.00  0.00    +0.254 A 
ATOM     24  O   UNL     1       5.185  -7.108  29.028  0.00  0.00    -0.268 OA
ATOM     25  C   UNL     1       6.303  -5.684  27.536  0.00  0.00    +0.088 A 
ATOM     26  C   UNL     1       6.449  -5.333  26.258  0.00  0.00    +0.098 A 
ENDBRANCH  16  18
BRANCH  15  27
ATOM     27  O   UNL     1       4.909  -6.306  21.783  0.00  0.00    -0.385 OA
ATOM     28  H   UNL     1       4.061  -6.145  21.334  0.00  0.00    +0.210 HD
ENDBRANCH  15  27
BRANCH  14  29
ATOM     29  O   UNL     1       5.668  -3.976  20.662  0.00  0.00    -0.386 OA
ATOM     30  H   UNL     1       6.240  -3.264  20.333  0.00  0.00    +0.210 HD
ENDBRANCH  14  29
ENDBRANCH  12  13
ENDBRANCH  11  12
ENDBRANCH   7  11
ENDBRANCH   6   7
ENDBRANCH   2   6
ENDBRANCH   1   2
BRANCH   1  31
ATOM     31  P   UNL     1       7.009   1.552  24.365  0.00  0.00    +0.492 P 
ATOM     32  O   UNL     1       7.428   1.620  25.805  0.00  0.00    -0.226 OA
BRANCH  31  33
ATOM     33  O   UNL     1       5.725   2.453  24.037  0.00  0.00    -0.302 OA
ATOM     34  H   UNL     1       4.880   1.985  24.180  0.00  0.00    +0.222 HD
ENDBRANCH  31  33
BRANCH  31  35
ATOM     35  O   UNL     1       6.222  -0.046  24.085  0.00  0.00    -0.186 OA
BRANCH  35  36
ATOM     36  P   UNL     1       5.690  -0.878  25.506  0.00  0.00    +0.483 P 
ATOM     37  O   UNL     1       4.983  -1.925  24.641  0.00  0.00    -0.227 OA
BRANCH  36  38
ATOM     38  O   UNL     1       7.208  -1.415  25.784  0.00  0.00    -0.302 OA
ATOM     39  H   UNL     1       7.324  -2.357  25.572  0.00  0.00    +0.222 HD
ENDBRANCH  36  38
BRANCH  36  40
ATOM     40  O   UNL     1       5.157  -1.709  26.927  0.00  0.00    -0.284 OA
BRANCH  40  41
ATOM     41  C   UNL     1       3.736  -2.194  26.890  0.00  0.00    +0.206 C 
BRANCH  41  44
ATOM     42  C   UNL     1       1.261  -4.853  25.959  0.00  0.00    +0.226 C 
ATOM     43  O   UNL     1       2.503  -4.095  25.698  0.00  0.00    -0.348 OA
ATOM     44  C   UNL     1       3.165  -3.719  26.995  0.00  0.00    +0.175 C 
ATOM     45  C   UNL     1       2.135  -4.166  28.051  0.00  0.00    +0.150 C 
ATOM     46  C   UNL     1       1.418  -5.360  27.384  0.00  0.00    +0.088 C 
BRANCH  42  53
ATOM     47  N   UNL     1       1.580  -8.311  21.724  0.00  0.00    -0.343 N 
ATOM     48  H   UNL     1       1.224  -9.257  21.674  0.00  0.00    +0.144 HD
ATOM     49  H   UNL     1       1.667  -7.855  20.819  0.00  0.00    +0.144 HD
ATOM     50  C   UNL     1       1.165  -7.492  22.746  0.00  0.00    +0.123 A 
ATOM     51  C   UNL     1       0.859  -8.061  24.078  0.00  0.00    +0.061 A 
ATOM     52  C   UNL     1       0.837  -7.184  25.088  0.00  0.00    +0.096 A 
ATOM     53  N   UNL     1       0.913  -5.820  24.871  0.00  0.00    -0.273 N 
ATOM     54  C   UNL     1       0.778  -5.349  23.550  0.00  0.00    +0.352 A 
ATOM     55  O   UNL     1       0.448  -4.189  23.314  0.00  0.00    -0.244 OA
ATOM     56  N   UNL     1       1.073  -6.219  22.514  0.00  0.00    -0.178 NA
ENDBRANCH  42  53
BRANCH  45  57
ATOM     57  O   UNL     1       1.164  -3.155  28.309  0.00  0.00    -0.389 OA
ATOM     58  H   UNL     1       0.409  -3.327  27.718  0.00  0.00    +0.210 HD
ENDBRANCH  45  57
ENDBRANCH  41  44
ENDBRANCH  40  41
ENDBRANCH  36  40
ENDBRANCH  35  36
ENDBRANCH  31  35
ENDBRANCH   1  31
TORSDOF 21
ENDMDL
MODEL 5
REMARK VINA RESULT:      -6.4      3.560      8.173
REMARK  Name = 
REMARK  21 active torsions:
REMARK  status: ('A' for Active; 'I' for Inactive)
REMARK    1  A    between atoms: N_6  and  C_9
REMARK    2  A    between atoms: C_12  and  O_14
REMARK    3  A    between atoms: C_15  and  C_16
REMARK    4  A    between atoms: C_16  and  O_17
REMARK    5  A    between atoms: O_17  and  P_18
REMARK    6  A    between atoms: P_18  and  O_19
REMARK    7  A    between atoms: P_18  and  O_21
REMARK    8  A    between atoms: O_21  and  P_22
REMARK    9  A    between atoms: P_22  and  O_23
REMARK   10  A    between atoms: P_22  and  O_25
REMARK   11  A    between atoms: O_25  and  P_26
REMARK   12  A    between atoms: P_26  and  O_27
REMARK   13  A    between atoms: P_26  and  O_29
REMARK   14  A    between atoms: O_29  and  P_30
REMARK   15  A    between atoms: P_30  and  O_31
REMARK   16  A    between atoms: P_30  and  O_33
REMARK   17  A    between atoms: O_33  and  C_34
REMARK   18  A    between atoms: C_34  and  C_35
REMARK   19  A    between atoms: C_38  and  N_46
REMARK   20  A    between atoms: C_40  and  O_42
REMARK   21  A    between atoms: C_43  and  O_45
REMARK                            x       y       z     vdW  Elec       q    Type
REMARK                         _______ _______ _______ _____ _____    ______ ____
ROOT
ATOM      1  O   UNL     1       6.780   4.120  24.334  0.00  0.00    -0.186 OA
ENDROOT
BRANCH   1   2
ATOM      2  P   UNL     1       7.569   4.177  25.919  0.00  0.00    +0.492 P 
ATOM      3  O   UNL     1       8.657   5.200  25.972  0.00  0.00    -0.226 OA
BRANCH   2   4
ATOM      4  O   UNL     1       8.190   2.691  25.683  0.00  0.00    -0.302 OA
ATOM      5  H   UNL     1       7.674   2.212  25.002  0.00  0.00    +0.222 HD
ENDBRANCH   2   4
BRANCH   2   6
ATOM      6  O   UNL     1       7.004   3.822  27.608  0.00  0.00    -0.186 OA
BRANCH   6   7
ATOM      7  P   UNL     1       5.767   2.635  27.844  0.00  0.00    +0.483 P 
ATOM      8  O   UNL     1       6.842   1.556  27.991  0.00  0.00    -0.227 OA
BRANCH   7   9
ATOM      9  O   UNL     1       5.539   2.733  26.226  0.00  0.00    -0.302 OA
ATOM     10  H   UNL     1       5.748   3.664  25.994  0.00  0.00    +0.222 HD
ENDBRANCH   7   9
BRANCH   7  11
ATOM     11  O   UNL     1       4.531   1.450  28.081  0.00  0.00    -0.284 OA
BRANCH  11  12
ATOM     12  C   UNL     1       5.016   0.116  28.358  0.00  0.00    +0.206 C 
BRANCH  12  13
ATOM     13  C   UNL     1       4.588  -1.002  27.411  0.00  0.00    +0.178 C 
ATOM     14  C   UNL     1       3.117  -1.357  27.489  0.00  0.00    +0.178 C 
ATOM     15  C   UNL     1       3.083  -2.780  26.900  0.00  0.00    +0.195 C 
ATOM     16  C   UNL     1       4.568  -3.263  26.980  0.00  0.00    +0.255 C 
ATOM     17  O   UNL     1       5.305  -2.206  27.634  0.00  0.00    -0.346 OA
BRANCH  16  18
ATOM     18  N   UNL     1       4.874  -4.541  27.645  0.00  0.00    -0.271 N 
ATOM     19  C   UNL     1       5.269  -5.633  26.856  0.00  0.00    +0.331 A 
ATOM     20  O   UNL     1       5.286  -5.628  25.628  0.00  0.00    -0.246 OA
ATOM     21  N   UNL     1       5.693  -6.749  27.543  0.00  0.00    -0.275 N 
ATOM     22  H   UNL     1       6.015  -7.527  26.987  0.00  0.00    +0.173 HD
ATOM     23  C   UNL     1       6.063  -6.767  28.863  0.00  0.00    +0.254 A 
ATOM     24  O   UNL     1       6.697  -7.700  29.360  0.00  0.00    -0.268 OA
ATOM     25  C   UNL     1       5.693  -5.597  29.633  0.00  0.00    +0.088 A 
ATOM     26  C   UNL     1       5.118  -4.568  29.009  0.00  0.00    +0.098 A 
ENDBRANCH  16  18
BRANCH  15  27
ATOM     27  O   UNL     1       2.638  -2.747  25.536  0.00  0.00    -0.385 OA
ATOM     28  H   UNL     1       2.138  -1.924  25.401  0.00  0.00    +0.210 HD
ENDBRANCH  15  27
BRANCH  14  29
ATOM     29  O   UNL     1       2.353  -0.377  26.785  0.00  0.00    -0.386 OA
ATOM     30  H   UNL     1       1.800   0.111  27.416  0.00  0.00    +0.210 HD
ENDBRANCH  14  29
ENDBRANCH  12  13
ENDBRANCH  11  12
ENDBRANCH   7  11
ENDBRANCH   6   7
ENDBRANCH   2   6
ENDBRANCH   1   2
BRANCH   1  31
ATOM     31  P   UNL     1       7.664   3.975  22.788  0.00  0.00    +0.492 P 
ATOM     32  O   UNL     1       7.248   5.079  21.860  0.00  0.00    -0.226 OA
BRANCH  31  33
ATOM     33  O   UNL     1       9.152   4.151  23.354  0.00  0.00    -0.302 OA
ATOM     34  H   UNL     1       9.399   3.467  24.006  0.00  0.00    +0.222 HD
ENDBRANCH  31  33
BRANCH  31  35
ATOM     35  O   UNL     1       7.988   2.504  21.796  0.00  0.00    -0.186 OA
BRANCH  35  36
ATOM     36  P   UNL     1       9.279   1.495  22.353  0.00  0.00    +0.483 P 
ATOM     37  O   UNL     1       8.783   0.352  21.461  0.00  0.00    -0.227 OA
BRANCH  36  38
ATOM     38  O   UNL     1      10.358   2.361  21.485  0.00  0.00    -0.302 OA
ATOM     39  H   UNL     1      10.218   2.293  20.525  0.00  0.00    +0.222 HD
ENDBRANCH  36  38
BRANCH  36  40
ATOM     40  O   UNL     1      10.568   0.485  22.911  0.00  0.00    -0.284 OA
BRANCH  40  41
ATOM     41  C   UNL     1      10.435   0.001  24.327  0.00  0.00    +0.206 C 
BRANCH  41  44
ATOM     42  C   UNL     1       7.643  -2.501  24.375  0.00  0.00    +0.226 C 
ATOM     43  O   UNL     1       8.906  -1.984  23.807  0.00  0.00    -0.348 OA
ATOM     44  C   UNL     1       9.750  -1.369  24.888  0.00  0.00    +0.175 C 
ATOM     45  C   UNL     1       8.821  -1.409  26.118  0.00  0.00    +0.150 C 
ATOM     46  C   UNL     1       7.926  -2.642  25.863  0.00  0.00    +0.088 C 
BRANCH  42  53
ATOM     47  N   UNL     1       6.068  -5.877  20.360  0.00  0.00    -0.343 N 
ATOM     48  H   UNL     1       6.298  -6.856  20.255  0.00  0.00    +0.144 HD
ATOM     49  H   UNL     1       5.201  -5.605  19.904  0.00  0.00    +0.144 HD
ATOM     50  C   UNL     1       6.305  -5.259  21.564  0.00  0.00    +0.123 A 
ATOM     51  C   UNL     1       7.457  -5.671  22.398  0.00  0.00    +0.061 A 
ATOM     52  C   UNL     1       7.833  -4.794  23.336  0.00  0.00    +0.096 A 
ATOM     53  N   UNL     1       7.083  -3.667  23.623  0.00  0.00    -0.273 N 
ATOM     54  C   UNL     1       5.788  -3.573  23.074  0.00  0.00    +0.352 A 
ATOM     55  O   UNL     1       4.936  -2.839  23.568  0.00  0.00    -0.244 OA
ATOM     56  N   UNL     1       5.510  -4.301  21.930  0.00  0.00    -0.178 NA
ENDBRANCH  42  53
BRANCH  45  57
ATOM     57  O   UNL     1       7.980  -0.260  26.186  0.00  0.00    -0.389 OA
ATOM     58  H   UNL     1       7.911   0.098  25.282  0.00  0.00    +0.210 HD
ENDBRANCH  45  57
ENDBRANCH  41  44
ENDBRANCH  40  41
ENDBRANCH  36  40
ENDBRANCH  35  36
ENDBRANCH  31  35
ENDBRANCH   1  31
TORSDOF 21
ENDMDL
MODEL 6
REMARK VINA RESULT:      -6.3      3.695      6.753
REMARK  Name = 
REMARK  21 active torsions:
REMARK  status: ('A' for Active; 'I' for Inactive)
REMARK    1  A    between atoms: N_6  and  C_9
REMARK    2  A    between atoms: C_12  and  O_14
REMARK    3  A    between atoms: C_15  and  C_16
REMARK    4  A    between atoms: C_16  and  O_17
REMARK    5  A    between atoms: O_17  and  P_18
REMARK    6  A    between atoms: P_18  and  O_19
REMARK    7  A    between atoms: P_18  and  O_21
REMARK    8  A    between atoms: O_21  and  P_22
REMARK    9  A    between atoms: P_22  and  O_23
REMARK   10  A    between atoms: P_22  and  O_25
REMARK   11  A    between atoms: O_25  and  P_26
REMARK   12  A    between atoms: P_26  and  O_27
REMARK   13  A    between atoms: P_26  and  O_29
REMARK   14  A    between atoms: O_29  and  P_30
REMARK   15  A    between atoms: P_30  and  O_31
REMARK   16  A    between atoms: P_30  and  O_33
REMARK   17  A    between atoms: O_33  and  C_34
REMARK   18  A    between atoms: C_34  and  C_35
REMARK   19  A    between atoms: C_38  and  N_46
REMARK   20  A    between atoms: C_40  and  O_42
REMARK   21  A    between atoms: C_43  and  O_45
REMARK                            x       y       z     vdW  Elec       q    Type
REMARK                         _______ _______ _______ _____ _____    ______ ____
ROOT
ATOM      1  O   UNL     1       5.889   3.667  22.737  0.00  0.00    -0.186 OA
ENDROOT
BRANCH   1   2
ATOM      2  P   UNL     1       6.771   5.130  23.207  0.00  0.00    +0.492 P 
ATOM      3  O   UNL     1       5.876   6.157  23.822  0.00  0.00    -0.226 OA
BRANCH   2   4
ATOM      4  O   UNL     1       7.056   5.481  21.643  0.00  0.00    -0.302 OA
ATOM      5  H   UNL     1       7.526   6.338  21.568  0.00  0.00    +0.222 HD
ENDBRANCH   2   4
BRANCH   2   6
ATOM      6  O   UNL     1       8.482   5.443  23.730  0.00  0.00    -0.186 OA
BRANCH   6   7
ATOM      7  P   UNL     1       9.602   4.125  23.759  0.00  0.00    +0.483 P 
ATOM      8  O   UNL     1      10.686   5.045  23.196  0.00  0.00    -0.227 OA
BRANCH   7   9
ATOM      9  O   UNL     1       8.818   3.592  22.424  0.00  0.00    -0.302 OA
ATOM     10  H   UNL     1       9.523   3.445  21.756  0.00  0.00    +0.222 HD
ENDBRANCH   7   9
BRANCH   7  11
ATOM     11  O   UNL     1      10.721   2.807  23.789  0.00  0.00    -0.284 OA
BRANCH  11  12
ATOM     12  C   UNL     1      10.263   1.640  24.510  0.00  0.00    +0.206 C 
BRANCH  12  13
ATOM     13  C   UNL     1      10.366   0.290  23.805  0.00  0.00    +0.178 C 
ATOM     14  C   UNL     1       9.287   0.042  22.770  0.00  0.00    +0.178 C 
ATOM     15  C   UNL     1       9.290  -1.492  22.642  0.00  0.00    +0.195 C 
ATOM     16  C   UNL     1      10.026  -1.983  23.932  0.00  0.00    +0.255 C 
ATOM     17  O   UNL     1      10.313  -0.801  24.711  0.00  0.00    -0.346 OA
BRANCH  16  18
ATOM     18  N   UNL     1       9.374  -2.979  24.798  0.00  0.00    -0.271 N 
ATOM     19  C   UNL     1       8.240  -2.595  25.532  0.00  0.00    +0.331 A 
ATOM     20  O   UNL     1       7.804  -1.448  25.579  0.00  0.00    -0.246 OA
ATOM     21  N   UNL     1       7.583  -3.606  26.197  0.00  0.00    -0.275 N 
ATOM     22  H   UNL     1       6.745  -3.349  26.696  0.00  0.00    +0.173 HD
ATOM     23  C   UNL     1       7.738  -4.944  25.944  0.00  0.00    +0.254 A 
ATOM     24  O   UNL     1       6.940  -5.792  26.350  0.00  0.00    -0.268 OA
ATOM     25  C   UNL     1       8.884  -5.300  25.132  0.00  0.00    +0.088 A 
ATOM     26  C   UNL     1       9.639  -4.328  24.619  0.00  0.00    +0.098 A 
ENDBRANCH  16  18
BRANCH  15  27
ATOM     27  O   UNL     1      10.011  -1.896  21.468  0.00  0.00    -0.385 OA
ATOM     28  H   UNL     1      10.855  -1.414  21.452  0.00  0.00    +0.210 HD
ENDBRANCH  15  27
BRANCH  14  29
ATOM     29  O   UNL     1       9.597   0.764  21.578  0.00  0.00    -0.386 OA
ATOM     30  H   UNL     1       9.204   1.650  21.629  0.00  0.00    +0.210 HD
ENDBRANCH  14  29
ENDBRANCH  12  13
ENDBRANCH  11  12
ENDBRANCH   7  11
ENDBRANCH   6   7
ENDBRANCH   2   6
ENDBRANCH   1   2
BRANCH   1  31
ATOM     31  P   UNL     1       5.520   2.326  23.859  0.00  0.00    +0.492 P 
ATOM     32  O   UNL     1       4.044   2.284  24.130  0.00  0.00    -0.226 OA
BRANCH  31  33
ATOM     33  O   UNL     1       6.030   1.113  22.947  0.00  0.00    -0.302 OA
ATOM     34  H   UNL     1       6.414   1.404  22.098  0.00  0.00    +0.222 HD
ENDBRANCH  31  33
BRANCH  31  35
ATOM     35  O   UNL     1       6.379   1.833  25.366  0.00  0.00    -0.186 OA
BRANCH  35  36
ATOM     36  P   UNL     1       5.398   1.077  26.574  0.00  0.00    +0.483 P 
ATOM     37  O   UNL     1       6.607   0.980  27.510  0.00  0.00    -0.227 OA
BRANCH  36  38
ATOM     38  O   UNL     1       4.650   2.495  26.883  0.00  0.00    -0.302 OA
ATOM     39  H   UNL     1       3.931   2.414  27.533  0.00  0.00    +0.222 HD
ENDBRANCH  36  38
BRANCH  36  40
ATOM     40  O   UNL     1       4.417   0.319  27.781  0.00  0.00    -0.284 OA
BRANCH  40  41
ATOM     41  C   UNL     1       4.717  -1.132  28.031  0.00  0.00    +0.206 C 
BRANCH  41  44
ATOM     42  C   UNL     1       3.957  -2.985  24.862  0.00  0.00    +0.226 C 
ATOM     43  O   UNL     1       4.896  -2.581  25.929  0.00  0.00    -0.348 OA
ATOM     44  C   UNL     1       4.169  -2.448  27.239  0.00  0.00    +0.175 C 
ATOM     45  C   UNL     1       2.693  -2.641  26.837  0.00  0.00    +0.150 C 
ATOM     46  C   UNL     1       2.765  -3.570  25.605  0.00  0.00    +0.088 C 
BRANCH  42  53
ATOM     47  N   UNL     1       7.381  -6.194  22.038  0.00  0.00    -0.343 N 
ATOM     48  H   UNL     1       7.148  -7.019  21.501  0.00  0.00    +0.144 HD
ATOM     49  H   UNL     1       8.231  -5.727  21.730  0.00  0.00    +0.144 HD
ATOM     50  C   UNL     1       6.374  -5.351  22.441  0.00  0.00    +0.123 A 
ATOM     51  C   UNL     1       5.038  -5.895  22.774  0.00  0.00    +0.061 A 
ATOM     52  C   UNL     1       4.254  -5.092  23.504  0.00  0.00    +0.096 A 
ATOM     53  N   UNL     1       4.601  -3.779  23.769  0.00  0.00    -0.273 N 
ATOM     54  C   UNL     1       5.685  -3.222  23.062  0.00  0.00    +0.352 A 
ATOM     55  O   UNL     1       5.814  -2.007  22.940  0.00  0.00    -0.244 OA
ATOM     56  N   UNL     1       6.636  -4.084  22.541  0.00  0.00    -0.178 NA
ENDBRANCH  42  53
BRANCH  45  57
ATOM     57  O   UNL     1       2.088  -1.416  26.431  0.00  0.00    -0.389 OA
ATOM     58  H   UNL     1       1.615  -1.061  27.206  0.00  0.00    +0.210 HD
ENDBRANCH  45  57
ENDBRANCH  41  44
ENDBRANCH  40  41
ENDBRANCH  36  40
ENDBRANCH  35  36
ENDBRANCH  31  35
ENDBRANCH   1  31
TORSDOF 21
ENDMDL
MODEL 7
REMARK VINA RESULT:      -6.3      3.052      8.296
REMARK  Name = 
REMARK  21 active torsions:
REMARK  status: ('A' for Active; 'I' for Inactive)
REMARK    1  A    between atoms: N_6  and  C_9
REMARK    2  A    between atoms: C_12  and  O_14
REMARK    3  A    between atoms: C_15  and  C_16
REMARK    4  A    between atoms: C_16  and  O_17
REMARK    5  A    between atoms: O_17  and  P_18
REMARK    6  A    between atoms: P_18  and  O_19
REMARK    7  A    between atoms: P_18  and  O_21
REMARK    8  A    between atoms: O_21  and  P_22
REMARK    9  A    between atoms: P_22  and  O_23
REMARK   10  A    between atoms: P_22  and  O_25
REMARK   11  A    between atoms: O_25  and  P_26
REMARK   12  A    between atoms: P_26  and  O_27
REMARK   13  A    between atoms: P_26  and  O_29
REMARK   14  A    between atoms: O_29  and  P_30
REMARK   15  A    between atoms: P_30  and  O_31
REMARK   16  A    between atoms: P_30  and  O_33
REMARK   17  A    between atoms: O_33  and  C_34
REMARK   18  A    between atoms: C_34  and  C_35
REMARK   19  A    between atoms: C_38  and  N_46
REMARK   20  A    between atoms: C_40  and  O_42
REMARK   21  A    between atoms: C_43  and  O_45
REMARK                            x       y       z     vdW  Elec       q    Type
REMARK                         _______ _______ _______ _____ _____    ______ ____
ROOT
ATOM      1  O   UNL     1       8.068  -2.872  25.200  0.00  0.00    -0.186 OA
ENDROOT
BRANCH   1   2
ATOM      2  P   UNL     1       8.614  -4.473  25.728  0.00  0.00    +0.492 P 
ATOM      3  O   UNL     1      10.061  -4.702  25.436  0.00  0.00    -0.226 OA
BRANCH   2   4
ATOM      4  O   UNL     1       7.681  -5.183  24.598  0.00  0.00    -0.302 OA
ATOM      5  H   UNL     1       8.171  -5.259  23.753  0.00  0.00    +0.222 HD
ENDBRANCH   2   4
BRANCH   2   6
ATOM      6  O   UNL     1       8.091  -5.594  27.058  0.00  0.00    -0.186 OA
BRANCH   6   7
ATOM      7  P   UNL     1       6.505  -5.418  27.726  0.00  0.00    +0.483 P 
ATOM      8  O   UNL     1       6.826  -6.503  28.754  0.00  0.00    -0.227 OA
BRANCH   7   9
ATOM      9  O   UNL     1       5.997  -6.264  26.420  0.00  0.00    -0.302 OA
ATOM     10  H   UNL     1       6.330  -5.761  25.644  0.00  0.00    +0.222 HD
ENDBRANCH   7   9
BRANCH   7  11
ATOM     11  O   UNL     1       4.919  -5.241  28.393  0.00  0.00    -0.284 OA
BRANCH  11  12
ATOM     12  C   UNL     1       4.417  -3.885  28.411  0.00  0.00    +0.206 C 
BRANCH  12  13
ATOM     13  C   UNL     1       3.692  -3.385  27.165  0.00  0.00    +0.178 C 
ATOM     14  C   UNL     1       2.424  -4.145  26.833  0.00  0.00    +0.178 C 
ATOM     15  C   UNL     1       2.226  -3.834  25.338  0.00  0.00    +0.195 C 
ATOM     16  C   UNL     1       3.627  -3.324  24.865  0.00  0.00    +0.255 C 
ATOM     17  O   UNL     1       4.507  -3.437  26.004  0.00  0.00    -0.346 OA
BRANCH  16  18
ATOM     18  N   UNL     1       4.268  -3.959  23.701  0.00  0.00    -0.271 N 
ATOM     19  C   UNL     1       5.314  -3.280  23.054  0.00  0.00    +0.331 A 
ATOM     20  O   UNL     1       5.674  -2.140  23.333  0.00  0.00    -0.246 OA
ATOM     21  N   UNL     1       5.977  -3.989  22.077  0.00  0.00    -0.275 N 
ATOM     22  H   UNL     1       6.755  -3.526  21.632  0.00  0.00    +0.173 HD
ATOM     23  C   UNL     1       5.925  -5.350  21.920  0.00  0.00    +0.254 A 
ATOM     24  O   UNL     1       6.738  -5.968  21.230  0.00  0.00    -0.268 OA
ATOM     25  C   UNL     1       4.870  -6.025  22.649  0.00  0.00    +0.088 A 
ATOM     26  C   UNL     1       4.101  -5.316  23.476  0.00  0.00    +0.098 A 
ENDBRANCH  16  18
BRANCH  15  27
ATOM     27  O   UNL     1       1.235  -2.810  25.166  0.00  0.00    -0.385 OA
ATOM     28  H   UNL     1       0.812  -2.651  26.027  0.00  0.00    +0.210 HD
ENDBRANCH  15  27
BRANCH  14  29
ATOM     29  O   UNL     1       1.372  -3.716  27.700  0.00  0.00    -0.386 OA
ATOM     30  H   UNL     1       1.052  -4.475  28.213  0.00  0.00    +0.210 HD
ENDBRANCH  14  29
ENDBRANCH  12  13
ENDBRANCH  11  12
ENDBRANCH   7  11
ENDBRANCH   6   7
ENDBRANCH   2   6
ENDBRANCH   1   2
BRANCH   1  31
ATOM     31  P   UNL     1       7.798  -1.498  26.310  0.00  0.00    +0.492 P 
ATOM     32  O   UNL     1       9.080  -1.153  27.011  0.00  0.00    -0.226 OA
BRANCH  31  33
ATOM     33  O   UNL     1       7.358  -0.406  25.224  0.00  0.00    -0.302 OA
ATOM     34  H   UNL     1       8.107   0.116  24.877  0.00  0.00    +0.222 HD
ENDBRANCH  31  33
BRANCH  31  35
ATOM     35  O   UNL     1       6.438  -1.213  27.459  0.00  0.00    -0.186 OA
BRANCH  35  36
ATOM     36  P   UNL     1       6.041   0.445  27.753  0.00  0.00    +0.483 P 
ATOM     37  O   UNL     1       5.284   0.050  29.024  0.00  0.00    -0.227 OA
BRANCH  36  38
ATOM     38  O   UNL     1       7.586   0.761  28.178  0.00  0.00    -0.302 OA
ATOM     39  H   UNL     1       7.805   1.708  28.145  0.00  0.00    +0.222 HD
ENDBRANCH  36  38
BRANCH  36  40
ATOM     40  O   UNL     1       5.642   2.103  28.045  0.00  0.00    -0.284 OA
BRANCH  40  41
ATOM     41  C   UNL     1       6.584   3.105  27.439  0.00  0.00    +0.206 C 
BRANCH  41  44
ATOM     42  C   UNL     1       8.981   2.783  24.574  0.00  0.00    +0.226 C 
ATOM     43  O   UNL     1       7.910   2.232  25.432  0.00  0.00    -0.348 OA
ATOM     44  C   UNL     1       6.981   3.329  25.873  0.00  0.00    +0.175 C 
ATOM     45  C   UNL     1       7.676   4.602  25.349  0.00  0.00    +0.150 C 
ATOM     46  C   UNL     1       8.434   4.119  24.094  0.00  0.00    +0.088 C 
BRANCH  42  53
ATOM     47  N   UNL     1       9.612  -1.638  21.403  0.00  0.00    -0.343 N 
ATOM     48  H   UNL     1       9.730  -1.662  20.398  0.00  0.00    +0.144 HD
ATOM     49  H   UNL     1      10.005  -2.443  21.884  0.00  0.00    +0.144 HD
ATOM     50  C   UNL     1       9.756  -0.443  22.065  0.00  0.00    +0.123 A 
ATOM     51  C   UNL     1       9.358   0.824  21.410  0.00  0.00    +0.061 A 
ATOM     52  C   UNL     1       9.172   1.864  22.230  0.00  0.00    +0.096 A 
ATOM     53  N   UNL     1       9.506   1.803  23.572  0.00  0.00    -0.273 N 
ATOM     54  C   UNL     1      10.267   0.704  24.018  0.00  0.00    +0.352 A 
ATOM     55  O   UNL     1      10.921   0.758  25.056  0.00  0.00    -0.244 OA
ATOM     56  N   UNL     1      10.224  -0.464  23.275  0.00  0.00    -0.178 NA
ENDBRANCH  42  53
BRANCH  45  57
ATOM     57  O   UNL     1       8.634   5.106  26.277  0.00  0.00    -0.389 OA
ATOM     58  H   UNL     1       9.510   4.810  25.971  0.00  0.00    +0.210 HD
ENDBRANCH  45  57
ENDBRANCH  41  44
ENDBRANCH  40  41
ENDBRANCH  36  40
ENDBRANCH  35  36
ENDBRANCH  31  35
ENDBRANCH   1  31
TORSDOF 21
ENDMDL
MODEL 8
REMARK VINA RESULT:      -6.2      2.719      6.800
REMARK  Name = 
REMARK  21 active torsions:
REMARK  status: ('A' for Active; 'I' for Inactive)
REMARK    1  A    between atoms: N_6  and  C_9
REMARK    2  A    between atoms: C_12  and  O_14
REMARK    3  A    between atoms: C_15  and  C_16
REMARK    4  A    between atoms: C_16  and  O_17
REMARK    5  A    between atoms: O_17  and  P_18
REMARK    6  A    between atoms: P_18  and  O_19
REMARK    7  A    between atoms: P_18  and  O_21
REMARK    8  A    between atoms: O_21  and  P_22
REMARK    9  A    between atoms: P_22  and  O_23
REMARK   10  A    between atoms: P_22  and  O_25
REMARK   11  A    between atoms: O_25  and  P_26
REMARK   12  A    between atoms: P_26  and  O_27
REMARK   13  A    between atoms: P_26  and  O_29
REMARK   14  A    between atoms: O_29  and  P_30
REMARK   15  A    between atoms: P_30  and  O_31
REMARK   16  A    between atoms: P_30  and  O_33
REMARK   17  A    between atoms: O_33  and  C_34
REMARK   18  A    between atoms: C_34  and  C_35
REMARK   19  A    between atoms: C_38  and  N_46
REMARK   20  A    between atoms: C_40  and  O_42
REMARK   21  A    between atoms: C_43  and  O_45
REMARK                            x       y       z     vdW  Elec       q    Type
REMARK                         _______ _______ _______ _____ _____    ______ ____
ROOT
ATOM      1  O   UNL     1       6.800  -5.198  28.332  0.00  0.00    -0.186 OA
ENDROOT
BRANCH   1   2
ATOM      2  P   UNL     1       5.440  -6.229  28.805  0.00  0.00    +0.492 P 
ATOM      3  O   UNL     1       5.768  -7.098  29.975  0.00  0.00    -0.226 OA
BRANCH   2   4
ATOM      4  O   UNL     1       5.568  -7.067  27.415  0.00  0.00    -0.302 OA
ATOM      5  H   UNL     1       4.955  -7.830  27.420  0.00  0.00    +0.222 HD
ENDBRANCH   2   4
BRANCH   2   6
ATOM      6  O   UNL     1       3.636  -6.048  28.686  0.00  0.00    -0.186 OA
BRANCH   6   7
ATOM      7  P   UNL     1       2.984  -4.596  28.007  0.00  0.00    +0.483 P 
ATOM      8  O   UNL     1       3.607  -4.958  26.657  0.00  0.00    -0.227 OA
BRANCH   7   9
ATOM      9  O   UNL     1       4.196  -3.830  28.797  0.00  0.00    -0.302 OA
ATOM     10  H   UNL     1       4.511  -4.475  29.469  0.00  0.00    +0.222 HD
ENDBRANCH   7   9
BRANCH   7  11
ATOM     11  O   UNL     1       2.331  -3.146  27.329  0.00  0.00    -0.284 OA
BRANCH  11  12
ATOM     12  C   UNL     1       2.863  -1.923  27.888  0.00  0.00    +0.206 C 
BRANCH  12  13
ATOM     13  C   UNL     1       3.586  -0.970  26.940  0.00  0.00    +0.178 C 
ATOM     14  C   UNL     1       4.773  -1.581  26.224  0.00  0.00    +0.178 C 
ATOM     15  C   UNL     1       5.592  -0.343  25.812  0.00  0.00    +0.195 C 
ATOM     16  C   UNL     1       5.041   0.801  26.725  0.00  0.00    +0.255 C 
ATOM     17  O   UNL     1       4.068   0.190  27.601  0.00  0.00    -0.346 OA
BRANCH  16  18
ATOM     18  N   UNL     1       5.983   1.592  27.534  0.00  0.00    -0.271 N 
ATOM     19  C   UNL     1       6.094   2.970  27.285  0.00  0.00    +0.331 A 
ATOM     20  O   UNL     1       5.527   3.553  26.365  0.00  0.00    -0.246 OA
ATOM     21  N   UNL     1       6.869   3.681  28.174  0.00  0.00    -0.275 N 
ATOM     22  H   UNL     1       6.926   4.677  28.027  0.00  0.00    +0.173 HD
ATOM     23  C   UNL     1       7.249   3.239  29.415  0.00  0.00    +0.254 A 
ATOM     24  O   UNL     1       7.691   3.997  30.280  0.00  0.00    -0.268 OA
ATOM     25  C   UNL     1       7.064   1.823  29.660  0.00  0.00    +0.088 A 
ATOM     26  C   UNL     1       6.467   1.079  28.728  0.00  0.00    +0.098 A 
ENDBRANCH  16  18
BRANCH  15  27
ATOM     27  O   UNL     1       5.369  -0.033  24.429  0.00  0.00    -0.385 OA
ATOM     28  H   UNL     1       5.042  -0.836  23.988  0.00  0.00    +0.210 HD
ENDBRANCH  15  27
BRANCH  14  29
ATOM     29  O   UNL     1       4.310  -2.403  25.152  0.00  0.00    -0.386 OA
ATOM     30  H   UNL     1       3.371  -2.607  25.288  0.00  0.00    +0.210 HD
ENDBRANCH  14  29
ENDBRANCH  12  13
ENDBRANCH  11  12
ENDBRANCH   7  11
ENDBRANCH   6   7
ENDBRANCH   2   6
ENDBRANCH   1   2
BRANCH   1  31
ATOM     31  P   UNL     1       7.307  -4.935  26.640  0.00  0.00    +0.492 P 
ATOM     32  O   UNL     1       7.728  -3.506  26.452  0.00  0.00    -0.226 OA
BRANCH  31  33
ATOM     33  O   UNL     1       8.533  -5.965  26.601  0.00  0.00    -0.302 OA
ATOM     34  H   UNL     1       9.087  -5.935  27.404  0.00  0.00    +0.222 HD
ENDBRANCH  31  33
BRANCH  31  35
ATOM     35  O   UNL     1       6.519  -5.489  25.115  0.00  0.00    -0.186 OA
BRANCH  35  36
ATOM     36  P   UNL     1       7.002  -4.659  23.676  0.00  0.00    +0.483 P 
ATOM     37  O   UNL     1       8.389  -5.305  23.758  0.00  0.00    -0.227 OA
BRANCH  36  38
ATOM     38  O   UNL     1       6.058  -5.637  22.771  0.00  0.00    -0.302 OA
ATOM     39  H   UNL     1       5.285  -5.975  23.255  0.00  0.00    +0.222 HD
ENDBRANCH  36  38
BRANCH  36  40
ATOM     40  O   UNL     1       7.487  -3.828  22.239  0.00  0.00    -0.284 OA
BRANCH  40  41
ATOM     41  C   UNL     1       7.414  -2.328  22.311  0.00  0.00    +0.206 C 
BRANCH  41  44
ATOM     42  C   UNL     1       9.152   0.988  22.510  0.00  0.00    +0.226 C 
ATOM     43  O   UNL     1       7.979   0.126  22.768  0.00  0.00    -0.348 OA
ATOM     44  C   UNL     1       8.422  -1.283  23.053  0.00  0.00    +0.175 C 
ATOM     45  C   UNL     1       9.939  -1.230  22.780  0.00  0.00    +0.150 C 
ATOM     46  C   UNL     1      10.323   0.228  23.113  0.00  0.00    +0.088 C 
BRANCH  42  53
ATOM     47  N   UNL     1       7.500   5.535  25.079  0.00  0.00    -0.343 N 
ATOM     48  H   UNL     1       8.077   6.299  25.408  0.00  0.00    +0.144 HD
ATOM     49  H   UNL     1       6.539   5.800  24.881  0.00  0.00    +0.144 HD
ATOM     50  C   UNL     1       8.038   4.618  24.209  0.00  0.00    +0.123 A 
ATOM     51  C   UNL     1       9.471   4.259  24.298  0.00  0.00    +0.061 A 
ATOM     52  C   UNL     1       9.818   3.116  23.693  0.00  0.00    +0.096 A 
ATOM     53  N   UNL     1       8.934   2.420  22.889  0.00  0.00    -0.273 N 
ATOM     54  C   UNL     1       7.729   3.052  22.522  0.00  0.00    +0.352 A 
ATOM     55  O   UNL     1       7.092   2.693  21.536  0.00  0.00    -0.244 OA
ATOM     56  N   UNL     1       7.253   4.069  23.333  0.00  0.00    -0.178 NA
ENDBRANCH  42  53
BRANCH  45  57
ATOM     57  O   UNL     1      10.240  -1.464  21.407  0.00  0.00    -0.389 OA
ATOM     58  H   UNL     1      10.462  -0.601  21.012  0.00  0.00    +0.210 HD
ENDBRANCH  45  57
ENDBRANCH  41  44
ENDBRANCH  40  41
ENDBRANCH  36  40
ENDBRANCH  35  36
ENDBRANCH  31  35
ENDBRANCH   1  31
TORSDOF 21
ENDMDL
MODEL 9
REMARK VINA RESULT:      -6.2      3.112      5.328
REMARK  Name = 
REMARK  21 active torsions:
REMARK  status: ('A' for Active; 'I' for Inactive)
REMARK    1  A    between atoms: N_6  and  C_9
REMARK    2  A    between atoms: C_12  and  O_14
REMARK    3  A    between atoms: C_15  and  C_16
REMARK    4  A    between atoms: C_16  and  O_17
REMARK    5  A    between atoms: O_17  and  P_18
REMARK    6  A    between atoms: P_18  and  O_19
REMARK    7  A    between atoms: P_18  and  O_21
REMARK    8  A    between atoms: O_21  and  P_22
REMARK    9  A    between atoms: P_22  and  O_23
REMARK   10  A    between atoms: P_22  and  O_25
REMARK   11  A    between atoms: O_25  and  P_26
REMARK   12  A    between atoms: P_26  and  O_27
REMARK   13  A    between atoms: P_26  and  O_29
REMARK   14  A    between atoms: O_29  and  P_30
REMARK   15  A    between atoms: P_30  and  O_31
REMARK   16  A    between atoms: P_30  and  O_33
REMARK   17  A    between atoms: O_33  and  C_34
REMARK   18  A    between atoms: C_34  and  C_35
REMARK   19  A    between atoms: C_38  and  N_46
REMARK   20  A    between atoms: C_40  and  O_42
REMARK   21  A    between atoms: C_43  and  O_45
REMARK                            x       y       z     vdW  Elec       q    Type
REMARK                         _______ _______ _______ _____ _____    ______ ____
ROOT
ATOM      1  O   UNL     1       6.821  -5.543  24.961  0.00  0.00    -0.186 OA
ENDROOT
BRANCH   1   2
ATOM      2  P   UNL     1       7.397  -4.905  23.412  0.00  0.00    +0.492 P 
ATOM      3  O   UNL     1       7.279  -5.905  22.308  0.00  0.00    -0.226 OA
BRANCH   2   4
ATOM      4  O   UNL     1       8.922  -4.854  23.980  0.00  0.00    -0.302 OA
ATOM      5  H   UNL     1       8.991  -5.366  24.812  0.00  0.00    +0.222 HD
ENDBRANCH   2   4
BRANCH   2   6
ATOM      6  O   UNL     1       7.464  -3.236  22.697  0.00  0.00    -0.186 OA
BRANCH   6   7
ATOM      7  P   UNL     1       6.784  -1.917  23.585  0.00  0.00    +0.483 P 
ATOM      8  O   UNL     1       7.935  -2.009  24.588  0.00  0.00    -0.227 OA
BRANCH   7   9
ATOM      9  O   UNL     1       5.702  -3.012  24.141  0.00  0.00    -0.302 OA
ATOM     10  H   UNL     1       6.242  -3.706  24.580  0.00  0.00    +0.222 HD
ENDBRANCH   7   9
BRANCH   7  11
ATOM     11  O   UNL     1       6.104  -0.598  24.472  0.00  0.00    -0.284 OA
BRANCH  11  12
ATOM     12  C   UNL     1       7.068   0.356  24.974  0.00  0.00    +0.206 C 
BRANCH  12  13
ATOM     13  C   UNL     1       7.074   1.748  24.348  0.00  0.00    +0.178 C 
ATOM     14  C   UNL     1       7.145   1.752  22.835  0.00  0.00    +0.178 C 
ATOM     15  C   UNL     1       7.677   3.164  22.526  0.00  0.00    +0.195 C 
ATOM     16  C   UNL     1       8.289   3.647  23.882  0.00  0.00    +0.255 C 
ATOM     17  O   UNL     1       8.159   2.542  24.803  0.00  0.00    -0.346 OA
BRANCH  16  18
ATOM     18  N   UNL     1       9.678   4.133  23.911  0.00  0.00    -0.271 N 
ATOM     19  C   UNL     1      10.699   3.284  23.452  0.00  0.00    +0.331 A 
ATOM     20  O   UNL     1      10.526   2.117  23.113  0.00  0.00    -0.246 OA
ATOM     21  N   UNL     1      11.951   3.848  23.356  0.00  0.00    -0.275 N 
ATOM     22  H   UNL     1      12.685   3.260  22.991  0.00  0.00    +0.173 HD
ATOM     23  C   UNL     1      12.210   5.194  23.350  0.00  0.00    +0.254 A 
ATOM     24  O   UNL     1      13.291   5.659  22.981  0.00  0.00    -0.268 OA
ATOM     25  C   UNL     1      11.115   6.045  23.771  0.00  0.00    +0.088 A 
ATOM     26  C   UNL     1       9.933   5.490  24.039  0.00  0.00    +0.098 A 
ENDBRANCH  16  18
BRANCH  15  27
ATOM     27  O   UNL     1       6.603   4.027  22.124  0.00  0.00    -0.385 OA
ATOM     28  H   UNL     1       6.965   4.697  21.519  0.00  0.00    +0.210 HD
ENDBRANCH  15  27
BRANCH  14  29
ATOM     29  O   UNL     1       5.858   1.443  22.298  0.00  0.00    -0.386 OA
ATOM     30  H   UNL     1       5.527   2.208  21.800  0.00  0.00    +0.210 HD
ENDBRANCH  14  29
ENDBRANCH  12  13
ENDBRANCH  11  12
ENDBRANCH   7  11
ENDBRANCH   6   7
ENDBRANCH   2   6
ENDBRANCH   1   2
BRANCH   1  31
ATOM     31  P   UNL     1       7.576  -5.164  26.534  0.00  0.00    +0.492 P 
ATOM     32  O   UNL     1       9.033  -4.860  26.338  0.00  0.00    -0.226 OA
BRANCH  31  33
ATOM     33  O   UNL     1       6.705  -3.872  26.905  0.00  0.00    -0.302 OA
ATOM     34  H   UNL     1       5.892  -3.789  26.371  0.00  0.00    +0.222 HD
ENDBRANCH  31  33
BRANCH  31  35
ATOM     35  O   UNL     1       7.389  -6.005  28.119  0.00  0.00    -0.186 OA
BRANCH  35  36
ATOM     36  P   UNL     1       5.775  -6.090  28.736  0.00  0.00    +0.483 P 
ATOM     37  O   UNL     1       5.385  -7.055  27.612  0.00  0.00    -0.227 OA
BRANCH  36  38
ATOM     38  O   UNL     1       6.284  -6.990  30.001  0.00  0.00    -0.302 OA
ATOM     39  H   UNL     1       6.099  -6.576  30.862  0.00  0.00    +0.222 HD
ENDBRANCH  36  38
BRANCH  36  40
ATOM     40  O   UNL     1       4.160  -6.173  29.352  0.00  0.00    -0.284 OA
BRANCH  40  41
ATOM     41  C   UNL     1       3.376  -4.894  29.268  0.00  0.00    +0.206 C 
BRANCH  41  44
ATOM     42  C   UNL     1       2.697  -4.535  25.598  0.00  0.00    +0.226 C 
ATOM     43  O   UNL     1       2.553  -5.268  26.873  0.00  0.00    -0.348 OA
ATOM     44  C   UNL     1       2.500  -4.304  28.025  0.00  0.00    +0.175 C 
ATOM     45  C   UNL     1       2.791  -2.947  27.353  0.00  0.00    +0.150 C 
ATOM     46  C   UNL     1       2.242  -3.120  25.920  0.00  0.00    +0.088 C 
BRANCH  42  53
ATOM     47  N   UNL     1       1.360  -8.370  21.922  0.00  0.00    -0.343 N 
ATOM     48  H   UNL     1       0.431  -8.652  21.638  0.00  0.00    +0.144 HD
ATOM     49  H   UNL     1       2.077  -8.543  21.221  0.00  0.00    +0.144 HD
ATOM     50  C   UNL     1       1.518  -7.206  22.635  0.00  0.00    +0.123 A 
ATOM     51  C   UNL     1       0.470  -6.765  23.582  0.00  0.00    +0.061 A 
ATOM     52  C   UNL     1       0.856  -5.861  24.490  0.00  0.00    +0.096 A 
ATOM     53  N   UNL     1       2.095  -5.249  24.428  0.00  0.00    -0.273 N 
ATOM     54  C   UNL     1       2.862  -5.418  23.258  0.00  0.00    +0.352 A 
ATOM     55  O   UNL     1       3.755  -4.630  22.958  0.00  0.00    -0.244 OA
ATOM     56  N   UNL     1       2.612  -6.528  22.468  0.00  0.00    -0.178 NA
ENDBRANCH  42  53
BRANCH  45  57
ATOM     57  O   UNL     1       4.190  -2.687  27.263  0.00  0.00    -0.389 OA
ATOM     58  H   UNL     1       4.315  -2.049  26.537  0.00  0.00    +0.210 HD
ENDBRANCH  45  57
ENDBRANCH  41  44
ENDBRANCH  40  41
ENDBRANCH  36  40
ENDBRANCH  35  36
ENDBRANCH  31  35
ENDBRANCH   1  31
TORSDOF 21
ENDMDL
