MODEL 1
REMARK VINA RESULT:      -7.8      0.000      0.000
REMARK  Name = 
REMARK  3 active torsions:
REMARK  status: ('A' for Active; 'I' for Inactive)
REMARK    1  A    between atoms: C_9  and  N_13
REMARK    2  A    between atoms: C_15  and  C_16
REMARK    3  A    between atoms: C_17  and  C_18
REMARK                            x       y       z     vdW  Elec       q    Type
REMARK                         _______ _______ _______ _____ _____    ______ ____
ROOT
ATOM      1  N   UNL     1       6.839  -0.831  24.704  0.00  0.00    +0.068 N 
ATOM      2  N   UNL     1       6.222  -0.249  25.723  0.00  0.00    +0.028 N 
ATOM      3  C   UNL     1       4.982  -0.542  26.331  0.00  0.00    +0.259 A 
ATOM      4  S   UNL     1       4.239   0.571  27.425  0.00  0.00    -0.042 S 
ATOM      5  C   UNL     1       2.789  -0.338  27.381  0.00  0.00    +0.041 A 
ATOM      6  C   UNL     1       1.537  -0.012  27.922  0.00  0.00    +0.017 A 
ATOM      7  C   UNL     1       0.511  -0.948  27.804  0.00  0.00    +0.001 A 
ATOM      8  C   UNL     1       0.744  -2.188  27.219  0.00  0.00    +0.002 A 
ATOM      9  C   UNL     1       1.996  -2.497  26.668  0.00  0.00    +0.029 A 
ATOM     10  C   UNL     1       3.024  -1.531  26.701  0.00  0.00    +0.081 A 
ATOM     11  N   UNL     1       4.263  -1.608  26.073  0.00  0.00    -0.216 NA
ATOM     12  N   UNL     1       6.857   0.935  26.044  0.00  0.00    -0.084 NA
ATOM     13  C   UNL     1       7.784   1.003  25.113  0.00  0.00    +0.247 A 
ATOM     14  N   UNL     1       7.861   0.002  24.259  0.00  0.00    +0.057 NA
ENDROOT
BRANCH   1  20
ATOM     15  O   UNL     1       5.829  -5.720  20.617  0.00  0.00    -0.266 OA
ATOM     16  C   UNL     1       5.743  -5.682  21.837  0.00  0.00    +0.271 A 
ATOM     17  C   UNL     1       6.050  -4.442  22.578  0.00  0.00    +0.053 A 
ATOM     18  C   UNL     1       6.041  -4.439  23.969  0.00  0.00    +0.059 A 
ATOM     19  C   UNL     1       6.384  -3.283  24.688  0.00  0.00    +0.098 A 
ATOM     20  C   UNL     1       6.593  -2.096  24.002  0.00  0.00    +0.271 A 
ATOM     21  C   UNL     1       6.613  -2.086  22.600  0.00  0.00    +0.085 A 
ATOM     22  C   UNL     1       5.576  -5.627  24.711  0.00  0.00    +0.271 A 
ATOM     23  O   UNL     1       5.436  -5.582  25.927  0.00  0.00    -0.266 OA
ATOM     24  N   UNL     1       5.253  -6.732  23.968  0.00  0.00    -0.263 N 
ATOM     25  H   UNL     1       4.828  -7.523  24.448  0.00  0.00    +0.190 HD
ATOM     26  C   UNL     1       6.360  -3.264  21.888  0.00  0.00    +0.021 A 
ATOM     27  N   UNL     1       5.370  -6.770  22.586  0.00  0.00    -0.263 N 
ATOM     28  H   UNL     1       5.177  -7.641  22.096  0.00  0.00    +0.190 HD
ENDBRANCH   1  20
BRANCH  13  29
ATOM     29  C   UNL     1       8.653   2.134  24.997  0.00  0.00    +0.057 C 
ATOM     30  C   UNL     1       9.264   2.547  23.871  0.00  0.00    +0.012 C 
BRANCH  30  31
ATOM     31  C   UNL     1      10.113   3.747  23.782  0.00  0.00    -0.025 A 
ATOM     32  C   UNL     1      11.446   3.598  23.373  0.00  0.00    +0.008 A 
ATOM     33  C   UNL     1      12.285   4.708  23.262  0.00  0.00    +0.001 A 
ATOM     34  C   UNL     1      11.809   5.979  23.569  0.00  0.00    +0.000 A 
ATOM     35  C   UNL     1      10.494   6.138  24.003  0.00  0.00    +0.001 A 
ATOM     36  C   UNL     1       9.654   5.029  24.118  0.00  0.00    +0.008 A 
ENDBRANCH  30  31
ENDBRANCH  13  29
TORSDOF 3
ENDMDL
MODEL 2
REMARK VINA RESULT:      -7.6      1.043      2.195
REMARK  Name = 
REMARK  3 active torsions:
REMARK  status: ('A' for Active; 'I' for Inactive)
REMARK    1  A    between atoms: C_9  and  N_13
REMARK    2  A    between atoms: C_15  and  C_16
REMARK    3  A    between atoms: C_17  and  C_18
REMARK                            x       y       z     vdW  Elec       q    Type
REMARK                         _______ _______ _______ _____ _____    ______ ____
ROOT
ATOM      1  N   UNL     1       6.671  -0.917  25.479  0.00  0.00    +0.068 N 
ATOM      2  N   UNL     1       6.165   0.069  26.207  0.00  0.00    +0.028 N 
ATOM      3  C   UNL     1       4.903   0.197  26.825  0.00  0.00    +0.259 A 
ATOM      4  S   UNL     1       4.358   1.720  27.434  0.00  0.00    -0.042 S 
ATOM      5  C   UNL     1       2.783   1.083  27.646  0.00  0.00    +0.041 A 
ATOM      6  C   UNL     1       1.605   1.762  27.987  0.00  0.00    +0.017 A 
ATOM      7  C   UNL     1       0.443   1.011  28.157  0.00  0.00    +0.001 A 
ATOM      8  C   UNL     1       0.472  -0.376  28.047  0.00  0.00    +0.002 A 
ATOM      9  C   UNL     1       1.653  -1.043  27.690  0.00  0.00    +0.029 A 
ATOM     10  C   UNL     1       2.819  -0.293  27.431  0.00  0.00    +0.081 A 
ATOM     11  N   UNL     1       4.023  -0.771  26.921  0.00  0.00    -0.216 NA
ATOM     12  N   UNL     1       6.982   1.180  26.124  0.00  0.00    -0.084 NA
ATOM     13  C   UNL     1       7.896   0.779  25.268  0.00  0.00    +0.247 A 
ATOM     14  N   UNL     1       7.805  -0.456  24.817  0.00  0.00    +0.057 NA
ENDROOT
BRANCH   1  20
ATOM     15  O   UNL     1       4.957  -7.136  25.624  0.00  0.00    -0.266 OA
ATOM     16  C   UNL     1       5.070  -6.371  24.675  0.00  0.00    +0.271 A 
ATOM     17  C   UNL     1       5.456  -4.961  24.883  0.00  0.00    +0.053 A 
ATOM     18  C   UNL     1       5.489  -4.079  23.807  0.00  0.00    +0.059 A 
ATOM     19  C   UNL     1       5.801  -2.725  23.997  0.00  0.00    +0.098 A 
ATOM     20  C   UNL     1       6.221  -2.295  25.247  0.00  0.00    +0.271 A 
ATOM     21  C   UNL     1       6.185  -3.170  26.342  0.00  0.00    +0.085 A 
ATOM     22  C   UNL     1       5.288  -4.578  22.432  0.00  0.00    +0.271 A 
ATOM     23  O   UNL     1       5.452  -3.834  21.473  0.00  0.00    -0.266 OA
ATOM     24  N   UNL     1       4.985  -5.908  22.295  0.00  0.00    -0.263 N 
ATOM     25  H   UNL     1       4.951  -6.295  21.355  0.00  0.00    +0.190 HD
ATOM     26  C   UNL     1       5.785  -4.500  26.163  0.00  0.00    +0.021 A 
ATOM     27  N   UNL     1       4.843  -6.763  23.379  0.00  0.00    -0.263 N 
ATOM     28  H   UNL     1       4.552  -7.724  23.216  0.00  0.00    +0.190 HD
ENDBRANCH   1  20
BRANCH  13  29
ATOM     29  C   UNL     1       8.930   1.654  24.804  0.00  0.00    +0.057 C 
ATOM     30  C   UNL     1       8.777   2.948  24.469  0.00  0.00    +0.012 C 
BRANCH  30  31
ATOM     31  C   UNL     1       9.878   3.829  24.043  0.00  0.00    -0.025 A 
ATOM     32  C   UNL     1       9.740   5.212  24.228  0.00  0.00    +0.008 A 
ATOM     33  C   UNL     1      10.761   6.086  23.852  0.00  0.00    +0.001 A 
ATOM     34  C   UNL     1      11.927   5.592  23.275  0.00  0.00    +0.000 A 
ATOM     35  C   UNL     1      12.066   4.222  23.059  0.00  0.00    +0.001 A 
ATOM     36  C   UNL     1      11.044   3.347  23.432  0.00  0.00    +0.008 A 
ENDBRANCH  30  31
ENDBRANCH  13  29
TORSDOF 3
ENDMDL
MODEL 3
REMARK VINA RESULT:      -7.4      1.601      2.093
REMARK  Name = 
REMARK  3 active torsions:
REMARK  status: ('A' for Active; 'I' for Inactive)
REMARK    1  A    between atoms: C_9  and  N_13
REMARK    2  A    between atoms: C_15  and  C_16
REMARK    3  A    between atoms: C_17  and  C_18
REMARK                            x       y       z     vdW  Elec       q    Type
REMARK                         _______ _______ _______ _____ _____    ______ ____
ROOT
ATOM      1  N   UNL     1       6.655  -1.005  25.713  0.00  0.00    +0.068 N 
ATOM      2  N   UNL     1       6.144   0.002  26.409  0.00  0.00    +0.028 N 
ATOM      3  C   UNL     1       4.892   0.132  27.046  0.00  0.00    +0.259 A 
ATOM      4  S   UNL     1       4.328   1.669  27.601  0.00  0.00    -0.042 S 
ATOM      5  C   UNL     1       2.771   1.012  27.871  0.00  0.00    +0.041 A 
ATOM      6  C   UNL     1       1.586   1.682  28.207  0.00  0.00    +0.017 A 
ATOM      7  C   UNL     1       0.443   0.916  28.432  0.00  0.00    +0.001 A 
ATOM      8  C   UNL     1       0.497  -0.473  28.380  0.00  0.00    +0.002 A 
ATOM      9  C   UNL     1       1.684  -1.132  28.028  0.00  0.00    +0.029 A 
ATOM     10  C   UNL     1       2.830  -0.372  27.714  0.00  0.00    +0.081 A 
ATOM     11  N   UNL     1       4.033  -0.847  27.201  0.00  0.00    -0.216 NA
ATOM     12  N   UNL     1       6.937   1.124  26.263  0.00  0.00    -0.084 NA
ATOM     13  C   UNL     1       7.842   0.704  25.406  0.00  0.00    +0.247 A 
ATOM     14  N   UNL     1       7.766  -0.550  25.010  0.00  0.00    +0.057 NA
ENDROOT
BRANCH   1  20
ATOM     15  O   UNL     1       4.293  -6.746  23.957  0.00  0.00    -0.266 OA
ATOM     16  C   UNL     1       4.802  -6.392  25.012  0.00  0.00    +0.271 A 
ATOM     17  C   UNL     1       5.303  -5.014  25.185  0.00  0.00    +0.053 A 
ATOM     18  C   UNL     1       5.965  -4.652  26.354  0.00  0.00    +0.059 A 
ATOM     19  C   UNL     1       6.495  -3.362  26.510  0.00  0.00    +0.098 A 
ATOM     20  C   UNL     1       6.228  -2.399  25.548  0.00  0.00    +0.271 A 
ATOM     21  C   UNL     1       5.570  -2.751  24.362  0.00  0.00    +0.085 A 
ATOM     22  C   UNL     1       6.036  -5.594  27.488  0.00  0.00    +0.271 A 
ATOM     23  O   UNL     1       6.495  -5.233  28.565  0.00  0.00    -0.266 OA
ATOM     24  N   UNL     1       5.506  -6.842  27.290  0.00  0.00    -0.263 N 
ATOM     25  H   UNL     1       5.446  -7.468  28.089  0.00  0.00    +0.190 HD
ATOM     26  C   UNL     1       5.123  -4.064  24.172  0.00  0.00    +0.021 A 
ATOM     27  N   UNL     1       4.946  -7.239  26.084  0.00  0.00    -0.263 N 
ATOM     28  H   UNL     1       4.629  -8.200  25.977  0.00  0.00    +0.190 HD
ENDBRANCH   1  20
BRANCH  13  29
ATOM     29  C   UNL     1       8.850   1.578  24.886  0.00  0.00    +0.057 C 
ATOM     30  C   UNL     1       8.683   2.876  24.573  0.00  0.00    +0.012 C 
BRANCH  30  31
ATOM     31  C   UNL     1       9.759   3.755  24.087  0.00  0.00    -0.025 A 
ATOM     32  C   UNL     1       9.547   5.141  24.090  0.00  0.00    +0.008 A 
ATOM     33  C   UNL     1      10.542   6.016  23.649  0.00  0.00    +0.001 A 
ATOM     34  C   UNL     1      11.756   5.518  23.188  0.00  0.00    +0.000 A 
ATOM     35  C   UNL     1      11.971   4.141  23.153  0.00  0.00    +0.001 A 
ATOM     36  C   UNL     1      10.975   3.265  23.590  0.00  0.00    +0.008 A 
ENDBRANCH  30  31
ENDBRANCH  13  29
TORSDOF 3
ENDMDL
MODEL 4
REMARK VINA RESULT:      -7.4      2.738      5.679
REMARK  Name = 
REMARK  3 active torsions:
REMARK  status: ('A' for Active; 'I' for Inactive)
REMARK    1  A    between atoms: C_9  and  N_13
REMARK    2  A    between atoms: C_15  and  C_16
REMARK    3  A    between atoms: C_17  and  C_18
REMARK                            x       y       z     vdW  Elec       q    Type
REMARK                         _______ _______ _______ _____ _____    ______ ____
ROOT
ATOM      1  N   UNL     1       6.626  -0.150  25.341  0.00  0.00    +0.068 N 
ATOM      2  N   UNL     1       7.016  -0.691  24.195  0.00  0.00    +0.028 N 
ATOM      3  C   UNL     1       6.701  -1.940  23.618  0.00  0.00    +0.259 A 
ATOM      4  S   UNL     1       7.599  -2.556  22.276  0.00  0.00    -0.042 S 
ATOM      5  C   UNL     1       6.849  -4.083  22.461  0.00  0.00    +0.041 A 
ATOM      6  C   UNL     1       7.151  -5.289  21.812  0.00  0.00    +0.017 A 
ATOM      7  C   UNL     1       6.355  -6.399  22.092  0.00  0.00    +0.001 A 
ATOM      8  C   UNL     1       5.262  -6.292  22.946  0.00  0.00    +0.002 A 
ATOM      9  C   UNL     1       4.980  -5.085  23.602  0.00  0.00    +0.029 A 
ATOM     10  C   UNL     1       5.823  -3.973  23.397  0.00  0.00    +0.081 A 
ATOM     11  N   UNL     1       5.784  -2.759  24.076  0.00  0.00    -0.216 NA
ATOM     12  N   UNL     1       8.040   0.056  23.647  0.00  0.00    -0.084 NA
ATOM     13  C   UNL     1       8.236   0.966  24.575  0.00  0.00    +0.247 A 
ATOM     14  N   UNL     1       7.448   0.934  25.632  0.00  0.00    +0.057 NA
ENDROOT
BRANCH   1  20
ATOM     15  O   UNL     1       2.712  -2.754  29.761  0.00  0.00    -0.266 OA
ATOM     16  C   UNL     1       2.531  -1.808  29.006  0.00  0.00    +0.271 A 
ATOM     17  C   UNL     1       3.593  -1.363  28.081  0.00  0.00    +0.053 A 
ATOM     18  C   UNL     1       3.408  -0.229  27.297  0.00  0.00    +0.059 A 
ATOM     19  C   UNL     1       4.428   0.236  26.454  0.00  0.00    +0.098 A 
ATOM     20  C   UNL     1       5.576  -0.525  26.296  0.00  0.00    +0.271 A 
ATOM     21  C   UNL     1       5.780  -1.666  27.085  0.00  0.00    +0.085 A 
ATOM     22  C   UNL     1       2.096   0.448  27.269  0.00  0.00    +0.271 A 
ATOM     23  O   UNL     1       1.887   1.360  26.480  0.00  0.00    -0.266 OA
ATOM     24  N   UNL     1       1.130  -0.041  28.109  0.00  0.00    -0.263 N 
ATOM     25  H   UNL     1       0.190   0.338  28.028  0.00  0.00    +0.190 HD
ATOM     26  C   UNL     1       4.795  -2.075  27.992  0.00  0.00    +0.021 A 
ATOM     27  N   UNL     1       1.352  -1.104  28.973  0.00  0.00    -0.263 N 
ATOM     28  H   UNL     1       0.616  -1.379  29.620  0.00  0.00    +0.190 HD
ENDBRANCH   1  20
BRANCH  13  29
ATOM     29  C   UNL     1       9.287   1.933  24.474  0.00  0.00    +0.057 C 
ATOM     30  C   UNL     1       9.184   3.154  23.919  0.00  0.00    +0.012 C 
BRANCH  30  31
ATOM     31  C   UNL     1      10.277   4.141  23.879  0.00  0.00    -0.025 A 
ATOM     32  C   UNL     1      10.040   5.426  24.388  0.00  0.00    +0.008 A 
ATOM     33  C   UNL     1      11.048   6.391  24.382  0.00  0.00    +0.001 A 
ATOM     34  C   UNL     1      12.302   6.090  23.858  0.00  0.00    +0.000 A 
ATOM     35  C   UNL     1      12.542   4.826  23.324  0.00  0.00    +0.001 A 
ATOM     36  C   UNL     1      11.534   3.860  23.325  0.00  0.00    +0.008 A 
ENDBRANCH  30  31
ENDBRANCH  13  29
TORSDOF 3
ENDMDL
MODEL 5
REMARK VINA RESULT:      -7.4      3.602      8.652
REMARK  Name = 
REMARK  3 active torsions:
REMARK  status: ('A' for Active; 'I' for Inactive)
REMARK    1  A    between atoms: C_9  and  N_13
REMARK    2  A    between atoms: C_15  and  C_16
REMARK    3  A    between atoms: C_17  and  C_18
REMARK                            x       y       z     vdW  Elec       q    Type
REMARK                         _______ _______ _______ _____ _____    ______ ____
ROOT
ATOM      1  N   UNL     1       5.923  -1.765  24.525  0.00  0.00    +0.068 N 
ATOM      2  N   UNL     1       4.925  -1.571  25.376  0.00  0.00    +0.028 N 
ATOM      3  C   UNL     1       4.792  -0.652  26.437  0.00  0.00    +0.259 A 
ATOM      4  S   UNL     1       3.536  -0.820  27.613  0.00  0.00    -0.042 S 
ATOM      5  C   UNL     1       4.280   0.369  28.594  0.00  0.00    +0.041 A 
ATOM      6  C   UNL     1       3.953   0.751  29.902  0.00  0.00    +0.017 A 
ATOM      7  C   UNL     1       4.677   1.794  30.479  0.00  0.00    +0.001 A 
ATOM      8  C   UNL     1       5.652   2.468  29.753  0.00  0.00    +0.002 A 
ATOM      9  C   UNL     1       5.981   2.067  28.449  0.00  0.00    +0.029 A 
ATOM     10  C   UNL     1       5.320   0.960  27.878  0.00  0.00    +0.081 A 
ATOM     11  N   UNL     1       5.624   0.335  26.673  0.00  0.00    -0.216 NA
ATOM     12  N   UNL     1       4.008  -2.599  25.266  0.00  0.00    -0.084 NA
ATOM     13  C   UNL     1       4.590  -3.385  24.387  0.00  0.00    +0.247 A 
ATOM     14  N   UNL     1       5.739  -2.985  23.881  0.00  0.00    +0.057 NA
ENDROOT
BRANCH   1  20
ATOM     15  O   UNL     1      11.662   1.161  24.160  0.00  0.00    -0.266 OA
ATOM     16  C   UNL     1      10.627   1.375  23.542  0.00  0.00    +0.271 A 
ATOM     17  C   UNL     1       9.424   0.551  23.775  0.00  0.00    +0.053 A 
ATOM     18  C   UNL     1       8.285   0.742  22.999  0.00  0.00    +0.059 A 
ATOM     19  C   UNL     1       7.153  -0.069  23.172  0.00  0.00    +0.098 A 
ATOM     20  C   UNL     1       7.122  -0.973  24.223  0.00  0.00    +0.271 A 
ATOM     21  C   UNL     1       8.265  -1.182  25.007  0.00  0.00    +0.085 A 
ATOM     22  C   UNL     1       8.216   1.868  22.047  0.00  0.00    +0.271 A 
ATOM     23  O   UNL     1       7.170   2.123  21.464  0.00  0.00    -0.266 OA
ATOM     24  N   UNL     1       9.346   2.632  21.911  0.00  0.00    -0.263 N 
ATOM     25  H   UNL     1       9.287   3.475  21.344  0.00  0.00    +0.190 HD
ATOM     26  C   UNL     1       9.423  -0.433  24.771  0.00  0.00    +0.021 A 
ATOM     27  N   UNL     1      10.519   2.371  22.603  0.00  0.00    -0.263 N 
ATOM     28  H   UNL     1      11.344   2.935  22.411  0.00  0.00    +0.190 HD
ENDBRANCH   1  20
BRANCH  13  29
ATOM     29  C   UNL     1       4.027  -4.649  24.018  0.00  0.00    +0.057 C 
ATOM     30  C   UNL     1       2.799  -5.091  24.343  0.00  0.00    +0.012 C 
BRANCH  30  31
ATOM     31  C   UNL     1       2.238  -6.378  23.900  0.00  0.00    -0.025 A 
ATOM     32  C   UNL     1       1.652  -6.453  22.629  0.00  0.00    +0.008 A 
ATOM     33  C   UNL     1       1.117  -7.654  22.160  0.00  0.00    +0.001 A 
ATOM     34  C   UNL     1       1.148  -8.793  22.960  0.00  0.00    +0.000 A 
ATOM     35  C   UNL     1       1.702  -8.726  24.237  0.00  0.00    +0.001 A 
ATOM     36  C   UNL     1       2.235  -7.524  24.708  0.00  0.00    +0.008 A 
ENDBRANCH  30  31
ENDBRANCH  13  29
TORSDOF 3
ENDMDL
MODEL 6
REMARK VINA RESULT:      -7.3      2.377      5.281
REMARK  Name = 
REMARK  3 active torsions:
REMARK  status: ('A' for Active; 'I' for Inactive)
REMARK    1  A    between atoms: C_9  and  N_13
REMARK    2  A    between atoms: C_15  and  C_16
REMARK    3  A    between atoms: C_17  and  C_18
REMARK                            x       y       z     vdW  Elec       q    Type
REMARK                         _______ _______ _______ _____ _____    ______ ____
ROOT
ATOM      1  N   UNL     1       6.384  -0.296  25.503  0.00  0.00    +0.068 N 
ATOM      2  N   UNL     1       6.802  -0.771  24.337  0.00  0.00    +0.028 N 
ATOM      3  C   UNL     1       6.548  -2.009  23.709  0.00  0.00    +0.259 A 
ATOM      4  S   UNL     1       7.478  -2.527  22.348  0.00  0.00    -0.042 S 
ATOM      5  C   UNL     1       6.801  -4.094  22.467  0.00  0.00    +0.041 A 
ATOM      6  C   UNL     1       7.160  -5.257  21.771  0.00  0.00    +0.017 A 
ATOM      7  C   UNL     1       6.418  -6.413  22.003  0.00  0.00    +0.001 A 
ATOM      8  C   UNL     1       5.318  -6.393  22.855  0.00  0.00    +0.002 A 
ATOM      9  C   UNL     1       4.978  -5.228  23.557  0.00  0.00    +0.029 A 
ATOM     10  C   UNL     1       5.768  -4.070  23.402  0.00  0.00    +0.081 A 
ATOM     11  N   UNL     1       5.669  -2.888  24.129  0.00  0.00    -0.216 NA
ATOM     12  N   UNL     1       7.791   0.045  23.824  0.00  0.00    -0.084 NA
ATOM     13  C   UNL     1       7.941   0.925  24.790  0.00  0.00    +0.247 A 
ATOM     14  N   UNL     1       7.153   0.813  25.841  0.00  0.00    +0.057 NA
ENDROOT
BRANCH   1  20
ATOM     15  O   UNL     1       1.408  -1.210  29.508  0.00  0.00    -0.266 OA
ATOM     16  C   UNL     1       2.363  -1.934  29.258  0.00  0.00    +0.271 A 
ATOM     17  C   UNL     1       3.384  -1.526  28.272  0.00  0.00    +0.053 A 
ATOM     18  C   UNL     1       4.412  -2.398  27.928  0.00  0.00    +0.059 A 
ATOM     19  C   UNL     1       5.358  -2.045  26.954  0.00  0.00    +0.098 A 
ATOM     20  C   UNL     1       5.350  -0.759  26.436  0.00  0.00    +0.271 A 
ATOM     21  C   UNL     1       4.316   0.128  26.768  0.00  0.00    +0.085 A 
ATOM     22  C   UNL     1       4.578  -3.673  28.654  0.00  0.00    +0.271 A 
ATOM     23  O   UNL     1       5.557  -4.379  28.449  0.00  0.00    -0.266 OA
ATOM     24  N   UNL     1       3.629  -3.976  29.596  0.00  0.00    -0.263 N 
ATOM     25  H   UNL     1       3.783  -4.793  30.182  0.00  0.00    +0.190 HD
ATOM     26  C   UNL     1       3.322  -0.262  27.673  0.00  0.00    +0.021 A 
ATOM     27  N   UNL     1       2.542  -3.156  29.859  0.00  0.00    -0.263 N 
ATOM     28  H   UNL     1       1.836  -3.466  30.524  0.00  0.00    +0.190 HD
ENDBRANCH   1  20
BRANCH  13  29
ATOM     29  C   UNL     1       8.945   1.944  24.733  0.00  0.00    +0.057 C 
ATOM     30  C   UNL     1       9.016   2.931  23.821  0.00  0.00    +0.012 C 
BRANCH  30  31
ATOM     31  C   UNL     1      10.038   3.991  23.826  0.00  0.00    -0.025 A 
ATOM     32  C   UNL     1      11.319   3.690  23.342  0.00  0.00    +0.008 A 
ATOM     33  C   UNL     1      12.318   4.665  23.316  0.00  0.00    +0.001 A 
ATOM     34  C   UNL     1      12.054   5.949  23.784  0.00  0.00    +0.000 A 
ATOM     35  C   UNL     1      10.794   6.254  24.294  0.00  0.00    +0.001 A 
ATOM     36  C   UNL     1       9.795   5.279  24.324  0.00  0.00    +0.008 A 
ENDBRANCH  30  31
ENDBRANCH  13  29
TORSDOF 3
ENDMDL
MODEL 7
REMARK VINA RESULT:      -7.3      4.166      8.857
REMARK  Name = 
REMARK  3 active torsions:
REMARK  status: ('A' for Active; 'I' for Inactive)
REMARK    1  A    between atoms: C_9  and  N_13
REMARK    2  A    between atoms: C_15  and  C_16
REMARK    3  A    between atoms: C_17  and  C_18
REMARK                            x       y       z     vdW  Elec       q    Type
REMARK                         _______ _______ _______ _____ _____    ______ ____
ROOT
ATOM      1  N   UNL     1       7.034   0.767  24.697  0.00  0.00    +0.068 N 
ATOM      2  N   UNL     1       6.036   0.849  25.567  0.00  0.00    +0.028 N 
ATOM      3  C   UNL     1       5.781   1.797  26.581  0.00  0.00    +0.259 A 
ATOM      4  S   UNL     1       4.595   1.499  27.803  0.00  0.00    -0.042 S 
ATOM      5  C   UNL     1       5.159   2.848  28.693  0.00  0.00    +0.041 A 
ATOM      6  C   UNL     1       4.804   3.250  29.989  0.00  0.00    +0.017 A 
ATOM      7  C   UNL     1       5.363   4.427  30.485  0.00  0.00    +0.001 A 
ATOM      8  C   UNL     1       6.201   5.204  29.692  0.00  0.00    +0.002 A 
ATOM      9  C   UNL     1       6.561   4.784  28.403  0.00  0.00    +0.029 A 
ATOM     10  C   UNL     1       6.074   3.554  27.915  0.00  0.00    +0.081 A 
ATOM     11  N   UNL     1       6.448   2.916  26.736  0.00  0.00    -0.216 NA
ATOM     12  N   UNL     1       5.296  -0.316  25.543  0.00  0.00    -0.084 NA
ATOM     13  C   UNL     1       5.977  -1.050  24.691  0.00  0.00    +0.247 A 
ATOM     14  N   UNL     1       7.035  -0.502  24.128  0.00  0.00    +0.057 NA
ENDROOT
BRANCH   1  20
ATOM     15  O   UNL     1      12.401   4.111  23.412  0.00  0.00    -0.266 OA
ATOM     16  C   UNL     1      11.228   4.459  23.379  0.00  0.00    +0.271 A 
ATOM     17  C   UNL     1      10.146   3.503  23.692  0.00  0.00    +0.053 A 
ATOM     18  C   UNL     1       8.815   3.885  23.558  0.00  0.00    +0.059 A 
ATOM     19  C   UNL     1       7.778   2.972  23.799  0.00  0.00    +0.098 A 
ATOM     20  C   UNL     1       8.082   1.721  24.316  0.00  0.00    +0.271 A 
ATOM     21  C   UNL     1       9.419   1.320  24.448  0.00  0.00    +0.085 A 
ATOM     22  C   UNL     1       8.473   5.288  23.251  0.00  0.00    +0.271 A 
ATOM     23  O   UNL     1       7.306   5.658  23.267  0.00  0.00    -0.266 OA
ATOM     24  N   UNL     1       9.519   6.144  23.022  0.00  0.00    -0.263 N 
ATOM     25  H   UNL     1       9.311   7.134  22.917  0.00  0.00    +0.190 HD
ATOM     26  C   UNL     1      10.452   2.206  24.119  0.00  0.00    +0.021 A 
ATOM     27  N   UNL     1      10.844   5.735  23.046  0.00  0.00    -0.263 N 
ATOM     28  H   UNL     1      11.573   6.402  22.803  0.00  0.00    +0.190 HD
ENDBRANCH   1  20
BRANCH  13  29
ATOM     29  C   UNL     1       5.617  -2.407  24.409  0.00  0.00    +0.057 C 
ATOM     30  C   UNL     1       4.608  -3.090  24.979  0.00  0.00    +0.012 C 
BRANCH  30  31
ATOM     31  C   UNL     1       4.238  -4.471  24.624  0.00  0.00    -0.025 A 
ATOM     32  C   UNL     1       4.832  -5.527  25.330  0.00  0.00    +0.008 A 
ATOM     33  C   UNL     1       4.505  -6.852  25.037  0.00  0.00    +0.001 A 
ATOM     34  C   UNL     1       3.590  -7.141  24.029  0.00  0.00    +0.000 A 
ATOM     35  C   UNL     1       3.013  -6.102  23.301  0.00  0.00    +0.001 A 
ATOM     36  C   UNL     1       3.342  -4.776  23.590  0.00  0.00    +0.008 A 
ENDBRANCH  30  31
ENDBRANCH  13  29
TORSDOF 3
ENDMDL
MODEL 8
REMARK VINA RESULT:      -7.2      4.579      9.784
REMARK  Name = 
REMARK  3 active torsions:
REMARK  status: ('A' for Active; 'I' for Inactive)
REMARK    1  A    between atoms: C_9  and  N_13
REMARK    2  A    between atoms: C_15  and  C_16
REMARK    3  A    between atoms: C_17  and  C_18
REMARK                            x       y       z     vdW  Elec       q    Type
REMARK                         _______ _______ _______ _____ _____    ______ ____
ROOT
ATOM      1  N   UNL     1       6.003   1.795  24.889  0.00  0.00    +0.068 N 
ATOM      2  N   UNL     1       7.304   1.581  24.751  0.00  0.00    +0.028 N 
ATOM      3  C   UNL     1       8.372   2.492  24.609  0.00  0.00    +0.259 A 
ATOM      4  S   UNL     1       9.938   1.962  24.107  0.00  0.00    -0.042 S 
ATOM      5  C   UNL     1      10.429   3.586  23.885  0.00  0.00    +0.041 A 
ATOM      6  C   UNL     1      11.611   4.070  23.305  0.00  0.00    +0.017 A 
ATOM      7  C   UNL     1      11.812   5.449  23.286  0.00  0.00    +0.001 A 
ATOM      8  C   UNL     1      10.893   6.310  23.877  0.00  0.00    +0.002 A 
ATOM      9  C   UNL     1       9.707   5.815  24.441  0.00  0.00    +0.029 A 
ATOM     10  C   UNL     1       9.445   4.430  24.395  0.00  0.00    +0.081 A 
ATOM     11  N   UNL     1       8.264   3.791  24.760  0.00  0.00    -0.216 NA
ATOM     12  N   UNL     1       7.537   0.240  24.515  0.00  0.00    -0.084 NA
ATOM     13  C   UNL     1       6.314  -0.239  24.453  0.00  0.00    +0.247 A 
ATOM     14  N   UNL     1       5.322   0.603  24.660  0.00  0.00    +0.057 NA
ENDROOT
BRANCH   1  20
ATOM     15  O   UNL     1       2.744   6.818  27.294  0.00  0.00    -0.266 OA
ATOM     16  C   UNL     1       2.886   6.451  26.135  0.00  0.00    +0.271 A 
ATOM     17  C   UNL     1       3.709   5.269  25.810  0.00  0.00    +0.053 A 
ATOM     18  C   UNL     1       3.940   4.920  24.483  0.00  0.00    +0.059 A 
ATOM     19  C   UNL     1       4.764   3.832  24.159  0.00  0.00    +0.098 A 
ATOM     20  C   UNL     1       5.234   3.012  25.174  0.00  0.00    +0.271 A 
ATOM     21  C   UNL     1       5.017   3.356  26.516  0.00  0.00    +0.085 A 
ATOM     22  C   UNL     1       3.241   5.634  23.397  0.00  0.00    +0.271 A 
ATOM     23  O   UNL     1       3.333   5.243  22.239  0.00  0.00    -0.266 OA
ATOM     24  N   UNL     1       2.447   6.690  23.760  0.00  0.00    -0.263 N 
ATOM     25  H   UNL     1       1.873   7.126  23.043  0.00  0.00    +0.190 HD
ATOM     26  C   UNL     1       4.269   4.496  26.834  0.00  0.00    +0.021 A 
ATOM     27  N   UNL     1       2.307   7.107  25.076  0.00  0.00    -0.263 N 
ATOM     28  H   UNL     1       1.755   7.939  25.277  0.00  0.00    +0.190 HD
ENDBRANCH   1  20
BRANCH  13  29
ATOM     29  C   UNL     1       6.057  -1.611  24.134  0.00  0.00    +0.057 C 
ATOM     30  C   UNL     1       6.437  -2.243  23.009  0.00  0.00    +0.012 C 
BRANCH  30  31
ATOM     31  C   UNL     1       6.196  -3.671  22.740  0.00  0.00    -0.025 A 
ATOM     32  C   UNL     1       7.243  -4.440  22.214  0.00  0.00    +0.008 A 
ATOM     33  C   UNL     1       7.067  -5.801  21.954  0.00  0.00    +0.001 A 
ATOM     34  C   UNL     1       5.839  -6.407  22.203  0.00  0.00    +0.000 A 
ATOM     35  C   UNL     1       4.781  -5.647  22.698  0.00  0.00    +0.001 A 
ATOM     36  C   UNL     1       4.955  -4.286  22.957  0.00  0.00    +0.008 A 
ENDBRANCH  30  31
ENDBRANCH  13  29
TORSDOF 3
ENDMDL
MODEL 9
REMARK VINA RESULT:      -7.0      4.434      9.699
REMARK  Name = 
REMARK  3 active torsions:
REMARK  status: ('A' for Active; 'I' for Inactive)
REMARK    1  A    between atoms: C_9  and  N_13
REMARK    2  A    between atoms: C_15  and  C_16
REMARK    3  A    between atoms: C_17  and  C_18
REMARK                            x       y       z     vdW  Elec       q    Type
REMARK                         _______ _______ _______ _____ _____    ______ ____
ROOT
ATOM      1  N   UNL     1       5.988   1.701  25.037  0.00  0.00    +0.068 N 
ATOM      2  N   UNL     1       7.282   1.496  24.831  0.00  0.00    +0.028 N 
ATOM      3  C   UNL     1       8.343   2.414  24.682  0.00  0.00    +0.259 A 
ATOM      4  S   UNL     1       9.885   1.909  24.087  0.00  0.00    -0.042 S 
ATOM      5  C   UNL     1      10.365   3.543  23.915  0.00  0.00    +0.041 A 
ATOM      6  C   UNL     1      11.519   4.054  23.305  0.00  0.00    +0.017 A 
ATOM      7  C   UNL     1      11.720   5.433  23.337  0.00  0.00    +0.001 A 
ATOM      8  C   UNL     1      10.828   6.265  24.007  0.00  0.00    +0.002 A 
ATOM      9  C   UNL     1       9.669   5.744  24.600  0.00  0.00    +0.029 A 
ATOM     10  C   UNL     1       9.405   4.362  24.505  0.00  0.00    +0.081 A 
ATOM     11  N   UNL     1       8.242   3.705  24.895  0.00  0.00    -0.216 NA
ATOM     12  N   UNL     1       7.504   0.167  24.526  0.00  0.00    -0.084 NA
ATOM     13  C   UNL     1       6.280  -0.311  24.498  0.00  0.00    +0.247 A 
ATOM     14  N   UNL     1       5.297   0.519  24.786  0.00  0.00    +0.057 NA
ENDROOT
BRANCH   1  20
ATOM     15  O   UNL     1       2.497   7.108  25.488  0.00  0.00    -0.266 OA
ATOM     16  C   UNL     1       3.129   6.504  26.345  0.00  0.00    +0.271 A 
ATOM     17  C   UNL     1       3.843   5.254  26.016  0.00  0.00    +0.053 A 
ATOM     18  C   UNL     1       4.478   4.526  27.018  0.00  0.00    +0.059 A 
ATOM     19  C   UNL     1       5.114   3.309  26.730  0.00  0.00    +0.098 A 
ATOM     20  C   UNL     1       5.234   2.903  25.409  0.00  0.00    +0.271 A 
ATOM     21  C   UNL     1       4.592   3.621  24.390  0.00  0.00    +0.085 A 
ATOM     22  C   UNL     1       4.574   5.075  28.385  0.00  0.00    +0.271 A 
ATOM     23  O   UNL     1       5.247   4.505  29.235  0.00  0.00    -0.266 OA
ATOM     24  N   UNL     1       3.936   6.265  28.620  0.00  0.00    -0.263 N 
ATOM     25  H   UNL     1       4.080   6.714  29.521  0.00  0.00    +0.190 HD
ATOM     26  C   UNL     1       3.881   4.787  24.696  0.00  0.00    +0.021 A 
ATOM     27  N   UNL     1       3.209   6.934  27.646  0.00  0.00    -0.263 N 
ATOM     28  H   UNL     1       2.703   7.780  27.899  0.00  0.00    +0.190 HD
ENDBRANCH   1  20
BRANCH  13  29
ATOM     29  C   UNL     1       6.008  -1.668  24.130  0.00  0.00    +0.057 C 
ATOM     30  C   UNL     1       6.436  -2.283  23.013  0.00  0.00    +0.012 C 
BRANCH  30  31
ATOM     31  C   UNL     1       6.176  -3.697  22.695  0.00  0.00    -0.025 A 
ATOM     32  C   UNL     1       7.160  -4.421  22.006  0.00  0.00    +0.008 A 
ATOM     33  C   UNL     1       6.965  -5.768  21.693  0.00  0.00    +0.001 A 
ATOM     34  C   UNL     1       5.780  -6.405  22.051  0.00  0.00    +0.000 A 
ATOM     35  C   UNL     1       4.783  -5.690  22.711  0.00  0.00    +0.001 A 
ATOM     36  C   UNL     1       4.975  -4.342  23.023  0.00  0.00    +0.008 A 
ENDBRANCH  30  31
ENDBRANCH  13  29
TORSDOF 3
ENDMDL
