MODEL 1
REMARK VINA RESULT:      -6.1      0.000      0.000
REMARK  Name = 
REMARK  25 active torsions:
REMARK  status: ('A' for Active; 'I' for Inactive)
REMARK    1  A    between atoms: NE_4  and  CD_5
REMARK    2  A    between atoms: CD_5  and  CG_6
REMARK    3  A    between atoms: CG_6  and  CB_7
REMARK    4  A    between atoms: CB_7  and  CA_8
REMARK    5  A    between atoms: CA_8  and  N_10
REMARK    6  A    between atoms: CA_8  and  C_35
REMARK    7  A    between atoms: C_11  and  C_13
REMARK    8  A    between atoms: C_13  and  C_15
REMARK    9  A    between atoms: C_15  and  C_17
REMARK   10  A    between atoms: C_15  and  N_24
REMARK   11  A    between atoms: C_17  and  C_18
REMARK   12  A    between atoms: C_25  and  O_27
REMARK   13  A    between atoms: O_27  and  C_28
REMARK   14  A    between atoms: C_28  and  C_29
REMARK   15  A    between atoms: N_37  and  CA_38
REMARK   16  A    between atoms: CA_38  and  CB_40
REMARK   17  A    between atoms: CA_38  and  C_45
REMARK   18  A    between atoms: CB_40  and  CG_41
REMARK   19  A    between atoms: CG_41  and  CD_42
REMARK   20  A    between atoms: CD_42  and  OE1_43
REMARK   21  A    between atoms: N_47  and  CA_48
REMARK   22  A    between atoms: CA_48  and  CB_50
REMARK   23  A    between atoms: CA_48  and  C_57
REMARK   24  A    between atoms: CB_50  and  CG_51
REMARK   25  A    between atoms: C_57  and  O_58
REMARK                            x       y       z     vdW  Elec       q    Type
REMARK                         _______ _______ _______ _____ _____    ______ ____
ROOT
ATOM      1  CA  GLU A   1       3.233  -3.844  25.257  0.00  0.00    +0.159 C 
ENDROOT
BRANCH   1   2
ATOM      2  N   GLU A   1       4.201  -3.439  24.228  0.00  0.00    -0.298 N 
ATOM      3  H   GLU A   1       4.535  -2.480  24.248  0.00  0.00    +0.150 HD
ATOM      4  C   UNK A   0       4.951  -4.349  23.503  0.00  0.00    +0.282 C 
ATOM      5  O   UNK A   0       4.841  -5.562  23.575  0.00  0.00    -0.267 OA
BRANCH   4   6
ATOM      6  C   UNK A   0       5.969  -3.721  22.535  0.00  0.00    +0.237 C 
ATOM      7  O   UNK A   0       5.611  -3.431  21.400  0.00  0.00    -0.285 OA
BRANCH   6   8
ATOM      8  C   UNK A   0       7.380  -3.503  23.104  0.00  0.00    +0.152 C 
BRANCH   8   9
ATOM      9  N   UNK A   0       7.489  -3.963  24.486  0.00  0.00    -0.271 N 
ATOM     10  H   UNK A   0       6.947  -3.530  25.223  0.00  0.00    +0.153 HD
ATOM     11  C   UNK A   0       8.329  -4.980  24.844  0.00  0.00    +0.401 C 
ATOM     12  O   UNK A   0       9.025  -5.602  24.056  0.00  0.00    -0.226 OA
BRANCH  11  13
ATOM     13  O   UNK A   0       8.266  -5.195  26.180  0.00  0.00    -0.446 OA
BRANCH  13  14
ATOM     14  C   UNK A   0       7.304  -4.386  26.871  0.00  0.00    +0.269 C 
BRANCH  14  15
ATOM     15  C   UNK A   0       6.201  -5.193  27.513  0.00  0.00    -0.010 A 
ATOM     16  C   UNK A   0       5.558  -6.218  26.804  0.00  0.00    +0.007 A 
ATOM     17  C   UNK A   0       4.481  -6.907  27.370  0.00  0.00    +0.000 A 
ATOM     18  C   UNK A   0       4.042  -6.586  28.654  0.00  0.00    +0.000 A 
ATOM     19  C   UNK A   0       4.680  -5.579  29.373  0.00  0.00    +0.000 A 
ATOM     20  C   UNK A   0       5.757  -4.889  28.809  0.00  0.00    +0.007 A 
ENDBRANCH  14  15
ENDBRANCH  13  14
ENDBRANCH  11  13
ENDBRANCH   8   9
BRANCH   8  21
ATOM     21  C   UNK A   0       7.796  -2.012  23.020  0.00  0.00    +0.034 C 
BRANCH  21  22
ATOM     22  C   UNK A   0       9.283  -1.797  22.624  0.00  0.00    -0.009 C 
ATOM     23  C   UNK A   0      10.102  -1.146  23.758  0.00  0.00    +0.003 C 
ATOM     24  C   UNK A   0       9.931   0.369  23.877  0.00  0.00    +0.000 C 
ATOM     25  C   UNK A   0      10.078   1.082  22.538  0.00  0.00    +0.000 C 
ATOM     26  C   UNK A   0       9.158   0.477  21.486  0.00  0.00    +0.000 C 
ATOM     27  C   UNK A   0       9.459  -1.008  21.316  0.00  0.00    +0.003 C 
ENDBRANCH  21  22
ENDBRANCH   8  21
ENDBRANCH   6   8
ENDBRANCH   4   6
ENDBRANCH   1   2
BRANCH   1  28
ATOM     28  C   GLU A   1       3.319  -2.856  26.469  0.00  0.00    +0.234 C 
ATOM     29  N   GLU A   1       3.935  -1.636  26.232  0.00  0.00    -0.302 N 
ATOM     30  H   GLU A   1       3.911  -1.267  25.288  0.00  0.00    +0.150 HD
ATOM     31  O   GLU A   1       2.909  -3.147  27.593  0.00  0.00    -0.274 OA
BRANCH  29  32
ATOM     32  CA  GLU A   1       4.190  -0.694  27.333  0.00  0.00    +0.159 C 
BRANCH  32  33
ATOM     33  C   GLU A   1       4.004   0.777  26.875  0.00  0.00    +0.234 C 
ATOM     34  N   PHE A   2       5.034   1.624  27.255  0.00  0.00    -0.301 N 
ATOM     35  H   PHE A   2       5.666   1.308  27.986  0.00  0.00    +0.150 HD
ATOM     36  O   GLU A   1       3.047   1.147  26.204  0.00  0.00    -0.274 OA
BRANCH  34  37
ATOM     37  CA  PHE A   2       5.065   3.073  26.963  0.00  0.00    +0.182 C 
BRANCH  37  38
ATOM     38  C   PHE A   2       5.985   3.781  27.990  0.00  0.00    +0.325 C 
ATOM     39  OXT PHE A   2       7.130   3.436  28.243  0.00  0.00    -0.249 OA
BRANCH  38  40
ATOM     40  O   PHE A   2       5.440   4.874  28.573  0.00  0.00    -0.479 OA
ATOM     41  H   PHE A   2       4.465   4.859  28.597  0.00  0.00    +0.295 HD
ENDBRANCH  38  40
ENDBRANCH  37  38
BRANCH  37  42
ATOM     42  CB  PHE A   2       5.609   3.384  25.549  0.00  0.00    +0.037 C 
BRANCH  42  43
ATOM     43  CG  PHE A   2       6.724   2.480  24.967  0.00  0.00    -0.009 C 
ATOM     44  CD2 PHE A   2       7.997   3.310  24.680  0.00  0.00    +0.003 C 
ATOM     45  CE2 PHE A   2       7.837   4.274  23.503  0.00  0.00    +0.000 C 
ATOM     46  CZ  PHE A   2       7.350   3.574  22.238  0.00  0.00    +0.000 C 
ATOM     47  CE1 PHE A   2       6.150   2.659  22.477  0.00  0.00    +0.000 C 
ATOM     48  CD1 PHE A   2       6.342   1.733  23.680  0.00  0.00    +0.003 C 
ENDBRANCH  42  43
ENDBRANCH  37  42
ENDBRANCH  34  37
ENDBRANCH  32  33
BRANCH  32  49
ATOM     49  CB  GLU A   1       5.609  -0.877  27.902  0.00  0.00    +0.043 C 
BRANCH  49  50
ATOM     50  CG  GLU A   1       6.661  -1.058  26.806  0.00  0.00    +0.123 C 
BRANCH  50  51
ATOM     51  CD  GLU A   1       7.986  -0.457  27.190  0.00  0.00    +0.305 C 
ATOM     52  OE2 GLU A   1       9.060  -0.998  26.982  0.00  0.00    -0.251 OA
BRANCH  51  53
ATOM     53  OE1 GLU A   1       7.880   0.755  27.776  0.00  0.00    -0.481 OA
ATOM     54  HE1 GLU A   1       7.056   0.899  28.281  0.00  0.00    +0.295 HD
ENDBRANCH  51  53
ENDBRANCH  50  51
ENDBRANCH  49  50
ENDBRANCH  32  49
ENDBRANCH  29  32
ENDBRANCH   1  28
BRANCH   1  55
ATOM     55  CB  GLU A   1       1.797  -3.839  24.687  0.00  0.00    +0.035 C 
BRANCH  55  56
ATOM     56  CG  GLU A   1       0.835  -4.816  25.386  0.00  0.00    +0.039 C 
BRANCH  56  57
ATOM     57  CD  GLU A   1       1.400  -6.241  25.497  0.00  0.00    +0.196 C 
BRANCH  57  62
ATOM     58  NH1 GLU A   1       1.640  -8.201  22.485  0.00  0.00    -0.289 N 
ATOM     59 HH11 GLU A   1       0.663  -8.465  22.470  0.00  0.00    +0.255 HD
ATOM     60 HH12 GLU A   1       2.214  -8.929  22.084  0.00  0.00    +0.255 HD
ATOM     61  CZ  GLU A   1       2.052  -7.759  23.690  0.00  0.00    +0.376 C 
ATOM     62  NE  GLU A   1       1.095  -7.027  24.307  0.00  0.00    -0.276 N 
ATOM     63  HE  GLU A   1       0.445  -6.599  23.666  0.00  0.00    +0.258 HD
ATOM     64  NH2 GLU A   1       3.214  -8.006  24.167  0.00  0.00    -0.130 NA
ATOM     65  HH2 GLU A   1       3.755  -8.562  23.503  0.00  0.00    +0.306 HD
ENDBRANCH  57  62
ENDBRANCH  56  57
ENDBRANCH  55  56
ENDBRANCH   1  55
TORSDOF 25
ENDMDL
MODEL 2
REMARK VINA RESULT:      -5.9      2.447      6.230
REMARK  Name = 
REMARK  25 active torsions:
REMARK  status: ('A' for Active; 'I' for Inactive)
REMARK    1  A    between atoms: NE_4  and  CD_5
REMARK    2  A    between atoms: CD_5  and  CG_6
REMARK    3  A    between atoms: CG_6  and  CB_7
REMARK    4  A    between atoms: CB_7  and  CA_8
REMARK    5  A    between atoms: CA_8  and  N_10
REMARK    6  A    between atoms: CA_8  and  C_35
REMARK    7  A    between atoms: C_11  and  C_13
REMARK    8  A    between atoms: C_13  and  C_15
REMARK    9  A    between atoms: C_15  and  C_17
REMARK   10  A    between atoms: C_15  and  N_24
REMARK   11  A    between atoms: C_17  and  C_18
REMARK   12  A    between atoms: C_25  and  O_27
REMARK   13  A    between atoms: O_27  and  C_28
REMARK   14  A    between atoms: C_28  and  C_29
REMARK   15  A    between atoms: N_37  and  CA_38
REMARK   16  A    between atoms: CA_38  and  CB_40
REMARK   17  A    between atoms: CA_38  and  C_45
REMARK   18  A    between atoms: CB_40  and  CG_41
REMARK   19  A    between atoms: CG_41  and  CD_42
REMARK   20  A    between atoms: CD_42  and  OE1_43
REMARK   21  A    between atoms: N_47  and  CA_48
REMARK   22  A    between atoms: CA_48  and  CB_50
REMARK   23  A    between atoms: CA_48  and  C_57
REMARK   24  A    between atoms: CB_50  and  CG_51
REMARK   25  A    between atoms: C_57  and  O_58
REMARK                            x       y       z     vdW  Elec       q    Type
REMARK                         _______ _______ _______ _____ _____    ______ ____
ROOT
ATOM      1  CA  GLU A   1       6.839  -0.050  25.215  0.00  0.00    +0.159 C 
ENDROOT
BRANCH   1   2
ATOM      2  N   GLU A   1       6.413  -1.083  26.170  0.00  0.00    -0.298 N 
ATOM      3  H   GLU A   1       6.709  -0.980  27.136  0.00  0.00    +0.150 HD
ATOM      4  C   UNK A   0       5.357  -1.942  25.925  0.00  0.00    +0.282 C 
ATOM      5  O   UNK A   0       4.724  -1.995  24.883  0.00  0.00    -0.267 OA
BRANCH   4   6
ATOM      6  C   UNK A   0       5.016  -2.894  27.085  0.00  0.00    +0.237 C 
ATOM      7  O   UNK A   0       4.551  -2.429  28.119  0.00  0.00    -0.285 OA
BRANCH   6   8
ATOM      8  C   UNK A   0       5.291  -4.384  26.826  0.00  0.00    +0.152 C 
BRANCH   8   9
ATOM      9  N   UNK A   0       6.489  -4.585  26.015  0.00  0.00    -0.271 N 
ATOM     10  H   UNK A   0       6.548  -4.219  25.074  0.00  0.00    +0.153 HD
ATOM     11  C   UNK A   0       7.568  -5.281  26.483  0.00  0.00    +0.401 C 
ATOM     12  O   UNK A   0       7.641  -5.761  27.604  0.00  0.00    -0.226 OA
BRANCH  11  13
ATOM     13  O   UNK A   0       8.532  -5.350  25.533  0.00  0.00    -0.446 OA
BRANCH  13  14
ATOM     14  C   UNK A   0       8.546  -4.247  24.615  0.00  0.00    +0.269 C 
BRANCH  14  15
ATOM     15  C   UNK A   0       7.746  -4.508  23.362  0.00  0.00    -0.010 A 
ATOM     16  C   UNK A   0       7.051  -3.469  22.727  0.00  0.00    +0.007 A 
ATOM     17  C   UNK A   0       6.242  -3.728  21.617  0.00  0.00    +0.000 A 
ATOM     18  C   UNK A   0       6.129  -5.027  21.122  0.00  0.00    +0.000 A 
ATOM     19  C   UNK A   0       6.826  -6.065  21.734  0.00  0.00    +0.000 A 
ATOM     20  C   UNK A   0       7.634  -5.808  22.846  0.00  0.00    +0.007 A 
ENDBRANCH  14  15
ENDBRANCH  13  14
ENDBRANCH  11  13
ENDBRANCH   8   9
BRANCH   8  21
ATOM     21  C   UNK A   0       4.080  -5.068  26.142  0.00  0.00    +0.034 C 
BRANCH  21  22
ATOM     22  C   UNK A   0       4.362  -5.527  24.684  0.00  0.00    -0.009 C 
ATOM     23  C   UNK A   0       3.417  -4.854  23.667  0.00  0.00    +0.003 C 
ATOM     24  C   UNK A   0       2.025  -5.482  23.579  0.00  0.00    +0.000 C 
ATOM     25  C   UNK A   0       2.075  -7.000  23.447  0.00  0.00    +0.000 C 
ATOM     26  C   UNK A   0       2.923  -7.622  24.549  0.00  0.00    +0.000 C 
ATOM     27  C   UNK A   0       4.337  -7.053  24.508  0.00  0.00    +0.003 C 
ENDBRANCH  21  22
ENDBRANCH   8  21
ENDBRANCH   6   8
ENDBRANCH   4   6
ENDBRANCH   1   2
BRANCH   1  28
ATOM     28  C   GLU A   1       5.842   1.156  25.274  0.00  0.00    +0.234 C 
ATOM     29  N   GLU A   1       5.836   1.899  26.445  0.00  0.00    -0.302 N 
ATOM     30  H   GLU A   1       6.689   1.929  26.993  0.00  0.00    +0.150 HD
ATOM     31  O   GLU A   1       5.062   1.419  24.358  0.00  0.00    -0.274 OA
BRANCH  29  32
ATOM     32  CA  GLU A   1       4.844   2.965  26.658  0.00  0.00    +0.159 C 
BRANCH  32  33
ATOM     33  C   GLU A   1       5.421   4.359  26.293  0.00  0.00    +0.234 C 
ATOM     34  N   PHE A   2       6.724   4.563  26.720  0.00  0.00    -0.301 N 
ATOM     35  H   PHE A   2       7.098   3.936  27.427  0.00  0.00    +0.150 HD
ATOM     36  O   GLU A   1       4.790   5.190  25.650  0.00  0.00    -0.274 OA
BRANCH  34  37
ATOM     37  CA  PHE A   2       7.474   5.821  26.519  0.00  0.00    +0.182 C 
BRANCH  37  38
ATOM     38  C   PHE A   2       7.835   6.427  27.900  0.00  0.00    +0.325 C 
ATOM     39  OXT PHE A   2       8.937   6.870  28.190  0.00  0.00    -0.249 OA
BRANCH  38  40
ATOM     40  O   PHE A   2       6.806   6.482  28.776  0.00  0.00    -0.479 OA
ATOM     41  H   PHE A   2       7.089   6.594  29.703  0.00  0.00    +0.295 HD
ENDBRANCH  38  40
ENDBRANCH  37  38
BRANCH  37  42
ATOM     42  CB  PHE A   2       8.792   5.610  25.737  0.00  0.00    +0.037 C 
BRANCH  42  43
ATOM     43  CG  PHE A   2       8.736   5.548  24.191  0.00  0.00    -0.009 C 
ATOM     44  CD2 PHE A   2       8.714   4.079  23.710  0.00  0.00    +0.003 C 
ATOM     45  CE2 PHE A   2      10.044   3.352  23.926  0.00  0.00    +0.000 C 
ATOM     46  CZ  PHE A   2      11.225   4.104  23.320  0.00  0.00    +0.000 C 
ATOM     47  CE1 PHE A   2      11.246   5.588  23.680  0.00  0.00    +0.000 C 
ATOM     48  CD1 PHE A   2       9.890   6.267  23.474  0.00  0.00    +0.003 C 
ENDBRANCH  42  43
ENDBRANCH  37  42
ENDBRANCH  34  37
ENDBRANCH  32  33
BRANCH  32  49
ATOM     49  CB  GLU A   1       4.353   2.981  28.117  0.00  0.00    +0.043 C 
BRANCH  49  50
ATOM     50  CG  GLU A   1       5.274   2.200  29.054  0.00  0.00    +0.123 C 
BRANCH  50  51
ATOM     51  CD  GLU A   1       6.400   3.050  29.578  0.00  0.00    +0.305 C 
ATOM     52  OE2 GLU A   1       6.259   3.907  30.435  0.00  0.00    -0.251 OA
BRANCH  51  53
ATOM     53  OE1 GLU A   1       7.597   2.764  29.021  0.00  0.00    -0.481 OA
ATOM     54  HE1 GLU A   1       7.899   1.843  29.141  0.00  0.00    +0.295 HD
ENDBRANCH  51  53
ENDBRANCH  50  51
ENDBRANCH  49  50
ENDBRANCH  32  49
ENDBRANCH  29  32
ENDBRANCH   1  28
BRANCH   1  55
ATOM     55  CB  GLU A   1       8.265   0.443  25.544  0.00  0.00    +0.035 C 
BRANCH  55  56
ATOM     56  CG  GLU A   1       9.337  -0.661  25.525  0.00  0.00    +0.039 C 
BRANCH  56  57
ATOM     57  CD  GLU A   1      10.134  -0.703  24.212  0.00  0.00    +0.196 C 
BRANCH  57  62
ATOM     58  NH1 GLU A   1       9.157   0.779  21.078  0.00  0.00    -0.289 N 
ATOM     59 HH11 GLU A   1       8.383   1.305  21.464  0.00  0.00    +0.255 HD
ATOM     60 HH12 GLU A   1       8.965   0.506  20.125  0.00  0.00    +0.255 HD
ATOM     61  CZ  GLU A   1       9.566  -0.226  21.879  0.00  0.00    +0.376 C 
ATOM     62  NE  GLU A   1       9.508   0.123  23.185  0.00  0.00    -0.276 N 
ATOM     63  HE  GLU A   1       9.573   1.117  23.336  0.00  0.00    +0.258 HD
ATOM     64  NH2 GLU A   1       9.966  -1.358  21.434  0.00  0.00    -0.130 NA
ATOM     65  HH2 GLU A   1       9.933  -1.365  20.414  0.00  0.00    +0.306 HD
ENDBRANCH  57  62
ENDBRANCH  56  57
ENDBRANCH  55  56
ENDBRANCH   1  55
TORSDOF 25
ENDMDL
MODEL 3
REMARK VINA RESULT:      -5.8      3.132      6.847
REMARK  Name = 
REMARK  25 active torsions:
REMARK  status: ('A' for Active; 'I' for Inactive)
REMARK    1  A    between atoms: NE_4  and  CD_5
REMARK    2  A    between atoms: CD_5  and  CG_6
REMARK    3  A    between atoms: CG_6  and  CB_7
REMARK    4  A    between atoms: CB_7  and  CA_8
REMARK    5  A    between atoms: CA_8  and  N_10
REMARK    6  A    between atoms: CA_8  and  C_35
REMARK    7  A    between atoms: C_11  and  C_13
REMARK    8  A    between atoms: C_13  and  C_15
REMARK    9  A    between atoms: C_15  and  C_17
REMARK   10  A    between atoms: C_15  and  N_24
REMARK   11  A    between atoms: C_17  and  C_18
REMARK   12  A    between atoms: C_25  and  O_27
REMARK   13  A    between atoms: O_27  and  C_28
REMARK   14  A    between atoms: C_28  and  C_29
REMARK   15  A    between atoms: N_37  and  CA_38
REMARK   16  A    between atoms: CA_38  and  CB_40
REMARK   17  A    between atoms: CA_38  and  C_45
REMARK   18  A    between atoms: CB_40  and  CG_41
REMARK   19  A    between atoms: CG_41  and  CD_42
REMARK   20  A    between atoms: CD_42  and  OE1_43
REMARK   21  A    between atoms: N_47  and  CA_48
REMARK   22  A    between atoms: CA_48  and  CB_50
REMARK   23  A    between atoms: CA_48  and  C_57
REMARK   24  A    between atoms: CB_50  and  CG_51
REMARK   25  A    between atoms: C_57  and  O_58
REMARK                            x       y       z     vdW  Elec       q    Type
REMARK                         _______ _______ _______ _____ _____    ______ ____
ROOT
ATOM      1  CA  GLU A   1       7.482  -0.539  25.100  0.00  0.00    +0.159 C 
ENDROOT
BRANCH   1   2
ATOM      2  N   GLU A   1       6.851  -1.473  26.043  0.00  0.00    -0.298 N 
ATOM      3  H   GLU A   1       7.196  -1.480  26.998  0.00  0.00    +0.150 HD
ATOM      4  C   UNK A   0       5.609  -2.041  25.820  0.00  0.00    +0.282 C 
ATOM      5  O   UNK A   0       4.946  -1.899  24.805  0.00  0.00    -0.267 OA
BRANCH   4   6
ATOM      6  C   UNK A   0       5.087  -2.924  26.967  0.00  0.00    +0.237 C 
ATOM      7  O   UNK A   0       4.562  -2.390  27.937  0.00  0.00    -0.285 OA
BRANCH   6   8
ATOM      8  C   UNK A   0       5.272  -4.438  26.778  0.00  0.00    +0.152 C 
BRANCH   8   9
ATOM      9  N   UNK A   0       6.481  -4.750  26.021  0.00  0.00    -0.271 N 
ATOM     10  H   UNK A   0       6.571  -4.482  25.049  0.00  0.00    +0.153 HD
ATOM     11  C   UNK A   0       7.530  -5.422  26.582  0.00  0.00    +0.401 C 
ATOM     12  O   UNK A   0       7.564  -5.788  27.747  0.00  0.00    -0.226 OA
BRANCH  11  13
ATOM     13  O   UNK A   0       8.513  -5.611  25.668  0.00  0.00    -0.446 OA
BRANCH  13  14
ATOM     14  C   UNK A   0       8.684  -4.527  24.743  0.00  0.00    +0.269 C 
BRANCH  14  15
ATOM     15  C   UNK A   0       7.881  -4.696  23.476  0.00  0.00    -0.010 A 
ATOM     16  C   UNK A   0       7.286  -3.590  22.852  0.00  0.00    +0.007 A 
ATOM     17  C   UNK A   0       6.473  -3.759  21.728  0.00  0.00    +0.000 A 
ATOM     18  C   UNK A   0       6.253  -5.034  21.209  0.00  0.00    +0.000 A 
ATOM     19  C   UNK A   0       6.849  -6.140  21.811  0.00  0.00    +0.000 A 
ATOM     20  C   UNK A   0       7.661  -5.973  22.936  0.00  0.00    +0.007 A 
ENDBRANCH  14  15
ENDBRANCH  13  14
ENDBRANCH  11  13
ENDBRANCH   8   9
BRANCH   8  21
ATOM     21  C   UNK A   0       4.043  -5.070  26.075  0.00  0.00    +0.034 C 
BRANCH  21  22
ATOM     22  C   UNK A   0       4.325  -5.543  24.623  0.00  0.00    -0.009 C 
ATOM     23  C   UNK A   0       3.438  -4.819  23.589  0.00  0.00    +0.003 C 
ATOM     24  C   UNK A   0       2.016  -5.370  23.475  0.00  0.00    +0.000 C 
ATOM     25  C   UNK A   0       1.986  -6.888  23.341  0.00  0.00    +0.000 C 
ATOM     26  C   UNK A   0       2.777  -7.556  24.457  0.00  0.00    +0.000 C 
ATOM     27  C   UNK A   0       4.221  -7.066  24.444  0.00  0.00    +0.003 C 
ENDBRANCH  21  22
ENDBRANCH   8  21
ENDBRANCH   6   8
ENDBRANCH   4   6
ENDBRANCH   1   2
BRANCH   1  28
ATOM     28  C   GLU A   1       6.822   0.874  25.246  0.00  0.00    +0.234 C 
ATOM     29  N   GLU A   1       7.252   1.652  26.310  0.00  0.00    -0.302 N 
ATOM     30  H   GLU A   1       8.191   1.502  26.660  0.00  0.00    +0.150 HD
ATOM     31  O   GLU A   1       5.933   1.272  24.494  0.00  0.00    -0.274 OA
BRANCH  29  32
ATOM     32  CA  GLU A   1       6.600   2.935  26.619  0.00  0.00    +0.159 C 
BRANCH  32  33
ATOM     33  C   GLU A   1       7.023   4.041  25.616  0.00  0.00    +0.234 C 
ATOM     34  N   PHE A   2       6.042   4.379  24.698  0.00  0.00    -0.301 N 
ATOM     35  H   PHE A   2       5.261   3.740  24.576  0.00  0.00    +0.150 HD
ATOM     36  O   GLU A   1       8.118   4.593  25.660  0.00  0.00    -0.274 OA
BRANCH  34  37
ATOM     37  CA  PHE A   2       6.221   5.381  23.625  0.00  0.00    +0.182 C 
BRANCH  37  38
ATOM     38  C   PHE A   2       6.923   4.714  22.414  0.00  0.00    +0.325 C 
ATOM     39  OXT PHE A   2       6.556   3.670  21.894  0.00  0.00    -0.249 OA
BRANCH  38  40
ATOM     40  O   PHE A   2       7.974   5.408  21.920  0.00  0.00    -0.479 OA
ATOM     41  H   PHE A   2       7.841   6.375  21.927  0.00  0.00    +0.295 HD
ENDBRANCH  38  40
ENDBRANCH  37  38
BRANCH  37  42
ATOM     42  CB  PHE A   2       4.879   5.968  23.128  0.00  0.00    +0.037 C 
BRANCH  42  43
ATOM     43  CG  PHE A   2       3.574   5.188  23.423  0.00  0.00    -0.009 C 
ATOM     44  CD2 PHE A   2       2.983   4.610  22.116  0.00  0.00    +0.003 C 
ATOM     45  CE2 PHE A   2       2.412   5.682  21.184  0.00  0.00    +0.000 C 
ATOM     46  CZ  PHE A   2       1.400   6.584  21.885  0.00  0.00    +0.000 C 
ATOM     47  CE1 PHE A   2       1.889   7.108  23.233  0.00  0.00    +0.000 C 
ATOM     48  CD1 PHE A   2       2.477   6.008  24.120  0.00  0.00    +0.003 C 
ENDBRANCH  42  43
ENDBRANCH  37  42
ENDBRANCH  34  37
ENDBRANCH  32  33
BRANCH  32  49
ATOM     49  CB  GLU A   1       6.927   3.392  28.052  0.00  0.00    +0.043 C 
BRANCH  49  50
ATOM     50  CG  GLU A   1       7.101   2.217  29.016  0.00  0.00    +0.123 C 
BRANCH  50  51
ATOM     51  CD  GLU A   1       5.810   1.477  29.243  0.00  0.00    +0.305 C 
ATOM     52  OE2 GLU A   1       4.896   1.905  29.929  0.00  0.00    -0.251 OA
BRANCH  51  53
ATOM     53  OE1 GLU A   1       5.747   0.292  28.596  0.00  0.00    -0.481 OA
ATOM     54  HE1 GLU A   1       4.885   0.094  28.182  0.00  0.00    +0.295 HD
ENDBRANCH  51  53
ENDBRANCH  50  51
ENDBRANCH  49  50
ENDBRANCH  32  49
ENDBRANCH  29  32
ENDBRANCH   1  28
BRANCH   1  55
ATOM     55  CB  GLU A   1       8.999  -0.431  25.371  0.00  0.00    +0.035 C 
BRANCH  55  56
ATOM     56  CG  GLU A   1       9.885  -1.016  24.258  0.00  0.00    +0.039 C 
BRANCH  56  57
ATOM     57  CD  GLU A   1      10.202  -0.002  23.147  0.00  0.00    +0.196 C 
BRANCH  57  62
ATOM     58  NH1 GLU A   1      10.061   3.588  23.407  0.00  0.00    -0.289 N 
ATOM     59 HH11 GLU A   1       9.862   3.599  24.399  0.00  0.00    +0.255 HD
ATOM     60 HH12 GLU A   1       9.630   4.376  22.945  0.00  0.00    +0.255 HD
ATOM     61  CZ  GLU A   1       9.813   2.395  22.830  0.00  0.00    +0.376 C 
ATOM     62  NE  GLU A   1      10.144   1.367  23.647  0.00  0.00    -0.276 N 
ATOM     63  HE  GLU A   1      10.853   1.607  24.322  0.00  0.00    +0.258 HD
ATOM     64  NH2 GLU A   1       9.332   2.273  21.650  0.00  0.00    -0.130 NA
ATOM     65  HH2 GLU A   1       9.185   3.194  21.235  0.00  0.00    +0.306 HD
ENDBRANCH  57  62
ENDBRANCH  56  57
ENDBRANCH  55  56
ENDBRANCH   1  55
TORSDOF 25
ENDMDL
MODEL 4
REMARK VINA RESULT:      -5.6      2.632      6.923
REMARK  Name = 
REMARK  25 active torsions:
REMARK  status: ('A' for Active; 'I' for Inactive)
REMARK    1  A    between atoms: NE_4  and  CD_5
REMARK    2  A    between atoms: CD_5  and  CG_6
REMARK    3  A    between atoms: CG_6  and  CB_7
REMARK    4  A    between atoms: CB_7  and  CA_8
REMARK    5  A    between atoms: CA_8  and  N_10
REMARK    6  A    between atoms: CA_8  and  C_35
REMARK    7  A    between atoms: C_11  and  C_13
REMARK    8  A    between atoms: C_13  and  C_15
REMARK    9  A    between atoms: C_15  and  C_17
REMARK   10  A    between atoms: C_15  and  N_24
REMARK   11  A    between atoms: C_17  and  C_18
REMARK   12  A    between atoms: C_25  and  O_27
REMARK   13  A    between atoms: O_27  and  C_28
REMARK   14  A    between atoms: C_28  and  C_29
REMARK   15  A    between atoms: N_37  and  CA_38
REMARK   16  A    between atoms: CA_38  and  CB_40
REMARK   17  A    between atoms: CA_38  and  C_45
REMARK   18  A    between atoms: CB_40  and  CG_41
REMARK   19  A    between atoms: CG_41  and  CD_42
REMARK   20  A    between atoms: CD_42  and  OE1_43
REMARK   21  A    between atoms: N_47  and  CA_48
REMARK   22  A    between atoms: CA_48  and  CB_50
REMARK   23  A    between atoms: CA_48  and  C_57
REMARK   24  A    between atoms: CB_50  and  CG_51
REMARK   25  A    between atoms: C_57  and  O_58
REMARK                            x       y       z     vdW  Elec       q    Type
REMARK                         _______ _______ _______ _____ _____    ______ ____
ROOT
ATOM      1  CA  GLU A   1       7.446  -0.288  26.183  0.00  0.00    +0.159 C 
ENDROOT
BRANCH   1   2
ATOM      2  N   GLU A   1       6.695  -1.337  26.888  0.00  0.00    -0.298 N 
ATOM      3  H   GLU A   1       6.799  -1.393  27.896  0.00  0.00    +0.150 HD
ATOM      4  C   UNK A   0       5.600  -1.978  26.334  0.00  0.00    +0.282 C 
ATOM      5  O   UNK A   0       5.191  -1.808  25.197  0.00  0.00    -0.267 OA
BRANCH   4   6
ATOM      6  C   UNK A   0       4.901  -2.983  27.265  0.00  0.00    +0.237 C 
ATOM      7  O   UNK A   0       4.211  -2.562  28.186  0.00  0.00    -0.285 OA
BRANCH   6   8
ATOM      8  C   UNK A   0       5.135  -4.467  26.937  0.00  0.00    +0.152 C 
BRANCH   8   9
ATOM      9  N   UNK A   0       6.369  -4.672  26.184  0.00  0.00    -0.271 N 
ATOM     10  H   UNK A   0       6.477  -4.298  25.250  0.00  0.00    +0.153 HD
ATOM     11  C   UNK A   0       7.417  -5.382  26.696  0.00  0.00    +0.401 C 
ATOM     12  O   UNK A   0       7.431  -5.872  27.815  0.00  0.00    -0.226 OA
BRANCH  11  13
ATOM     13  O   UNK A   0       8.426  -5.451  25.795  0.00  0.00    -0.446 OA
BRANCH  13  14
ATOM     14  C   UNK A   0       8.498  -4.338  24.892  0.00  0.00    +0.269 C 
BRANCH  14  15
ATOM     15  C   UNK A   0       7.767  -4.580  23.592  0.00  0.00    -0.010 A 
ATOM     16  C   UNK A   0       7.104  -3.532  22.938  0.00  0.00    +0.007 A 
ATOM     17  C   UNK A   0       6.358  -3.775  21.781  0.00  0.00    +0.000 A 
ATOM     18  C   UNK A   0       6.274  -5.065  21.260  0.00  0.00    +0.000 A 
ATOM     19  C   UNK A   0       6.940  -6.112  21.893  0.00  0.00    +0.000 A 
ATOM     20  C   UNK A   0       7.686  -5.872  23.050  0.00  0.00    +0.007 A 
ENDBRANCH  14  15
ENDBRANCH  13  14
ENDBRANCH  11  13
ENDBRANCH   8   9
BRANCH   8  21
ATOM     21  C   UNK A   0       3.940  -5.062  26.148  0.00  0.00    +0.034 C 
BRANCH  21  22
ATOM     22  C   UNK A   0       4.278  -5.418  24.674  0.00  0.00    -0.009 C 
ATOM     23  C   UNK A   0       3.370  -4.678  23.670  0.00  0.00    +0.003 C 
ATOM     24  C   UNK A   0       1.985  -5.300  23.487  0.00  0.00    +0.000 C 
ATOM     25  C   UNK A   0       2.046  -6.805  23.252  0.00  0.00    +0.000 C 
ATOM     26  C   UNK A   0       2.854  -7.501  24.339  0.00  0.00    +0.000 C 
ATOM     27  C   UNK A   0       4.266  -6.929  24.392  0.00  0.00    +0.003 C 
ENDBRANCH  21  22
ENDBRANCH   8  21
ENDBRANCH   6   8
ENDBRANCH   4   6
ENDBRANCH   1   2
BRANCH   1  28
ATOM     28  C   GLU A   1       7.219   1.085  26.902  0.00  0.00    +0.234 C 
ATOM     29  N   GLU A   1       7.198   2.212  26.093  0.00  0.00    -0.302 N 
ATOM     30  H   GLU A   1       6.907   2.099  25.128  0.00  0.00    +0.150 HD
ATOM     31  O   GLU A   1       7.110   1.186  28.124  0.00  0.00    -0.274 OA
BRANCH  29  32
ATOM     32  CA  GLU A   1       7.129   3.560  26.678  0.00  0.00    +0.159 C 
BRANCH  32  33
ATOM     33  C   GLU A   1       5.673   4.095  26.702  0.00  0.00    +0.234 C 
ATOM     34  N   PHE A   2       4.814   3.441  25.832  0.00  0.00    -0.301 N 
ATOM     35  H   PHE A   2       5.223   2.875  25.094  0.00  0.00    +0.150 HD
ATOM     36  O   GLU A   1       5.308   4.992  27.454  0.00  0.00    -0.274 OA
BRANCH  34  37
ATOM     37  CA  PHE A   2       3.390   3.794  25.654  0.00  0.00    +0.182 C 
BRANCH  37  38
ATOM     38  C   PHE A   2       2.904   3.278  24.275  0.00  0.00    +0.325 C 
ATOM     39  OXT PHE A   2       1.807   3.524  23.795  0.00  0.00    -0.249 OA
BRANCH  38  40
ATOM     40  O   PHE A   2       3.820   2.555  23.590  0.00  0.00    -0.479 OA
ATOM     41  H   PHE A   2       3.734   1.592  23.721  0.00  0.00    +0.295 HD
ENDBRANCH  38  40
ENDBRANCH  37  38
BRANCH  37  42
ATOM     42  CB  PHE A   2       2.481   3.167  26.739  0.00  0.00    +0.037 C 
BRANCH  42  43
ATOM     43  CG  PHE A   2       2.227   1.640  26.702  0.00  0.00    -0.009 C 
ATOM     44  CD2 PHE A   2       0.960   1.284  27.514  0.00  0.00    +0.003 C 
ATOM     45  CE2 PHE A   2       1.143   1.456  29.024  0.00  0.00    +0.000 C 
ATOM     46  CZ  PHE A   2       2.357   0.701  29.555  0.00  0.00    +0.000 C 
ATOM     47  CE1 PHE A   2       3.622   0.935  28.731  0.00  0.00    +0.000 C 
ATOM     48  CD1 PHE A   2       3.387   0.780  27.227  0.00  0.00    +0.003 C 
ENDBRANCH  42  43
ENDBRANCH  37  42
ENDBRANCH  34  37
ENDBRANCH  32  33
BRANCH  32  49
ATOM     49  CB  GLU A   1       8.024   4.546  25.905  0.00  0.00    +0.043 C 
BRANCH  49  50
ATOM     50  CG  GLU A   1       7.330   5.121  24.669  0.00  0.00    +0.123 C 
BRANCH  50  51
ATOM     51  CD  GLU A   1       7.472   4.221  23.471  0.00  0.00    +0.305 C 
ATOM     52  OE2 GLU A   1       6.858   3.176  23.333  0.00  0.00    -0.251 OA
BRANCH  51  53
ATOM     53  OE1 GLU A   1       8.337   4.689  22.545  0.00  0.00    -0.481 OA
ATOM     54  HE1 GLU A   1       9.053   5.253  22.895  0.00  0.00    +0.295 HD
ENDBRANCH  51  53
ENDBRANCH  50  51
ENDBRANCH  49  50
ENDBRANCH  32  49
ENDBRANCH  29  32
ENDBRANCH   1  28
BRANCH   1  55
ATOM     55  CB  GLU A   1       8.954  -0.617  26.162  0.00  0.00    +0.035 C 
BRANCH  55  56
ATOM     56  CG  GLU A   1       9.524  -0.892  24.759  0.00  0.00    +0.039 C 
BRANCH  56  57
ATOM     57  CD  GLU A   1       8.735  -0.190  23.643  0.00  0.00    +0.196 C 
BRANCH  57  62
ATOM     58  NH1 GLU A   1      10.350   2.470  21.830  0.00  0.00    -0.289 N 
ATOM     59 HH11 GLU A   1      10.212   3.168  22.550  0.00  0.00    +0.255 HD
ATOM     60 HH12 GLU A   1      10.339   2.894  20.913  0.00  0.00    +0.255 HD
ATOM     61  CZ  GLU A   1       9.541   1.401  21.965  0.00  0.00    +0.376 C 
ATOM     62  NE  GLU A   1       9.360   1.073  23.266  0.00  0.00    -0.276 N 
ATOM     63  HE  GLU A   1      10.117   1.371  23.861  0.00  0.00    +0.258 HD
ATOM     64  NH2 GLU A   1       9.025   0.782  20.970  0.00  0.00    -0.130 NA
ATOM     65  HH2 GLU A   1       9.328   1.212  20.095  0.00  0.00    +0.306 HD
ENDBRANCH  57  62
ENDBRANCH  56  57
ENDBRANCH  55  56
ENDBRANCH   1  55
TORSDOF 25
ENDMDL
MODEL 5
REMARK VINA RESULT:      -5.5      2.354      8.314
REMARK  Name = 
REMARK  25 active torsions:
REMARK  status: ('A' for Active; 'I' for Inactive)
REMARK    1  A    between atoms: NE_4  and  CD_5
REMARK    2  A    between atoms: CD_5  and  CG_6
REMARK    3  A    between atoms: CG_6  and  CB_7
REMARK    4  A    between atoms: CB_7  and  CA_8
REMARK    5  A    between atoms: CA_8  and  N_10
REMARK    6  A    between atoms: CA_8  and  C_35
REMARK    7  A    between atoms: C_11  and  C_13
REMARK    8  A    between atoms: C_13  and  C_15
REMARK    9  A    between atoms: C_15  and  C_17
REMARK   10  A    between atoms: C_15  and  N_24
REMARK   11  A    between atoms: C_17  and  C_18
REMARK   12  A    between atoms: C_25  and  O_27
REMARK   13  A    between atoms: O_27  and  C_28
REMARK   14  A    between atoms: C_28  and  C_29
REMARK   15  A    between atoms: N_37  and  CA_38
REMARK   16  A    between atoms: CA_38  and  CB_40
REMARK   17  A    between atoms: CA_38  and  C_45
REMARK   18  A    between atoms: CB_40  and  CG_41
REMARK   19  A    between atoms: CG_41  and  CD_42
REMARK   20  A    between atoms: CD_42  and  OE1_43
REMARK   21  A    between atoms: N_47  and  CA_48
REMARK   22  A    between atoms: CA_48  and  CB_50
REMARK   23  A    between atoms: CA_48  and  C_57
REMARK   24  A    between atoms: CB_50  and  CG_51
REMARK   25  A    between atoms: C_57  and  O_58
REMARK                            x       y       z     vdW  Elec       q    Type
REMARK                         _______ _______ _______ _____ _____    ______ ____
ROOT
ATOM      1  CA  GLU A   1       7.003  -0.926  24.082  0.00  0.00    +0.159 C 
ENDROOT
BRANCH   1   2
ATOM      2  N   GLU A   1       6.051   0.188  24.193  0.00  0.00    -0.298 N 
ATOM      3  H   GLU A   1       5.129   0.061  23.785  0.00  0.00    +0.150 HD
ATOM      4  C   UNK A   0       6.192   1.208  25.118  0.00  0.00    +0.282 C 
ATOM      5  O   UNK A   0       7.139   1.340  25.875  0.00  0.00    -0.267 OA
BRANCH   4   6
ATOM      6  C   UNK A   0       5.044   2.232  25.130  0.00  0.00    +0.237 C 
ATOM      7  O   UNK A   0       3.895   1.837  25.287  0.00  0.00    -0.285 OA
BRANCH   6   8
ATOM      8  C   UNK A   0       5.461   3.701  24.948  0.00  0.00    +0.152 C 
BRANCH   8   9
ATOM      9  N   UNK A   0       6.837   3.823  24.475  0.00  0.00    -0.271 N 
ATOM     10  H   UNK A   0       7.618   3.669  25.101  0.00  0.00    +0.153 HD
ATOM     11  C   UNK A   0       7.129   4.159  23.184  0.00  0.00    +0.401 C 
ATOM     12  O   UNK A   0       6.288   4.353  22.319  0.00  0.00    -0.226 OA
BRANCH  11  13
ATOM     13  O   UNK A   0       8.471   4.233  23.007  0.00  0.00    -0.446 OA
BRANCH  13  14
ATOM     14  C   UNK A   0       9.240   3.465  23.944  0.00  0.00    +0.269 C 
BRANCH  14  15
ATOM     15  C   UNK A   0       9.627   2.103  23.418  0.00  0.00    -0.010 A 
ATOM     16  C   UNK A   0       9.345   1.741  22.093  0.00  0.00    +0.007 A 
ATOM     17  C   UNK A   0       9.626   0.451  21.633  0.00  0.00    +0.000 A 
ATOM     18  C   UNK A   0      10.203  -0.486  22.488  0.00  0.00    +0.000 A 
ATOM     19  C   UNK A   0      10.501  -0.134  23.802  0.00  0.00    +0.000 A 
ATOM     20  C   UNK A   0      10.219   1.154  24.265  0.00  0.00    +0.007 A 
ENDBRANCH  14  15
ENDBRANCH  13  14
ENDBRANCH  11  13
ENDBRANCH   8   9
BRANCH   8  21
ATOM     21  C   UNK A   0       5.291   4.500  26.265  0.00  0.00    +0.034 C 
BRANCH  21  22
ATOM     22  C   UNK A   0       6.597   4.619  27.098  0.00  0.00    -0.009 C 
ATOM     23  C   UNK A   0       6.582   3.709  28.343  0.00  0.00    +0.003 C 
ATOM     24  C   UNK A   0       5.793   4.267  29.529  0.00  0.00    +0.000 C 
ATOM     25  C   UNK A   0       6.153   5.715  29.842  0.00  0.00    +0.000 C 
ATOM     26  C   UNK A   0       6.034   6.593  28.604  0.00  0.00    +0.000 C 
ATOM     27  C   UNK A   0       6.938   6.064  27.496  0.00  0.00    +0.003 C 
ENDBRANCH  21  22
ENDBRANCH   8  21
ENDBRANCH   6   8
ENDBRANCH   4   6
ENDBRANCH   1   2
BRANCH   1  28
ATOM     28  C   GLU A   1       7.078  -1.684  25.450  0.00  0.00    +0.234 C 
ATOM     29  N   GLU A   1       5.874  -2.112  25.989  0.00  0.00    -0.302 N 
ATOM     30  H   GLU A   1       5.111  -2.308  25.351  0.00  0.00    +0.150 HD
ATOM     31  O   GLU A   1       8.136  -1.859  26.055  0.00  0.00    -0.274 OA
BRANCH  29  32
ATOM     32  CA  GLU A   1       5.819  -2.711  27.332  0.00  0.00    +0.159 C 
BRANCH  32  33
ATOM     33  C   GLU A   1       6.051  -4.244  27.280  0.00  0.00    +0.234 C 
ATOM     34  N   PHE A   2       4.914  -4.981  26.992  0.00  0.00    -0.301 N 
ATOM     35  H   PHE A   2       4.011  -4.524  27.092  0.00  0.00    +0.150 HD
ATOM     36  O   GLU A   1       7.155  -4.753  27.443  0.00  0.00    -0.274 OA
BRANCH  34  37
ATOM     37  CA  PHE A   2       4.879  -6.457  26.921  0.00  0.00    +0.182 C 
BRANCH  37  38
ATOM     38  C   PHE A   2       4.977  -7.040  28.355  0.00  0.00    +0.325 C 
ATOM     39  OXT PHE A   2       4.018  -7.220  29.092  0.00  0.00    -0.249 OA
BRANCH  38  40
ATOM     40  O   PHE A   2       6.226  -7.397  28.733  0.00  0.00    -0.479 OA
ATOM     41  H   PHE A   2       6.889  -6.692  28.606  0.00  0.00    +0.295 HD
ENDBRANCH  38  40
ENDBRANCH  37  38
BRANCH  37  42
ATOM     42  CB  PHE A   2       3.576  -6.992  26.282  0.00  0.00    +0.037 C 
BRANCH  42  43
ATOM     43  CG  PHE A   2       3.626  -7.525  24.829  0.00  0.00    -0.009 C 
ATOM     44  CD2 PHE A   2       4.171  -6.438  23.875  0.00  0.00    +0.003 C 
ATOM     45  CE2 PHE A   2       3.200  -5.274  23.666  0.00  0.00    +0.000 C 
ATOM     46  CZ  PHE A   2       1.817  -5.742  23.221  0.00  0.00    +0.000 C 
ATOM     47  CE1 PHE A   2       1.265  -6.887  24.068  0.00  0.00    +0.000 C 
ATOM     48  CD1 PHE A   2       2.279  -8.014  24.274  0.00  0.00    +0.003 C 
ENDBRANCH  42  43
ENDBRANCH  37  42
ENDBRANCH  34  37
ENDBRANCH  32  33
BRANCH  32  49
ATOM     49  CB  GLU A   1       4.468  -2.421  28.012  0.00  0.00    +0.043 C 
BRANCH  49  50
ATOM     50  CG  GLU A   1       3.533  -1.593  27.129  0.00  0.00    +0.123 C 
BRANCH  50  51
ATOM     51  CD  GLU A   1       2.354  -2.395  26.647  0.00  0.00    +0.305 C 
ATOM     52  OE2 GLU A   1       2.316  -3.614  26.656  0.00  0.00    -0.251 OA
BRANCH  51  53
ATOM     53  OE1 GLU A   1       1.325  -1.634  26.215  0.00  0.00    -0.481 OA
ATOM     54  HE1 GLU A   1       0.505  -1.713  26.740  0.00  0.00    +0.295 HD
ENDBRANCH  51  53
ENDBRANCH  50  51
ENDBRANCH  49  50
ENDBRANCH  32  49
ENDBRANCH  29  32
ENDBRANCH   1  28
BRANCH   1  55
ATOM     55  CB  GLU A   1       6.568  -1.906  22.971  0.00  0.00    +0.035 C 
BRANCH  55  56
ATOM     56  CG  GLU A   1       6.305  -3.342  23.459  0.00  0.00    +0.039 C 
BRANCH  56  57
ATOM     57  CD  GLU A   1       7.418  -4.325  23.061  0.00  0.00    +0.196 C 
BRANCH  57  62
ATOM     58  NH1 GLU A   1       9.515  -5.752  25.617  0.00  0.00    -0.289 N 
ATOM     59 HH11 GLU A   1       8.748  -6.079  26.192  0.00  0.00    +0.255 HD
ATOM     60 HH12 GLU A   1      10.310  -5.502  26.188  0.00  0.00    +0.255 HD
ATOM     61  CZ  GLU A   1       9.146  -4.810  24.726  0.00  0.00    +0.376 C 
ATOM     62  NE  GLU A   1       7.916  -5.059  24.218  0.00  0.00    -0.276 N 
ATOM     63  HE  GLU A   1       7.662  -6.035  24.249  0.00  0.00    +0.258 HD
ATOM     64  NH2 GLU A   1       9.888  -3.817  24.407  0.00  0.00    -0.130 NA
ATOM     65  HH2 GLU A   1      10.773  -3.864  24.914  0.00  0.00    +0.306 HD
ENDBRANCH  57  62
ENDBRANCH  56  57
ENDBRANCH  55  56
ENDBRANCH   1  55
TORSDOF 25
ENDMDL
MODEL 6
REMARK VINA RESULT:      -5.5      1.364      2.064
REMARK  Name = 
REMARK  25 active torsions:
REMARK  status: ('A' for Active; 'I' for Inactive)
REMARK    1  A    between atoms: NE_4  and  CD_5
REMARK    2  A    between atoms: CD_5  and  CG_6
REMARK    3  A    between atoms: CG_6  and  CB_7
REMARK    4  A    between atoms: CB_7  and  CA_8
REMARK    5  A    between atoms: CA_8  and  N_10
REMARK    6  A    between atoms: CA_8  and  C_35
REMARK    7  A    between atoms: C_11  and  C_13
REMARK    8  A    between atoms: C_13  and  C_15
REMARK    9  A    between atoms: C_15  and  C_17
REMARK   10  A    between atoms: C_15  and  N_24
REMARK   11  A    between atoms: C_17  and  C_18
REMARK   12  A    between atoms: C_25  and  O_27
REMARK   13  A    between atoms: O_27  and  C_28
REMARK   14  A    between atoms: C_28  and  C_29
REMARK   15  A    between atoms: N_37  and  CA_38
REMARK   16  A    between atoms: CA_38  and  CB_40
REMARK   17  A    between atoms: CA_38  and  C_45
REMARK   18  A    between atoms: CB_40  and  CG_41
REMARK   19  A    between atoms: CG_41  and  CD_42
REMARK   20  A    between atoms: CD_42  and  OE1_43
REMARK   21  A    between atoms: N_47  and  CA_48
REMARK   22  A    between atoms: CA_48  and  CB_50
REMARK   23  A    between atoms: CA_48  and  C_57
REMARK   24  A    between atoms: CB_50  and  CG_51
REMARK   25  A    between atoms: C_57  and  O_58
REMARK                            x       y       z     vdW  Elec       q    Type
REMARK                         _______ _______ _______ _____ _____    ______ ____
ROOT
ATOM      1  CA  GLU A   1       3.786  -3.015  25.847  0.00  0.00    +0.159 C 
ENDROOT
BRANCH   1   2
ATOM      2  N   GLU A   1       4.573  -2.742  24.636  0.00  0.00    -0.298 N 
ATOM      3  H   GLU A   1       5.101  -1.875  24.604  0.00  0.00    +0.150 HD
ATOM      4  C   UNK A   0       4.935  -3.730  23.737  0.00  0.00    +0.282 C 
ATOM      5  O   UNK A   0       4.586  -4.897  23.801  0.00  0.00    -0.267 OA
BRANCH   4   6
ATOM      6  C   UNK A   0       5.831  -3.253  22.580  0.00  0.00    +0.237 C 
ATOM      7  O   UNK A   0       5.321  -3.017  21.491  0.00  0.00    -0.285 OA
BRANCH   6   8
ATOM      8  C   UNK A   0       7.325  -3.108  22.912  0.00  0.00    +0.152 C 
BRANCH   8   9
ATOM      9  N   UNK A   0       7.648  -3.651  24.229  0.00  0.00    -0.271 N 
ATOM     10  H   UNK A   0       7.515  -3.099  25.066  0.00  0.00    +0.153 HD
ATOM     11  C   UNK A   0       8.149  -4.912  24.385  0.00  0.00    +0.401 C 
ATOM     12  O   UNK A   0       8.341  -5.692  23.466  0.00  0.00    -0.226 OA
BRANCH  11  13
ATOM     13  O   UNK A   0       8.390  -5.164  25.695  0.00  0.00    -0.446 OA
BRANCH  13  14
ATOM     14  C   UNK A   0       7.667  -4.326  26.607  0.00  0.00    +0.269 C 
BRANCH  14  15
ATOM     15  C   UNK A   0       6.431  -4.987  27.169  0.00  0.00    -0.010 A 
ATOM     16  C   UNK A   0       5.849  -4.523  28.358  0.00  0.00    +0.007 A 
ATOM     17  C   UNK A   0       4.756  -5.189  28.922  0.00  0.00    +0.000 A 
ATOM     18  C   UNK A   0       4.227  -6.318  28.298  0.00  0.00    +0.000 A 
ATOM     19  C   UNK A   0       4.787  -6.780  27.110  0.00  0.00    +0.000 A 
ATOM     20  C   UNK A   0       5.881  -6.117  26.546  0.00  0.00    +0.007 A 
ENDBRANCH  14  15
ENDBRANCH  13  14
ENDBRANCH  11  13
ENDBRANCH   8   9
BRANCH   8  21
ATOM     21  C   UNK A   0       7.775  -1.626  22.838  0.00  0.00    +0.034 C 
BRANCH  21  22
ATOM     22  C   UNK A   0       9.261  -1.442  22.423  0.00  0.00    -0.009 C 
ATOM     23  C   UNK A   0      10.135  -0.933  23.588  0.00  0.00    +0.003 C 
ATOM     24  C   UNK A   0      10.037   0.571  23.846  0.00  0.00    +0.000 C 
ATOM     25  C   UNK A   0      10.187   1.395  22.572  0.00  0.00    +0.000 C 
ATOM     26  C   UNK A   0       9.216   0.929  21.496  0.00  0.00    +0.000 C 
ATOM     27  C   UNK A   0       9.444  -0.547  21.187  0.00  0.00    +0.003 C 
ENDBRANCH  21  22
ENDBRANCH   8  21
ENDBRANCH   6   8
ENDBRANCH   4   6
ENDBRANCH   1   2
BRANCH   1  28
ATOM     28  C   GLU A   1       3.743  -1.729  26.740  0.00  0.00    +0.234 C 
ATOM     29  N   GLU A   1       4.546  -0.671  26.342  0.00  0.00    -0.302 N 
ATOM     30  H   GLU A   1       4.768  -0.587  25.356  0.00  0.00    +0.150 HD
ATOM     31  O   GLU A   1       3.074  -1.658  27.771  0.00  0.00    -0.274 OA
BRANCH  29  32
ATOM     32  CA  GLU A   1       4.685   0.529  27.182  0.00  0.00    +0.159 C 
BRANCH  32  33
ATOM     33  C   GLU A   1       4.763   1.818  26.322  0.00  0.00    +0.234 C 
ATOM     34  N   PHE A   2       4.942   1.587  24.968  0.00  0.00    -0.301 N 
ATOM     35  H   PHE A   2       5.258   0.665  24.679  0.00  0.00    +0.150 HD
ATOM     36  O   GLU A   1       4.638   2.942  26.799  0.00  0.00    -0.274 OA
BRANCH  34  37
ATOM     37  CA  PHE A   2       5.077   2.656  23.956  0.00  0.00    +0.182 C 
BRANCH  37  38
ATOM     38  C   PHE A   2       3.728   3.408  23.823  0.00  0.00    +0.325 C 
ATOM     39  OXT PHE A   2       3.573   4.596  24.072  0.00  0.00    -0.249 OA
BRANCH  38  40
ATOM     40  O   PHE A   2       2.708   2.655  23.351  0.00  0.00    -0.479 OA
ATOM     41  H   PHE A   2       2.121   2.310  24.050  0.00  0.00    +0.295 HD
ENDBRANCH  38  40
ENDBRANCH  37  38
BRANCH  37  42
ATOM     42  CB  PHE A   2       6.161   3.696  24.329  0.00  0.00    +0.037 C 
BRANCH  42  43
ATOM     43  CG  PHE A   2       7.541   3.612  23.631  0.00  0.00    -0.009 C 
ATOM     44  CD2 PHE A   2       8.626   4.292  24.498  0.00  0.00    +0.003 C 
ATOM     45  CE2 PHE A   2       8.485   5.814  24.559  0.00  0.00    +0.000 C 
ATOM     46  CZ  PHE A   2       8.421   6.450  23.174  0.00  0.00    +0.000 C 
ATOM     47  CE1 PHE A   2       7.434   5.757  22.236  0.00  0.00    +0.000 C 
ATOM     48  CD1 PHE A   2       7.593   4.235  22.227  0.00  0.00    +0.003 C 
ENDBRANCH  42  43
ENDBRANCH  37  42
ENDBRANCH  34  37
ENDBRANCH  32  33
BRANCH  32  49
ATOM     49  CB  GLU A   1       5.934   0.436  28.078  0.00  0.00    +0.043 C 
BRANCH  49  50
ATOM     50  CG  GLU A   1       7.224   0.749  27.320  0.00  0.00    +0.123 C 
BRANCH  50  51
ATOM     51  CD  GLU A   1       7.862  -0.491  26.752  0.00  0.00    +0.305 C 
ATOM     52  OE2 GLU A   1       7.342  -1.187  25.896  0.00  0.00    -0.251 OA
BRANCH  51  53
ATOM     53  OE1 GLU A   1       9.081  -0.757  27.270  0.00  0.00    -0.481 OA
ATOM     54  HE1 GLU A   1       9.339  -1.698  27.258  0.00  0.00    +0.295 HD
ENDBRANCH  51  53
ENDBRANCH  50  51
ENDBRANCH  49  50
ENDBRANCH  32  49
ENDBRANCH  29  32
ENDBRANCH   1  28
BRANCH   1  55
ATOM     55  CB  GLU A   1       2.347  -3.437  25.479  0.00  0.00    +0.035 C 
BRANCH  55  56
ATOM     56  CG  GLU A   1       1.934  -4.818  26.016  0.00  0.00    +0.039 C 
BRANCH  56  57
ATOM     57  CD  GLU A   1       0.959  -5.558  25.086  0.00  0.00    +0.196 C 
BRANCH  57  62
ATOM     58  NH1 GLU A   1       1.945  -7.526  22.235  0.00  0.00    -0.289 N 
ATOM     59 HH11 GLU A   1       2.874  -7.730  22.582  0.00  0.00    +0.255 HD
ATOM     60 HH12 GLU A   1       1.942  -7.474  21.227  0.00  0.00    +0.255 HD
ATOM     61  CZ  GLU A   1       1.366  -6.477  22.853  0.00  0.00    +0.376 C 
ATOM     62  NE  GLU A   1       1.669  -6.446  24.172  0.00  0.00    -0.276 N 
ATOM     63  HE  GLU A   1       1.902  -7.352  24.549  0.00  0.00    +0.258 HD
ATOM     64  NH2 GLU A   1       0.617  -5.633  22.248  0.00  0.00    -0.130 NA
ATOM     65  HH2 GLU A   1       0.530  -5.886  21.263  0.00  0.00    +0.306 HD
ENDBRANCH  57  62
ENDBRANCH  56  57
ENDBRANCH  55  56
ENDBRANCH   1  55
TORSDOF 25
ENDMDL
MODEL 7
REMARK VINA RESULT:      -5.4      3.432      7.073
REMARK  Name = 
REMARK  25 active torsions:
REMARK  status: ('A' for Active; 'I' for Inactive)
REMARK    1  A    between atoms: NE_4  and  CD_5
REMARK    2  A    between atoms: CD_5  and  CG_6
REMARK    3  A    between atoms: CG_6  and  CB_7
REMARK    4  A    between atoms: CB_7  and  CA_8
REMARK    5  A    between atoms: CA_8  and  N_10
REMARK    6  A    between atoms: CA_8  and  C_35
REMARK    7  A    between atoms: C_11  and  C_13
REMARK    8  A    between atoms: C_13  and  C_15
REMARK    9  A    between atoms: C_15  and  C_17
REMARK   10  A    between atoms: C_15  and  N_24
REMARK   11  A    between atoms: C_17  and  C_18
REMARK   12  A    between atoms: C_25  and  O_27
REMARK   13  A    between atoms: O_27  and  C_28
REMARK   14  A    between atoms: C_28  and  C_29
REMARK   15  A    between atoms: N_37  and  CA_38
REMARK   16  A    between atoms: CA_38  and  CB_40
REMARK   17  A    between atoms: CA_38  and  C_45
REMARK   18  A    between atoms: CB_40  and  CG_41
REMARK   19  A    between atoms: CG_41  and  CD_42
REMARK   20  A    between atoms: CD_42  and  OE1_43
REMARK   21  A    between atoms: N_47  and  CA_48
REMARK   22  A    between atoms: CA_48  and  CB_50
REMARK   23  A    between atoms: CA_48  and  C_57
REMARK   24  A    between atoms: CB_50  and  CG_51
REMARK   25  A    between atoms: C_57  and  O_58
REMARK                            x       y       z     vdW  Elec       q    Type
REMARK                         _______ _______ _______ _____ _____    ______ ____
ROOT
ATOM      1  CA  GLU A   1       7.581   0.048  25.028  0.00  0.00    +0.159 C 
ENDROOT
BRANCH   1   2
ATOM      2  N   GLU A   1       6.965  -0.827  26.036  0.00  0.00    -0.298 N 
ATOM      3  H   GLU A   1       7.232  -0.687  27.006  0.00  0.00    +0.150 HD
ATOM      4  C   UNK A   0       5.803  -1.541  25.802  0.00  0.00    +0.282 C 
ATOM      5  O   UNK A   0       5.213  -1.588  24.734  0.00  0.00    -0.267 OA
BRANCH   4   6
ATOM      6  C   UNK A   0       5.275  -2.331  27.012  0.00  0.00    +0.237 C 
ATOM      7  O   UNK A   0       4.694  -1.729  27.908  0.00  0.00    -0.285 OA
BRANCH   6   8
ATOM      8  C   UNK A   0       5.526  -3.847  26.978  0.00  0.00    +0.152 C 
BRANCH   8   9
ATOM      9  N   UNK A   0       6.713  -4.186  26.198  0.00  0.00    -0.271 N 
ATOM     10  H   UNK A   0       6.917  -3.713  25.326  0.00  0.00    +0.153 HD
ATOM     11  C   UNK A   0       7.587  -5.157  26.599  0.00  0.00    +0.401 C 
ATOM     12  O   UNK A   0       7.475  -5.793  27.636  0.00  0.00    -0.226 OA
BRANCH  11  13
ATOM     13  O   UNK A   0       8.584  -5.298  25.692  0.00  0.00    -0.446 OA
BRANCH  13  14
ATOM     14  C   UNK A   0       8.638  -4.265  24.698  0.00  0.00    +0.269 C 
BRANCH  14  15
ATOM     15  C   UNK A   0       7.826  -4.585  23.466  0.00  0.00    -0.010 A 
ATOM     16  C   UNK A   0       7.143  -3.572  22.776  0.00  0.00    +0.007 A 
ATOM     17  C   UNK A   0       6.323  -3.882  21.687  0.00  0.00    +0.000 A 
ATOM     18  C   UNK A   0       6.185  -5.205  21.269  0.00  0.00    +0.000 A 
ATOM     19  C   UNK A   0       6.869  -6.217  21.936  0.00  0.00    +0.000 A 
ATOM     20  C   UNK A   0       7.688  -5.910  23.026  0.00  0.00    +0.007 A 
ENDBRANCH  14  15
ENDBRANCH  13  14
ENDBRANCH  11  13
ENDBRANCH   8   9
BRANCH   8  21
ATOM     21  C   UNK A   0       4.299  -4.607  26.413  0.00  0.00    +0.034 C 
BRANCH  21  22
ATOM     22  C   UNK A   0       4.505  -5.145  24.970  0.00  0.00    -0.009 C 
ATOM     23  C   UNK A   0       3.483  -4.557  23.975  0.00  0.00    +0.003 C 
ATOM     24  C   UNK A   0       2.107  -5.222  24.009  0.00  0.00    +0.000 C 
ATOM     25  C   UNK A   0       2.191  -6.744  23.962  0.00  0.00    +0.000 C 
ATOM     26  C   UNK A   0       3.119  -7.278  25.044  0.00  0.00    +0.000 C 
ATOM     27  C   UNK A   0       4.512  -6.679  24.885  0.00  0.00    +0.003 C 
ENDBRANCH  21  22
ENDBRANCH   8  21
ENDBRANCH   6   8
ENDBRANCH   4   6
ENDBRANCH   1   2
BRANCH   1  28
ATOM     28  C   GLU A   1       7.193   1.536  25.325  0.00  0.00    +0.234 C 
ATOM     29  N   GLU A   1       6.685   2.268  24.263  0.00  0.00    -0.302 N 
ATOM     30  H   GLU A   1       6.204   1.765  23.526  0.00  0.00    +0.150 HD
ATOM     31  O   GLU A   1       7.367   2.061  26.425  0.00  0.00    -0.274 OA
BRANCH  29  32
ATOM     32  CA  GLU A   1       6.418   3.709  24.398  0.00  0.00    +0.159 C 
BRANCH  32  33
ATOM     33  C   GLU A   1       5.020   4.083  23.839  0.00  0.00    +0.234 C 
ATOM     34  N   PHE A   2       4.287   3.002  23.376  0.00  0.00    -0.301 N 
ATOM     35  H   PHE A   2       4.781   2.132  23.198  0.00  0.00    +0.150 HD
ATOM     36  O   GLU A   1       4.590   5.232  23.841  0.00  0.00    -0.274 OA
BRANCH  34  37
ATOM     37  CA  PHE A   2       2.943   3.112  22.769  0.00  0.00    +0.182 C 
BRANCH  37  38
ATOM     38  C   PHE A   2       1.883   3.242  23.894  0.00  0.00    +0.325 C 
ATOM     39  OXT PHE A   2       1.026   2.403  24.133  0.00  0.00    -0.249 OA
BRANCH  38  40
ATOM     40  O   PHE A   2       2.001   4.356  24.652  0.00  0.00    -0.479 OA
ATOM     41  H   PHE A   2       1.688   5.166  24.207  0.00  0.00    +0.295 HD
ENDBRANCH  38  40
ENDBRANCH  37  38
BRANCH  37  42
ATOM     42  CB  PHE A   2       2.805   4.346  21.847  0.00  0.00    +0.037 C 
BRANCH  42  43
ATOM     43  CG  PHE A   2       1.410   4.689  21.270  0.00  0.00    -0.009 C 
ATOM     44  CD2 PHE A   2       0.948   3.590  20.285  0.00  0.00    +0.003 C 
ATOM     45  CE2 PHE A   2       1.745   3.574  18.979  0.00  0.00    +0.000 C 
ATOM     46  CZ  PHE A   2       1.772   4.938  18.295  0.00  0.00    +0.000 C 
ATOM     47  CE1 PHE A   2       2.126   6.082  19.243  0.00  0.00    +0.000 C 
ATOM     48  CD1 PHE A   2       1.325   6.042  20.547  0.00  0.00    +0.003 C 
ENDBRANCH  42  43
ENDBRANCH  37  42
ENDBRANCH  34  37
ENDBRANCH  32  33
BRANCH  32  49
ATOM     49  CB  GLU A   1       7.496   4.542  23.680  0.00  0.00    +0.043 C 
BRANCH  49  50
ATOM     50  CG  GLU A   1       8.769   4.695  24.513  0.00  0.00    +0.123 C 
BRANCH  50  51
ATOM     51  CD  GLU A   1       9.909   5.256  23.705  0.00  0.00    +0.305 C 
ATOM     52  OE2 GLU A   1      11.026   4.766  23.681  0.00  0.00    -0.251 OA
BRANCH  51  53
ATOM     53  OE1 GLU A   1       9.575   6.351  22.988  0.00  0.00    -0.481 OA
ATOM     54  HE1 GLU A   1       8.728   6.287  22.507  0.00  0.00    +0.295 HD
ENDBRANCH  51  53
ENDBRANCH  50  51
ENDBRANCH  49  50
ENDBRANCH  32  49
ENDBRANCH  29  32
ENDBRANCH   1  28
BRANCH   1  55
ATOM     55  CB  GLU A   1       9.118  -0.099  25.043  0.00  0.00    +0.035 C 
BRANCH  55  56
ATOM     56  CG  GLU A   1       9.668  -1.113  24.025  0.00  0.00    +0.039 C 
BRANCH  56  57
ATOM     57  CD  GLU A   1      10.278  -0.446  22.783  0.00  0.00    +0.196 C 
BRANCH  57  62
ATOM     58  NH1 GLU A   1       8.101   1.859  21.074  0.00  0.00    -0.289 N 
ATOM     59 HH11 GLU A   1       7.715   1.168  20.442  0.00  0.00    +0.255 HD
ATOM     60 HH12 GLU A   1       8.135   2.767  20.635  0.00  0.00    +0.255 HD
ATOM     61  CZ  GLU A   1       9.257   1.467  21.646  0.00  0.00    +0.376 C 
ATOM     62  NE  GLU A   1       9.247   0.145  21.938  0.00  0.00    -0.276 N 
ATOM     63  HE  GLU A   1       8.319  -0.227  22.069  0.00  0.00    +0.258 HD
ATOM     64  NH2 GLU A   1      10.227   2.268  21.884  0.00  0.00    -0.130 NA
ATOM     65  HH2 GLU A   1       9.982   3.213  21.588  0.00  0.00    +0.306 HD
ENDBRANCH  57  62
ENDBRANCH  56  57
ENDBRANCH  55  56
ENDBRANCH   1  55
TORSDOF 25
ENDMDL
MODEL 8
REMARK VINA RESULT:      -5.3      1.956      7.773
REMARK  Name = 
REMARK  25 active torsions:
REMARK  status: ('A' for Active; 'I' for Inactive)
REMARK    1  A    between atoms: NE_4  and  CD_5
REMARK    2  A    between atoms: CD_5  and  CG_6
REMARK    3  A    between atoms: CG_6  and  CB_7
REMARK    4  A    between atoms: CB_7  and  CA_8
REMARK    5  A    between atoms: CA_8  and  N_10
REMARK    6  A    between atoms: CA_8  and  C_35
REMARK    7  A    between atoms: C_11  and  C_13
REMARK    8  A    between atoms: C_13  and  C_15
REMARK    9  A    between atoms: C_15  and  C_17
REMARK   10  A    between atoms: C_15  and  N_24
REMARK   11  A    between atoms: C_17  and  C_18
REMARK   12  A    between atoms: C_25  and  O_27
REMARK   13  A    between atoms: O_27  and  C_28
REMARK   14  A    between atoms: C_28  and  C_29
REMARK   15  A    between atoms: N_37  and  CA_38
REMARK   16  A    between atoms: CA_38  and  CB_40
REMARK   17  A    between atoms: CA_38  and  C_45
REMARK   18  A    between atoms: CB_40  and  CG_41
REMARK   19  A    between atoms: CG_41  and  CD_42
REMARK   20  A    between atoms: CD_42  and  OE1_43
REMARK   21  A    between atoms: N_47  and  CA_48
REMARK   22  A    between atoms: CA_48  and  CB_50
REMARK   23  A    between atoms: CA_48  and  C_57
REMARK   24  A    between atoms: CB_50  and  CG_51
REMARK   25  A    between atoms: C_57  and  O_58
REMARK                            x       y       z     vdW  Elec       q    Type
REMARK                         _______ _______ _______ _____ _____    ______ ____
ROOT
ATOM      1  CA  GLU A   1       4.541  -1.504  27.000  0.00  0.00    +0.159 C 
ENDROOT
BRANCH   1   2
ATOM      2  N   GLU A   1       4.609  -0.128  27.512  0.00  0.00    -0.298 N 
ATOM      3  H   GLU A   1       5.492   0.184  27.905  0.00  0.00    +0.150 HD
ATOM      4  C   UNK A   0       3.700   0.852  27.153  0.00  0.00    +0.282 C 
ATOM      5  O   UNK A   0       2.718   0.674  26.452  0.00  0.00    -0.267 OA
BRANCH   4   6
ATOM      6  C   UNK A   0       3.994   2.248  27.730  0.00  0.00    +0.237 C 
ATOM      7  O   UNK A   0       4.016   2.397  28.946  0.00  0.00    -0.285 OA
BRANCH   6   8
ATOM      8  C   UNK A   0       4.249   3.356  26.695  0.00  0.00    +0.152 C 
BRANCH   8   9
ATOM      9  N   UNK A   0       5.030   2.873  25.560  0.00  0.00    -0.271 N 
ATOM     10  H   UNK A   0       5.763   2.187  25.686  0.00  0.00    +0.153 HD
ATOM     11  C   UNK A   0       4.815   3.330  24.290  0.00  0.00    +0.401 C 
ATOM     12  O   UNK A   0       3.952   4.141  23.991  0.00  0.00    -0.226 OA
BRANCH  11  13
ATOM     13  O   UNK A   0       5.683   2.751  23.426  0.00  0.00    -0.446 OA
BRANCH  13  14
ATOM     14  C   UNK A   0       6.183   3.626  22.405  0.00  0.00    +0.269 C 
BRANCH  14  15
ATOM     15  C   UNK A   0       7.422   4.380  22.823  0.00  0.00    -0.010 A 
ATOM     16  C   UNK A   0       8.511   3.706  23.396  0.00  0.00    +0.007 A 
ATOM     17  C   UNK A   0       9.622   4.416  23.861  0.00  0.00    +0.000 A 
ATOM     18  C   UNK A   0       9.662   5.805  23.748  0.00  0.00    +0.000 A 
ATOM     19  C   UNK A   0       8.593   6.484  23.169  0.00  0.00    +0.000 A 
ATOM     20  C   UNK A   0       7.481   5.777  22.705  0.00  0.00    +0.007 A 
ENDBRANCH  14  15
ENDBRANCH  13  14
ENDBRANCH  11  13
ENDBRANCH   8   9
BRANCH   8  21
ATOM     21  C   UNK A   0       4.965   4.571  27.338  0.00  0.00    +0.034 C 
BRANCH  21  22
ATOM     22  C   UNK A   0       6.472   4.328  27.628  0.00  0.00    -0.009 C 
ATOM     23  C   UNK A   0       6.845   4.650  29.090  0.00  0.00    +0.003 C 
ATOM     24  C   UNK A   0       7.044   6.137  29.384  0.00  0.00    +0.000 C 
ATOM     25  C   UNK A   0       7.949   6.819  28.364  0.00  0.00    +0.000 C 
ATOM     26  C   UNK A   0       7.465   6.570  26.942  0.00  0.00    +0.000 C 
ATOM     27  C   UNK A   0       7.408   5.072  26.662  0.00  0.00    +0.003 C 
ENDBRANCH  21  22
ENDBRANCH   8  21
ENDBRANCH   6   8
ENDBRANCH   4   6
ENDBRANCH   1   2
BRANCH   1  28
ATOM     28  C   GLU A   1       5.991  -2.080  26.865  0.00  0.00    +0.234 C 
ATOM     29  N   GLU A   1       6.101  -3.457  26.733  0.00  0.00    -0.302 N 
ATOM     30  H   GLU A   1       5.324  -3.958  26.317  0.00  0.00    +0.150 HD
ATOM     31  O   GLU A   1       6.996  -1.371  26.919  0.00  0.00    -0.274 OA
BRANCH  29  32
ATOM     32  CA  GLU A   1       7.419  -4.112  26.737  0.00  0.00    +0.159 C 
BRANCH  32  33
ATOM     33  C   GLU A   1       7.999  -4.231  25.303  0.00  0.00    +0.234 C 
ATOM     34  N   PHE A   2       7.153  -3.765  24.309  0.00  0.00    -0.301 N 
ATOM     35  H   PHE A   2       6.172  -3.633  24.540  0.00  0.00    +0.150 HD
ATOM     36  O   GLU A   1       9.122  -4.667  25.076  0.00  0.00    -0.274 OA
BRANCH  34  37
ATOM     37  CA  PHE A   2       7.471  -3.804  22.866  0.00  0.00    +0.182 C 
BRANCH  37  38
ATOM     38  C   PHE A   2       6.207  -4.231  22.075  0.00  0.00    +0.325 C 
ATOM     39  OXT PHE A   2       5.694  -5.338  22.142  0.00  0.00    -0.249 OA
BRANCH  38  40
ATOM     40  O   PHE A   2       5.660  -3.252  21.318  0.00  0.00    -0.479 OA
ATOM     41  H   PHE A   2       6.311  -2.763  20.781  0.00  0.00    +0.295 HD
ENDBRANCH  38  40
ENDBRANCH  37  38
BRANCH  37  42
ATOM     42  CB  PHE A   2       7.927  -2.430  22.319  0.00  0.00    +0.037 C 
BRANCH  42  43
ATOM     43  CG  PHE A   2       7.981  -1.225  23.290  0.00  0.00    -0.009 C 
ATOM     44  CD2 PHE A   2       7.626   0.083  22.546  0.00  0.00    +0.003 C 
ATOM     45  CE2 PHE A   2       8.706   0.529  21.558  0.00  0.00    +0.000 C 
ATOM     46  CZ  PHE A   2      10.083   0.631  22.207  0.00  0.00    +0.000 C 
ATOM     47  CE1 PHE A   2      10.451  -0.596  23.040  0.00  0.00    +0.000 C 
ATOM     48  CD1 PHE A   2       9.332  -1.022  23.993  0.00  0.00    +0.003 C 
ENDBRANCH  42  43
ENDBRANCH  37  42
ENDBRANCH  34  37
ENDBRANCH  32  33
BRANCH  32  49
ATOM     49  CB  GLU A   1       7.339  -5.512  27.375  0.00  0.00    +0.043 C 
BRANCH  49  50
ATOM     50  CG  GLU A   1       6.146  -5.658  28.320  0.00  0.00    +0.123 C 
BRANCH  50  51
ATOM     51  CD  GLU A   1       5.265  -6.819  27.943  0.00  0.00    +0.305 C 
ATOM     52  OE2 GLU A   1       5.064  -7.170  26.792  0.00  0.00    -0.251 OA
BRANCH  51  53
ATOM     53  OE1 GLU A   1       4.727  -7.455  29.006  0.00  0.00    -0.481 OA
ATOM     54  HE1 GLU A   1       5.224  -8.237  29.314  0.00  0.00    +0.295 HD
ENDBRANCH  51  53
ENDBRANCH  50  51
ENDBRANCH  49  50
ENDBRANCH  32  49
ENDBRANCH  29  32
ENDBRANCH   1  28
BRANCH   1  55
ATOM     55  CB  GLU A   1       3.715  -2.399  27.948  0.00  0.00    +0.035 C 
BRANCH  55  56
ATOM     56  CG  GLU A   1       2.431  -2.972  27.322  0.00  0.00    +0.039 C 
BRANCH  56  57
ATOM     57  CD  GLU A   1       2.540  -4.470  26.993  0.00  0.00    +0.196 C 
BRANCH  57  62
ATOM     58  NH1 GLU A   1       2.743  -4.894  23.423  0.00  0.00    -0.289 N 
ATOM     59 HH11 GLU A   1       1.830  -5.321  23.330  0.00  0.00    +0.255 HD
ATOM     60 HH12 GLU A   1       3.380  -5.253  22.726  0.00  0.00    +0.255 HD
ATOM     61  CZ  GLU A   1       3.217  -4.923  24.685  0.00  0.00    +0.376 C 
ATOM     62  NE  GLU A   1       2.231  -4.729  25.592  0.00  0.00    -0.276 N 
ATOM     63  HE  GLU A   1       1.445  -4.216  25.224  0.00  0.00    +0.258 HD
ATOM     64  NH2 GLU A   1       4.453  -5.104  24.966  0.00  0.00    -0.130 NA
ATOM     65  HH2 GLU A   1       4.995  -5.207  24.107  0.00  0.00    +0.306 HD
ENDBRANCH  57  62
ENDBRANCH  56  57
ENDBRANCH  55  56
ENDBRANCH   1  55
TORSDOF 25
ENDMDL
MODEL 9
REMARK VINA RESULT:      -5.3      2.534      7.949
REMARK  Name = 
REMARK  25 active torsions:
REMARK  status: ('A' for Active; 'I' for Inactive)
REMARK    1  A    between atoms: NE_4  and  CD_5
REMARK    2  A    between atoms: CD_5  and  CG_6
REMARK    3  A    between atoms: CG_6  and  CB_7
REMARK    4  A    between atoms: CB_7  and  CA_8
REMARK    5  A    between atoms: CA_8  and  N_10
REMARK    6  A    between atoms: CA_8  and  C_35
REMARK    7  A    between atoms: C_11  and  C_13
REMARK    8  A    between atoms: C_13  and  C_15
REMARK    9  A    between atoms: C_15  and  C_17
REMARK   10  A    between atoms: C_15  and  N_24
REMARK   11  A    between atoms: C_17  and  C_18
REMARK   12  A    between atoms: C_25  and  O_27
REMARK   13  A    between atoms: O_27  and  C_28
REMARK   14  A    between atoms: C_28  and  C_29
REMARK   15  A    between atoms: N_37  and  CA_38
REMARK   16  A    between atoms: CA_38  and  CB_40
REMARK   17  A    between atoms: CA_38  and  C_45
REMARK   18  A    between atoms: CB_40  and  CG_41
REMARK   19  A    between atoms: CG_41  and  CD_42
REMARK   20  A    between atoms: CD_42  and  OE1_43
REMARK   21  A    between atoms: N_47  and  CA_48
REMARK   22  A    between atoms: CA_48  and  CB_50
REMARK   23  A    between atoms: CA_48  and  C_57
REMARK   24  A    between atoms: CB_50  and  CG_51
REMARK   25  A    between atoms: C_57  and  O_58
REMARK                            x       y       z     vdW  Elec       q    Type
REMARK                         _______ _______ _______ _____ _____    ______ ____
ROOT
ATOM      1  CA  GLU A   1       4.599  -2.759  27.232  0.00  0.00    +0.159 C 
ENDROOT
BRANCH   1   2
ATOM      2  N   GLU A   1       5.019  -1.362  27.414  0.00  0.00    -0.298 N 
ATOM      3  H   GLU A   1       5.408  -1.103  28.316  0.00  0.00    +0.150 HD
ATOM      4  C   UNK A   0       5.269  -0.509  26.354  0.00  0.00    +0.282 C 
ATOM      5  O   UNK A   0       5.097  -0.784  25.177  0.00  0.00    -0.267 OA
BRANCH   4   6
ATOM      6  C   UNK A   0       5.781   0.886  26.754  0.00  0.00    +0.237 C 
ATOM      7  O   UNK A   0       6.988   1.067  26.866  0.00  0.00    -0.285 OA
BRANCH   6   8
ATOM      8  C   UNK A   0       4.698   1.954  26.976  0.00  0.00    +0.152 C 
BRANCH   8   9
ATOM      9  N   UNK A   0       5.004   3.196  26.270  0.00  0.00    -0.271 N 
ATOM     10  H   UNK A   0       5.472   3.960  26.740  0.00  0.00    +0.153 HD
ATOM     11  C   UNK A   0       4.664   3.383  24.960  0.00  0.00    +0.401 C 
ATOM     12  O   UNK A   0       4.115   2.540  24.268  0.00  0.00    -0.226 OA
BRANCH  11  13
ATOM     13  O   UNK A   0       5.031   4.622  24.550  0.00  0.00    -0.446 OA
BRANCH  13  14
ATOM     14  C   UNK A   0       5.535   5.470  25.591  0.00  0.00    +0.269 C 
BRANCH  14  15
ATOM     15  C   UNK A   0       6.898   6.042  25.282  0.00  0.00    -0.010 A 
ATOM     16  C   UNK A   0       7.174   6.595  24.023  0.00  0.00    +0.007 A 
ATOM     17  C   UNK A   0       8.460   7.046  23.711  0.00  0.00    +0.000 A 
ATOM     18  C   UNK A   0       9.481   6.960  24.656  0.00  0.00    +0.000 A 
ATOM     19  C   UNK A   0       9.216   6.426  25.915  0.00  0.00    +0.000 A 
ATOM     20  C   UNK A   0       7.932   5.973  26.229  0.00  0.00    +0.007 A 
ENDBRANCH  14  15
ENDBRANCH  13  14
ENDBRANCH  11  13
ENDBRANCH   8   9
BRANCH   8  21
ATOM     21  C   UNK A   0       4.502   2.250  28.485  0.00  0.00    +0.034 C 
BRANCH  21  22
ATOM     22  C   UNK A   0       3.386   1.397  29.150  0.00  0.00    -0.009 C 
ATOM     23  C   UNK A   0       2.198   1.144  28.199  0.00  0.00    +0.003 C 
ATOM     24  C   UNK A   0       1.216   2.310  28.084  0.00  0.00    +0.000 C 
ATOM     25  C   UNK A   0       0.797   2.859  29.444  0.00  0.00    +0.000 C 
ATOM     26  C   UNK A   0       2.010   3.206  30.296  0.00  0.00    +0.000 C 
ATOM     27  C   UNK A   0       2.890   1.975  30.485  0.00  0.00    +0.003 C 
ENDBRANCH  21  22
ENDBRANCH   8  21
ENDBRANCH   6   8
ENDBRANCH   4   6
ENDBRANCH   1   2
BRANCH   1  28
ATOM     28  C   GLU A   1       5.825  -3.615  26.769  0.00  0.00    +0.234 C 
ATOM     29  N   GLU A   1       6.026  -3.723  25.400  0.00  0.00    -0.302 N 
ATOM     30  H   GLU A   1       5.693  -2.968  24.811  0.00  0.00    +0.150 HD
ATOM     31  O   GLU A   1       6.558  -4.209  27.560  0.00  0.00    -0.274 OA
BRANCH  29  32
ATOM     32  CA  GLU A   1       7.064  -4.612  24.857  0.00  0.00    +0.159 C 
BRANCH  32  33
ATOM     33  C   GLU A   1       8.364  -3.832  24.526  0.00  0.00    +0.234 C 
ATOM     34  N   PHE A   2       8.176  -2.474  24.330  0.00  0.00    -0.301 N 
ATOM     35  H   PHE A   2       7.229  -2.143  24.161  0.00  0.00    +0.150 HD
ATOM     36  O   GLU A   1       9.466  -4.369  24.481  0.00  0.00    -0.274 OA
BRANCH  34  37
ATOM     37  CA  PHE A   2       9.257  -1.531  23.972  0.00  0.00    +0.182 C 
BRANCH  37  38
ATOM     38  C   PHE A   2       9.715  -1.807  22.517  0.00  0.00    +0.325 C 
ATOM     39  OXT PHE A   2      10.883  -1.877  22.164  0.00  0.00    -0.249 OA
BRANCH  38  40
ATOM     40  O   PHE A   2       8.706  -2.021  21.641  0.00  0.00    -0.479 OA
ATOM     41  H   PHE A   2       9.009  -2.178  20.727  0.00  0.00    +0.295 HD
ENDBRANCH  38  40
ENDBRANCH  37  38
BRANCH  37  42
ATOM     42  CB  PHE A   2       8.809  -0.053  24.053  0.00  0.00    +0.037 C 
BRANCH  42  43
ATOM     43  CG  PHE A   2       9.769   1.044  23.530  0.00  0.00    -0.009 C 
ATOM     44  CD2 PHE A   2       9.623   2.334  24.369  0.00  0.00    +0.003 C 
ATOM     45  CE2 PHE A   2       8.294   3.057  24.140  0.00  0.00    +0.000 C 
ATOM     46  CZ  PHE A   2       8.029   3.337  22.664  0.00  0.00    +0.000 C 
ATOM     47  CE1 PHE A   2       8.254   2.121  21.768  0.00  0.00    +0.000 C 
ATOM     48  CD1 PHE A   2       9.581   1.413  22.050  0.00  0.00    +0.003 C 
ENDBRANCH  42  43
ENDBRANCH  37  42
ENDBRANCH  34  37
ENDBRANCH  32  33
BRANCH  32  49
ATOM     49  CB  GLU A   1       6.566  -5.337  23.593  0.00  0.00    +0.043 C 
BRANCH  49  50
ATOM     50  CG  GLU A   1       5.306  -4.698  23.009  0.00  0.00    +0.123 C 
BRANCH  50  51
ATOM     51  CD  GLU A   1       5.630  -3.612  22.019  0.00  0.00    +0.305 C 
ATOM     52  OE2 GLU A   1       5.821  -3.814  20.831  0.00  0.00    -0.251 OA
BRANCH  51  53
ATOM     53  OE1 GLU A   1       5.672  -2.377  22.566  0.00  0.00    -0.481 OA
ATOM     54  HE1 GLU A   1       4.966  -2.188  23.213  0.00  0.00    +0.295 HD
ENDBRANCH  51  53
ENDBRANCH  50  51
ENDBRANCH  49  50
ENDBRANCH  32  49
ENDBRANCH  29  32
ENDBRANCH   1  28
BRANCH   1  55
ATOM     55  CB  GLU A   1       4.033  -3.335  28.548  0.00  0.00    +0.035 C 
BRANCH  55  56
ATOM     56  CG  GLU A   1       3.075  -4.525  28.360  0.00  0.00    +0.039 C 
BRANCH  56  57
ATOM     57  CD  GLU A   1       3.316  -5.655  29.374  0.00  0.00    +0.196 C 
BRANCH  57  62
ATOM     58  NH1 GLU A   1       6.590  -7.117  29.039  0.00  0.00    -0.289 N 
ATOM     59 HH11 GLU A   1       7.072  -6.375  29.532  0.00  0.00    +0.255 HD
ATOM     60 HH12 GLU A   1       7.184  -7.519  28.328  0.00  0.00    +0.255 HD
ATOM     61  CZ  GLU A   1       5.363  -6.759  28.610  0.00  0.00    +0.376 C 
ATOM     62  NE  GLU A   1       4.736  -5.958  29.503  0.00  0.00    -0.276 N 
ATOM     63  HE  GLU A   1       5.064  -6.082  30.448  0.00  0.00    +0.258 HD
ATOM     64  NH2 GLU A   1       4.869  -7.150  27.495  0.00  0.00    -0.130 NA
ATOM     65  HH2 GLU A   1       5.530  -7.760  27.014  0.00  0.00    +0.306 HD
ENDBRANCH  57  62
ENDBRANCH  56  57
ENDBRANCH  55  56
ENDBRANCH   1  55
TORSDOF 25
ENDMDL
