MODEL 1
REMARK VINA RESULT:      -4.0      0.000      0.000
REMARK  Name = 
REMARK  47 active torsions:
REMARK  status: ('A' for Active; 'I' for Inactive)
REMARK    1  A    between atoms: C_1  and  C_2
REMARK    2  A    between atoms: C_2  and  C_3
REMARK    3  A    between atoms: C_3  and  C_4
REMARK    4  A    between atoms: C_4  and  C_5
REMARK    5  A    between atoms: C_5  and  C_6
REMARK    6  A    between atoms: C_6  and  C_7
REMARK    7  A    between atoms: C_7  and  C_8
REMARK    8  A    between atoms: C_8  and  C_9
REMARK    9  A    between atoms: C_9  and  C_10
REMARK   10  A    between atoms: C_10  and  C_11
REMARK   11  A    between atoms: C_11  and  C_12
REMARK   12  A    between atoms: C_12  and  C_13
REMARK   13  A    between atoms: C_13  and  C_14
REMARK   14  A    between atoms: C_14  and  C_15
REMARK   15  A    between atoms: C_15  and  C_16
REMARK   16  A    between atoms: C_16  and  C_17
REMARK   17  A    between atoms: C_17  and  C_18
REMARK   18  A    between atoms: C_18  and  O_20
REMARK   19  A    between atoms: O_20  and  C_21
REMARK   20  A    between atoms: C_21  and  C_22
REMARK   21  A    between atoms: C_22  and  C_24
REMARK   22  A    between atoms: C_22  and  O_33
REMARK   23  A    between atoms: C_24  and  O_25
REMARK   24  A    between atoms: O_25  and  P_26
REMARK   25  A    between atoms: P_26  and  O_27
REMARK   26  A    between atoms: P_26  and  O_29
REMARK   27  A    between atoms: O_29  and  C_30
REMARK   28  A    between atoms: C_30  and  C_31
REMARK   29  A    between atoms: C_31  and  N_32
REMARK   30  A    between atoms: O_33  and  C_34
REMARK   31  A    between atoms: C_34  and  C_36
REMARK   32  A    between atoms: C_36  and  C_37
REMARK   33  A    between atoms: C_37  and  C_38
REMARK   34  A    between atoms: C_38  and  C_39
REMARK   35  A    between atoms: C_39  and  C_40
REMARK   36  A    between atoms: C_40  and  C_41
REMARK   37  A    between atoms: C_41  and  C_42
REMARK   38  A    between atoms: C_42  and  C_43
REMARK   39  A    between atoms: C_43  and  C_44
REMARK   40  A    between atoms: C_44  and  C_45
REMARK   41  A    between atoms: C_45  and  C_46
REMARK   42  A    between atoms: C_46  and  C_47
REMARK   43  A    between atoms: C_47  and  C_48
REMARK   44  A    between atoms: C_48  and  C_49
REMARK   45  A    between atoms: C_49  and  C_50
REMARK   46  A    between atoms: C_50  and  C_51
REMARK   47  A    between atoms: C_51  and  C_52
REMARK                            x       y       z     vdW  Elec       q    Type
REMARK                         _______ _______ _______ _____ _____    ______ ____
ROOT
ATOM      1  C   UNL     1       6.652  -3.986  24.127  0.00  0.00    +0.240 C 
ENDROOT
BRANCH   1   2
ATOM      2  C   UNL     1       5.701  -5.158  23.905  0.00  0.00    +0.220 C 
BRANCH   2   3
ATOM      3  O   UNL     1       4.749  -5.186  24.962  0.00  0.00    -0.283 OA
BRANCH   3   4
ATOM      4  P   UNL     1       4.207  -6.625  25.416  0.00  0.00    +0.475 P 
ATOM      5  O   UNL     1       2.743  -6.679  25.709  0.00  0.00    -0.227 OA
BRANCH   4   6
ATOM      6  O   UNL     1       4.589  -7.532  24.154  0.00  0.00    -0.302 OA
ATOM      7  H   UNL     1       5.232  -8.213  24.423  0.00  0.00    +0.222 HD
ENDBRANCH   4   6
BRANCH   4   8
ATOM      8  O   UNL     1       5.186  -7.081  26.601  0.00  0.00    -0.285 OA
BRANCH   8   9
ATOM      9  C   UNL     1       4.944  -6.620  27.918  0.00  0.00    +0.187 C 
BRANCH   9  10
ATOM     10  C   UNL     1       6.258  -6.428  28.675  0.00  0.00    +0.106 C 
BRANCH  10  11
ATOM     11  N   UNL     1       7.354  -6.053  27.783  0.00  0.00    -0.328 NA
ATOM     12  H   UNL     1       7.832  -5.232  28.153  0.00  0.00    +0.118 HD
ATOM     13  H   UNL     1       8.039  -6.803  27.731  0.00  0.00    +0.118 HD
ENDBRANCH  10  11
ENDBRANCH   9  10
ENDBRANCH   8   9
ENDBRANCH   4   8
ENDBRANCH   3   4
ENDBRANCH   2   3
ENDBRANCH   1   2
BRANCH   1  14
ATOM     14  C   UNL     1       7.748  -3.972  23.054  0.00  0.00    +0.279 C 
BRANCH  14  15
ATOM     15  O   UNL     1       8.153  -2.624  22.757  0.00  0.00    -0.461 OA
BRANCH  15  16
ATOM     16  C   UNL     1       9.363  -2.263  23.274  0.00  0.00    +0.307 C 
ATOM     17  O   UNL     1      10.192  -3.041  23.724  0.00  0.00    -0.251 OA
BRANCH  16  18
ATOM     18  C   UNL     1       9.510  -0.767  23.250  0.00  0.00    +0.120 C 
BRANCH  18  19
ATOM     19  C   UNL     1      10.234  -0.324  24.505  0.00  0.00    +0.011 C 
BRANCH  19  20
ATOM     20  C   UNL     1      10.599   1.154  24.457  0.00  0.00    +0.001 C 
BRANCH  20  21
ATOM     21  C   UNL     1      10.136   1.750  23.132  0.00  0.00    +0.000 C 
BRANCH  21  22
ATOM     22  C   UNL     1      10.037   3.267  23.202  0.00  0.00    +0.000 C 
BRANCH  22  23
ATOM     23  C   UNL     1      11.429   3.878  23.321  0.00  0.00    +0.000 C 
BRANCH  23  24
ATOM     24  C   UNL     1      11.344   5.350  23.702  0.00  0.00    -0.000 C 
BRANCH  24  25
ATOM     25  C   UNL     1      10.029   5.646  24.413  0.00  0.00    -0.000 C 
BRANCH  25  26
ATOM     26  C   UNL     1       9.276   6.763  23.701  0.00  0.00    -0.000 C 
BRANCH  26  27
ATOM     27  C   UNL     1       7.788   6.444  23.619  0.00  0.00    -0.000 C 
BRANCH  27  28
ATOM     28  C   UNL     1       7.417   5.968  22.219  0.00  0.00    -0.000 C 
BRANCH  28  29
ATOM     29  C   UNL     1       6.765   4.591  22.273  0.00  0.00    -0.000 C 
BRANCH  29  30
ATOM     30  C   UNL     1       5.637   4.567  23.298  0.00  0.00    -0.000 C 
BRANCH  30  31
ATOM     31  C   UNL     1       4.275   4.626  22.612  0.00  0.00    -0.000 C 
BRANCH  31  32
ATOM     32  C   UNL     1       3.457   3.377  22.928  0.00  0.00    -0.000 C 
BRANCH  32  34
ATOM     33  C   UNL     1       0.978   3.011  23.094  0.00  0.00    +0.004 C 
ATOM     34  C   UNL     1       2.129   3.383  22.175  0.00  0.00    -0.003 C 
ENDBRANCH  32  34
ENDBRANCH  31  32
ENDBRANCH  30  31
ENDBRANCH  29  30
ENDBRANCH  28  29
ENDBRANCH  27  28
ENDBRANCH  26  27
ENDBRANCH  25  26
ENDBRANCH  24  25
ENDBRANCH  23  24
ENDBRANCH  22  23
ENDBRANCH  21  22
ENDBRANCH  20  21
ENDBRANCH  19  20
ENDBRANCH  18  19
ENDBRANCH  16  18
ENDBRANCH  15  16
ENDBRANCH  14  15
ENDBRANCH   1  14
BRANCH   1  35
ATOM     35  O   UNL     1       7.273  -4.169  25.426  0.00  0.00    -0.456 OA
BRANCH  35  36
ATOM     36  C   UNL     1       7.520  -3.031  26.123  0.00  0.00    +0.308 C 
ATOM     37  O   UNL     1       8.566  -2.749  26.688  0.00  0.00    -0.251 OA
BRANCH  36  38
ATOM     38  C   UNL     1       6.325  -2.113  26.089  0.00  0.00    +0.120 C 
BRANCH  38  39
ATOM     39  C   UNL     1       6.788  -0.667  25.957  0.00  0.00    +0.011 C 
BRANCH  39  40
ATOM     40  C   UNL     1       6.290  -0.032  24.657  0.00  0.00    +0.001 C 
BRANCH  40  41
ATOM     41  C   UNL     1       6.695   1.434  24.577  0.00  0.00    +0.000 C 
BRANCH  41  42
ATOM     42  C   UNL     1       7.388   1.871  25.863  0.00  0.00    +0.000 C 
BRANCH  42  43
ATOM     43  C   UNL     1       7.597   3.380  25.873  0.00  0.00    +0.000 C 
BRANCH  43  44
ATOM     44  C   UNL     1       7.116   3.983  27.187  0.00  0.00    -0.000 C 
BRANCH  44  45
ATOM     45  C   UNL     1       7.165   5.506  27.131  0.00  0.00    -0.000 C 
BRANCH  45  46
ATOM     46  C   UNL     1       5.790   6.075  26.802  0.00  0.00    -0.000 C 
BRANCH  46  47
ATOM     47  C   UNL     1       4.690   5.223  27.426  0.00  0.00    -0.000 C 
BRANCH  47  48
ATOM     48  C   UNL     1       3.692   4.771  26.366  0.00  0.00    -0.000 C 
BRANCH  48  49
ATOM     49  C   UNL     1       2.549   3.986  27.002  0.00  0.00    -0.000 C 
BRANCH  49  50
ATOM     50  C   UNL     1       2.470   2.579  26.419  0.00  0.00    -0.000 C 
BRANCH  50  51
ATOM     51  C   UNL     1       3.764   1.810  26.674  0.00  0.00    -0.000 C 
BRANCH  51  52
ATOM     52  C   UNL     1       3.471   0.435  27.268  0.00  0.00    -0.000 C 
BRANCH  52  53
ATOM     53  C   UNL     1       4.044   0.311  28.677  0.00  0.00    -0.003 C 
ATOM     54  C   UNL     1       5.315   1.128  28.826  0.00  0.00    +0.004 C 
ENDBRANCH  52  53
ENDBRANCH  51  52
ENDBRANCH  50  51
ENDBRANCH  49  50
ENDBRANCH  48  49
ENDBRANCH  47  48
ENDBRANCH  46  47
ENDBRANCH  45  46
ENDBRANCH  44  45
ENDBRANCH  43  44
ENDBRANCH  42  43
ENDBRANCH  41  42
ENDBRANCH  40  41
ENDBRANCH  39  40
ENDBRANCH  38  39
ENDBRANCH  36  38
ENDBRANCH  35  36
ENDBRANCH   1  35
TORSDOF 45
ENDMDL
MODEL 2
REMARK VINA RESULT:      -4.0      2.303      5.673
REMARK  Name = 
REMARK  47 active torsions:
REMARK  status: ('A' for Active; 'I' for Inactive)
REMARK    1  A    between atoms: C_1  and  C_2
REMARK    2  A    between atoms: C_2  and  C_3
REMARK    3  A    between atoms: C_3  and  C_4
REMARK    4  A    between atoms: C_4  and  C_5
REMARK    5  A    between atoms: C_5  and  C_6
REMARK    6  A    between atoms: C_6  and  C_7
REMARK    7  A    between atoms: C_7  and  C_8
REMARK    8  A    between atoms: C_8  and  C_9
REMARK    9  A    between atoms: C_9  and  C_10
REMARK   10  A    between atoms: C_10  and  C_11
REMARK   11  A    between atoms: C_11  and  C_12
REMARK   12  A    between atoms: C_12  and  C_13
REMARK   13  A    between atoms: C_13  and  C_14
REMARK   14  A    between atoms: C_14  and  C_15
REMARK   15  A    between atoms: C_15  and  C_16
REMARK   16  A    between atoms: C_16  and  C_17
REMARK   17  A    between atoms: C_17  and  C_18
REMARK   18  A    between atoms: C_18  and  O_20
REMARK   19  A    between atoms: O_20  and  C_21
REMARK   20  A    between atoms: C_21  and  C_22
REMARK   21  A    between atoms: C_22  and  C_24
REMARK   22  A    between atoms: C_22  and  O_33
REMARK   23  A    between atoms: C_24  and  O_25
REMARK   24  A    between atoms: O_25  and  P_26
REMARK   25  A    between atoms: P_26  and  O_27
REMARK   26  A    between atoms: P_26  and  O_29
REMARK   27  A    between atoms: O_29  and  C_30
REMARK   28  A    between atoms: C_30  and  C_31
REMARK   29  A    between atoms: C_31  and  N_32
REMARK   30  A    between atoms: O_33  and  C_34
REMARK   31  A    between atoms: C_34  and  C_36
REMARK   32  A    between atoms: C_36  and  C_37
REMARK   33  A    between atoms: C_37  and  C_38
REMARK   34  A    between atoms: C_38  and  C_39
REMARK   35  A    between atoms: C_39  and  C_40
REMARK   36  A    between atoms: C_40  and  C_41
REMARK   37  A    between atoms: C_41  and  C_42
REMARK   38  A    between atoms: C_42  and  C_43
REMARK   39  A    between atoms: C_43  and  C_44
REMARK   40  A    between atoms: C_44  and  C_45
REMARK   41  A    between atoms: C_45  and  C_46
REMARK   42  A    between atoms: C_46  and  C_47
REMARK   43  A    between atoms: C_47  and  C_48
REMARK   44  A    between atoms: C_48  and  C_49
REMARK   45  A    between atoms: C_49  and  C_50
REMARK   46  A    between atoms: C_50  and  C_51
REMARK   47  A    between atoms: C_51  and  C_52
REMARK                            x       y       z     vdW  Elec       q    Type
REMARK                         _______ _______ _______ _____ _____    ______ ____
ROOT
ATOM      1  C   UNL     1       8.268  -2.975  23.882  0.00  0.00    +0.240 C 
ENDROOT
BRANCH   1   2
ATOM      2  C   UNL     1       6.966  -3.312  23.161  0.00  0.00    +0.220 C 
BRANCH   2   3
ATOM      3  O   UNL     1       7.226  -4.319  22.189  0.00  0.00    -0.283 OA
BRANCH   3   4
ATOM      4  P   UNL     1       5.988  -5.236  21.742  0.00  0.00    +0.475 P 
ATOM      5  O   UNL     1       5.921  -5.525  20.278  0.00  0.00    -0.227 OA
BRANCH   4   6
ATOM      6  O   UNL     1       6.242  -6.566  22.594  0.00  0.00    -0.302 OA
ATOM      7  H   UNL     1       7.198  -6.680  22.746  0.00  0.00    +0.222 HD
ENDBRANCH   4   6
BRANCH   4   8
ATOM      8  O   UNL     1       4.699  -4.535  22.388  0.00  0.00    -0.285 OA
BRANCH   8   9
ATOM      9  C   UNL     1       4.075  -5.130  23.511  0.00  0.00    +0.187 C 
BRANCH   9  10
ATOM     10  C   UNL     1       3.086  -6.211  23.074  0.00  0.00    +0.106 C 
BRANCH  10  11
ATOM     11  N   UNL     1       3.363  -7.496  23.712  0.00  0.00    -0.328 NA
ATOM     12  H   UNL     1       3.370  -8.234  23.009  0.00  0.00    +0.118 HD
ATOM     13  H   UNL     1       4.283  -7.485  24.146  0.00  0.00    +0.118 HD
ENDBRANCH  10  11
ENDBRANCH   9  10
ENDBRANCH   8   9
ENDBRANCH   4   8
ENDBRANCH   3   4
ENDBRANCH   2   3
ENDBRANCH   1   2
BRANCH   1  14
ATOM     14  C   UNL     1       9.011  -1.849  23.152  0.00  0.00    +0.279 C 
BRANCH  14  15
ATOM     15  O   UNL     1      10.129  -1.388  23.930  0.00  0.00    -0.461 OA
BRANCH  15  16
ATOM     16  C   UNL     1      10.498  -0.096  23.693  0.00  0.00    +0.307 C 
ATOM     17  O   UNL     1      11.128   0.605  24.471  0.00  0.00    -0.251 OA
BRANCH  16  18
ATOM     18  C   UNL     1       9.978   0.353  22.356  0.00  0.00    +0.120 C 
BRANCH  18  19
ATOM     19  C   UNL     1      10.166   1.852  22.234  0.00  0.00    +0.011 C 
BRANCH  19  20
ATOM     20  C   UNL     1       8.915   2.616  22.646  0.00  0.00    +0.001 C 
BRANCH  20  21
ATOM     21  C   UNL     1       7.734   2.154  21.799  0.00  0.00    +0.000 C 
BRANCH  21  22
ATOM     22  C   UNL     1       6.500   3.014  22.038  0.00  0.00    +0.000 C 
BRANCH  22  23
ATOM     23  C   UNL     1       6.909   4.468  22.249  0.00  0.00    +0.000 C 
BRANCH  23  24
ATOM     24  C   UNL     1       6.073   5.113  23.347  0.00  0.00    -0.000 C 
BRANCH  24  25
ATOM     25  C   UNL     1       5.976   4.192  24.558  0.00  0.00    -0.000 C 
BRANCH  25  26
ATOM     26  C   UNL     1       5.197   4.867  25.681  0.00  0.00    -0.000 C 
BRANCH  26  27
ATOM     27  C   UNL     1       6.051   4.980  26.938  0.00  0.00    -0.000 C 
BRANCH  27  28
ATOM     28  C   UNL     1       7.532   5.003  26.581  0.00  0.00    -0.000 C 
BRANCH  28  29
ATOM     29  C   UNL     1       8.127   6.383  26.837  0.00  0.00    -0.000 C 
BRANCH  29  30
ATOM     30  C   UNL     1       9.244   6.682  25.842  0.00  0.00    -0.000 C 
BRANCH  30  31
ATOM     31  C   UNL     1       9.395   5.547  24.835  0.00  0.00    -0.000 C 
BRANCH  31  32
ATOM     32  C   UNL     1      10.241   5.990  23.645  0.00  0.00    -0.000 C 
BRANCH  32  34
ATOM     33  C   UNL     1      12.435   4.833  23.248  0.00  0.00    +0.004 C 
ATOM     34  C   UNL     1      11.729   5.959  23.985  0.00  0.00    -0.003 C 
ENDBRANCH  32  34
ENDBRANCH  31  32
ENDBRANCH  30  31
ENDBRANCH  29  30
ENDBRANCH  28  29
ENDBRANCH  27  28
ENDBRANCH  26  27
ENDBRANCH  25  26
ENDBRANCH  24  25
ENDBRANCH  23  24
ENDBRANCH  22  23
ENDBRANCH  21  22
ENDBRANCH  20  21
ENDBRANCH  19  20
ENDBRANCH  18  19
ENDBRANCH  16  18
ENDBRANCH  15  16
ENDBRANCH  14  15
ENDBRANCH   1  14
BRANCH   1  35
ATOM     35  O   UNL     1       9.095  -4.167  23.867  0.00  0.00    -0.456 OA
BRANCH  35  36
ATOM     36  C   UNL     1       9.522  -4.600  25.081  0.00  0.00    +0.308 C 
ATOM     37  O   UNL     1      10.499  -5.302  25.290  0.00  0.00    -0.251 OA
BRANCH  36  38
ATOM     38  C   UNL     1       8.637  -4.066  26.180  0.00  0.00    +0.120 C 
BRANCH  38  39
ATOM     39  C   UNL     1       7.763  -5.187  26.728  0.00  0.00    +0.011 C 
BRANCH  39  40
ATOM     40  C   UNL     1       6.305  -4.745  26.876  0.00  0.00    +0.001 C 
BRANCH  40  41
ATOM     41  C   UNL     1       5.664  -5.381  28.102  0.00  0.00    +0.000 C 
BRANCH  41  42
ATOM     42  C   UNL     1       4.648  -6.440  27.689  0.00  0.00    +0.000 C 
BRANCH  42  43
ATOM     43  C   UNL     1       3.248  -6.045  28.138  0.00  0.00    +0.000 C 
BRANCH  43  44
ATOM     44  C   UNL     1       2.447  -5.474  26.973  0.00  0.00    -0.000 C 
BRANCH  44  45
ATOM     45  C   UNL     1       2.149  -3.996  27.197  0.00  0.00    -0.000 C 
BRANCH  45  46
ATOM     46  C   UNL     1       3.097  -3.128  26.378  0.00  0.00    -0.000 C 
BRANCH  46  47
ATOM     47  C   UNL     1       3.201  -1.730  26.976  0.00  0.00    -0.000 C 
BRANCH  47  48
ATOM     48  C   UNL     1       4.592  -1.491  27.550  0.00  0.00    -0.000 C 
BRANCH  48  49
ATOM     49  C   UNL     1       4.546  -0.443  28.658  0.00  0.00    -0.000 C 
BRANCH  49  50
ATOM     50  C   UNL     1       5.714   0.530  28.530  0.00  0.00    -0.000 C 
BRANCH  50  51
ATOM     51  C   UNL     1       5.706   1.214  27.165  0.00  0.00    -0.000 C 
BRANCH  51  52
ATOM     52  C   UNL     1       7.125   1.362  26.624  0.00  0.00    -0.000 C 
BRANCH  52  53
ATOM     53  C   UNL     1       7.282   0.642  25.287  0.00  0.00    -0.003 C 
ATOM     54  C   UNL     1       5.932   0.383  24.642  0.00  0.00    +0.004 C 
ENDBRANCH  52  53
ENDBRANCH  51  52
ENDBRANCH  50  51
ENDBRANCH  49  50
ENDBRANCH  48  49
ENDBRANCH  47  48
ENDBRANCH  46  47
ENDBRANCH  45  46
ENDBRANCH  44  45
ENDBRANCH  43  44
ENDBRANCH  42  43
ENDBRANCH  41  42
ENDBRANCH  40  41
ENDBRANCH  39  40
ENDBRANCH  38  39
ENDBRANCH  36  38
ENDBRANCH  35  36
ENDBRANCH   1  35
TORSDOF 45
ENDMDL
MODEL 3
REMARK VINA RESULT:      -3.8      2.536      7.858
REMARK  Name = 
REMARK  47 active torsions:
REMARK  status: ('A' for Active; 'I' for Inactive)
REMARK    1  A    between atoms: C_1  and  C_2
REMARK    2  A    between atoms: C_2  and  C_3
REMARK    3  A    between atoms: C_3  and  C_4
REMARK    4  A    between atoms: C_4  and  C_5
REMARK    5  A    between atoms: C_5  and  C_6
REMARK    6  A    between atoms: C_6  and  C_7
REMARK    7  A    between atoms: C_7  and  C_8
REMARK    8  A    between atoms: C_8  and  C_9
REMARK    9  A    between atoms: C_9  and  C_10
REMARK   10  A    between atoms: C_10  and  C_11
REMARK   11  A    between atoms: C_11  and  C_12
REMARK   12  A    between atoms: C_12  and  C_13
REMARK   13  A    between atoms: C_13  and  C_14
REMARK   14  A    between atoms: C_14  and  C_15
REMARK   15  A    between atoms: C_15  and  C_16
REMARK   16  A    between atoms: C_16  and  C_17
REMARK   17  A    between atoms: C_17  and  C_18
REMARK   18  A    between atoms: C_18  and  O_20
REMARK   19  A    between atoms: O_20  and  C_21
REMARK   20  A    between atoms: C_21  and  C_22
REMARK   21  A    between atoms: C_22  and  C_24
REMARK   22  A    between atoms: C_22  and  O_33
REMARK   23  A    between atoms: C_24  and  O_25
REMARK   24  A    between atoms: O_25  and  P_26
REMARK   25  A    between atoms: P_26  and  O_27
REMARK   26  A    between atoms: P_26  and  O_29
REMARK   27  A    between atoms: O_29  and  C_30
REMARK   28  A    between atoms: C_30  and  C_31
REMARK   29  A    between atoms: C_31  and  N_32
REMARK   30  A    between atoms: O_33  and  C_34
REMARK   31  A    between atoms: C_34  and  C_36
REMARK   32  A    between atoms: C_36  and  C_37
REMARK   33  A    between atoms: C_37  and  C_38
REMARK   34  A    between atoms: C_38  and  C_39
REMARK   35  A    between atoms: C_39  and  C_40
REMARK   36  A    between atoms: C_40  and  C_41
REMARK   37  A    between atoms: C_41  and  C_42
REMARK   38  A    between atoms: C_42  and  C_43
REMARK   39  A    between atoms: C_43  and  C_44
REMARK   40  A    between atoms: C_44  and  C_45
REMARK   41  A    between atoms: C_45  and  C_46
REMARK   42  A    between atoms: C_46  and  C_47
REMARK   43  A    between atoms: C_47  and  C_48
REMARK   44  A    between atoms: C_48  and  C_49
REMARK   45  A    between atoms: C_49  and  C_50
REMARK   46  A    between atoms: C_50  and  C_51
REMARK   47  A    between atoms: C_51  and  C_52
REMARK                            x       y       z     vdW  Elec       q    Type
REMARK                         _______ _______ _______ _____ _____    ______ ____
ROOT
ATOM      1  C   UNL     1       7.468  -2.209  23.124  0.00  0.00    +0.240 C 
ENDROOT
BRANCH   1   2
ATOM      2  C   UNL     1       6.908  -3.066  21.992  0.00  0.00    +0.220 C 
BRANCH   2   3
ATOM      3  O   UNL     1       5.982  -3.999  22.536  0.00  0.00    -0.283 OA
BRANCH   3   4
ATOM      4  P   UNL     1       6.523  -5.483  22.816  0.00  0.00    +0.475 P 
ATOM      5  O   UNL     1       5.487  -6.446  23.297  0.00  0.00    -0.227 OA
BRANCH   4   6
ATOM      6  O   UNL     1       7.091  -5.900  21.379  0.00  0.00    -0.302 OA
ATOM      7  H   UNL     1       8.063  -5.961  21.417  0.00  0.00    +0.222 HD
ENDBRANCH   4   6
BRANCH   4   8
ATOM      8  O   UNL     1       7.804  -5.286  23.759  0.00  0.00    -0.285 OA
BRANCH   8   9
ATOM      9  C   UNL     1       7.631  -5.244  25.164  0.00  0.00    +0.187 C 
BRANCH   9  10
ATOM     10  C   UNL     1       8.947  -4.899  25.862  0.00  0.00    +0.106 C 
BRANCH  10  11
ATOM     11  N   UNL     1      10.073  -5.648  25.307  0.00  0.00    -0.328 NA
ATOM     12  H   UNL     1       9.740  -6.285  24.585  0.00  0.00    +0.118 HD
ATOM     13  H   UNL     1      10.737  -5.015  24.867  0.00  0.00    +0.118 HD
ENDBRANCH  10  11
ENDBRANCH   9  10
ENDBRANCH   8   9
ENDBRANCH   4   8
ENDBRANCH   3   4
ENDBRANCH   2   3
ENDBRANCH   1   2
BRANCH   1  14
ATOM     14  C   UNL     1       6.359  -1.353  23.749  0.00  0.00    +0.279 C 
BRANCH  14  15
ATOM     15  O   UNL     1       6.279  -1.580  25.167  0.00  0.00    -0.461 OA
BRANCH  15  16
ATOM     16  C   UNL     1       5.012  -1.729  25.652  0.00  0.00    +0.307 C 
ATOM     17  O   UNL     1       4.264  -0.809  25.948  0.00  0.00    -0.251 OA
BRANCH  16  18
ATOM     18  C   UNL     1       4.688  -3.188  25.811  0.00  0.00    +0.120 C 
BRANCH  18  19
ATOM     19  C   UNL     1       3.509  -3.530  24.923  0.00  0.00    +0.011 C 
BRANCH  19  20
ATOM     20  C   UNL     1       2.201  -3.561  25.703  0.00  0.00    +0.001 C 
BRANCH  20  21
ATOM     21  C   UNL     1       1.085  -4.083  24.805  0.00  0.00    +0.000 C 
BRANCH  21  22
ATOM     22  C   UNL     1       1.619  -5.019  23.730  0.00  0.00    +0.000 C 
BRANCH  22  23
ATOM     23  C   UNL     1       0.958  -6.388  23.852  0.00  0.00    +0.000 C 
BRANCH  23  24
ATOM     24  C   UNL     1       1.970  -7.501  23.619  0.00  0.00    -0.000 C 
BRANCH  24  25
ATOM     25  C   UNL     1       2.765  -7.780  24.890  0.00  0.00    -0.000 C 
BRANCH  25  26
ATOM     26  C   UNL     1       1.882  -7.604  26.120  0.00  0.00    -0.000 C 
BRANCH  26  27
ATOM     27  C   UNL     1       2.632  -6.862  27.220  0.00  0.00    -0.000 C 
BRANCH  27  28
ATOM     28  C   UNL     1       4.096  -6.676  26.841  0.00  0.00    -0.000 C 
BRANCH  28  29
ATOM     29  C   UNL     1       4.996  -6.846  28.060  0.00  0.00    -0.000 C 
BRANCH  29  30
ATOM     30  C   UNL     1       5.649  -5.521  28.438  0.00  0.00    -0.000 C 
BRANCH  30  31
ATOM     31  C   UNL     1       5.296  -5.129  29.870  0.00  0.00    -0.000 C 
BRANCH  31  32
ATOM     32  C   UNL     1       3.817  -4.770  29.982  0.00  0.00    -0.000 C 
BRANCH  32  34
ATOM     33  C   UNL     1       3.838  -2.352  29.302  0.00  0.00    +0.004 C 
ATOM     34  C   UNL     1       3.634  -3.328  30.449  0.00  0.00    -0.003 C 
ENDBRANCH  32  34
ENDBRANCH  31  32
ENDBRANCH  30  31
ENDBRANCH  29  30
ENDBRANCH  28  29
ENDBRANCH  27  28
ENDBRANCH  26  27
ENDBRANCH  25  26
ENDBRANCH  24  25
ENDBRANCH  23  24
ENDBRANCH  22  23
ENDBRANCH  21  22
ENDBRANCH  20  21
ENDBRANCH  19  20
ENDBRANCH  18  19
ENDBRANCH  16  18
ENDBRANCH  15  16
ENDBRANCH  14  15
ENDBRANCH   1  14
BRANCH   1  35
ATOM     35  O   UNL     1       8.468  -1.328  22.549  0.00  0.00    -0.456 OA
BRANCH  35  36
ATOM     36  C   UNL     1       9.751  -1.578  22.919  0.00  0.00    +0.308 C 
ATOM     37  O   UNL     1      10.678  -1.832  22.166  0.00  0.00    -0.251 OA
BRANCH  36  38
ATOM     38  C   UNL     1       9.906  -1.468  24.415  0.00  0.00    +0.120 C 
BRANCH  38  39
ATOM     39  C   UNL     1       9.756  -0.014  24.845  0.00  0.00    +0.011 C 
BRANCH  39  40
ATOM     40  C   UNL     1      10.932   0.840  24.367  0.00  0.00    +0.001 C 
BRANCH  40  41
ATOM     41  C   UNL     1      10.444   2.133  23.729  0.00  0.00    +0.000 C 
BRANCH  41  42
ATOM     42  C   UNL     1       9.895   1.869  22.331  0.00  0.00    +0.000 C 
BRANCH  42  43
ATOM     43  C   UNL     1       8.645   2.702  22.079  0.00  0.00    +0.000 C 
BRANCH  43  44
ATOM     44  C   UNL     1       7.387   1.871  22.302  0.00  0.00    -0.000 C 
BRANCH  44  45
ATOM     45  C   UNL     1       6.223   2.758  22.728  0.00  0.00    -0.000 C 
BRANCH  45  46
ATOM     46  C   UNL     1       6.581   4.229  22.562  0.00  0.00    -0.000 C 
BRANCH  46  47
ATOM     47  C   UNL     1       6.348   4.992  23.861  0.00  0.00    -0.000 C 
BRANCH  47  48
ATOM     48  C   UNL     1       7.658   5.187  24.615  0.00  0.00    -0.000 C 
BRANCH  48  49
ATOM     49  C   UNL     1       7.838   4.103  25.672  0.00  0.00    -0.000 C 
BRANCH  49  50
ATOM     50  C   UNL     1       6.580   3.962  26.523  0.00  0.00    -0.000 C 
BRANCH  50  51
ATOM     51  C   UNL     1       6.055   2.529  26.488  0.00  0.00    -0.000 C 
BRANCH  51  52
ATOM     52  C   UNL     1       7.208   1.528  26.516  0.00  0.00    -0.000 C 
BRANCH  52  53
ATOM     53  C   UNL     1       7.128   0.632  27.749  0.00  0.00    -0.003 C 
ATOM     54  C   UNL     1       5.858   0.898  28.538  0.00  0.00    +0.004 C 
ENDBRANCH  52  53
ENDBRANCH  51  52
ENDBRANCH  50  51
ENDBRANCH  49  50
ENDBRANCH  48  49
ENDBRANCH  47  48
ENDBRANCH  46  47
ENDBRANCH  45  46
ENDBRANCH  44  45
ENDBRANCH  43  44
ENDBRANCH  42  43
ENDBRANCH  41  42
ENDBRANCH  40  41
ENDBRANCH  39  40
ENDBRANCH  38  39
ENDBRANCH  36  38
ENDBRANCH  35  36
ENDBRANCH   1  35
TORSDOF 45
ENDMDL
MODEL 4
REMARK VINA RESULT:      -3.8      2.203      6.238
REMARK  Name = 
REMARK  47 active torsions:
REMARK  status: ('A' for Active; 'I' for Inactive)
REMARK    1  A    between atoms: C_1  and  C_2
REMARK    2  A    between atoms: C_2  and  C_3
REMARK    3  A    between atoms: C_3  and  C_4
REMARK    4  A    between atoms: C_4  and  C_5
REMARK    5  A    between atoms: C_5  and  C_6
REMARK    6  A    between atoms: C_6  and  C_7
REMARK    7  A    between atoms: C_7  and  C_8
REMARK    8  A    between atoms: C_8  and  C_9
REMARK    9  A    between atoms: C_9  and  C_10
REMARK   10  A    between atoms: C_10  and  C_11
REMARK   11  A    between atoms: C_11  and  C_12
REMARK   12  A    between atoms: C_12  and  C_13
REMARK   13  A    between atoms: C_13  and  C_14
REMARK   14  A    between atoms: C_14  and  C_15
REMARK   15  A    between atoms: C_15  and  C_16
REMARK   16  A    between atoms: C_16  and  C_17
REMARK   17  A    between atoms: C_17  and  C_18
REMARK   18  A    between atoms: C_18  and  O_20
REMARK   19  A    between atoms: O_20  and  C_21
REMARK   20  A    between atoms: C_21  and  C_22
REMARK   21  A    between atoms: C_22  and  C_24
REMARK   22  A    between atoms: C_22  and  O_33
REMARK   23  A    between atoms: C_24  and  O_25
REMARK   24  A    between atoms: O_25  and  P_26
REMARK   25  A    between atoms: P_26  and  O_27
REMARK   26  A    between atoms: P_26  and  O_29
REMARK   27  A    between atoms: O_29  and  C_30
REMARK   28  A    between atoms: C_30  and  C_31
REMARK   29  A    between atoms: C_31  and  N_32
REMARK   30  A    between atoms: O_33  and  C_34
REMARK   31  A    between atoms: C_34  and  C_36
REMARK   32  A    between atoms: C_36  and  C_37
REMARK   33  A    between atoms: C_37  and  C_38
REMARK   34  A    between atoms: C_38  and  C_39
REMARK   35  A    between atoms: C_39  and  C_40
REMARK   36  A    between atoms: C_40  and  C_41
REMARK   37  A    between atoms: C_41  and  C_42
REMARK   38  A    between atoms: C_42  and  C_43
REMARK   39  A    between atoms: C_43  and  C_44
REMARK   40  A    between atoms: C_44  and  C_45
REMARK   41  A    between atoms: C_45  and  C_46
REMARK   42  A    between atoms: C_46  and  C_47
REMARK   43  A    between atoms: C_47  and  C_48
REMARK   44  A    between atoms: C_48  and  C_49
REMARK   45  A    between atoms: C_49  and  C_50
REMARK   46  A    between atoms: C_50  and  C_51
REMARK   47  A    between atoms: C_51  and  C_52
REMARK                            x       y       z     vdW  Elec       q    Type
REMARK                         _______ _______ _______ _____ _____    ______ ____
ROOT
ATOM      1  C   UNL     1       6.559  -5.638  25.600  0.00  0.00    +0.240 C 
ENDROOT
BRANCH   1   2
ATOM      2  C   UNL     1       5.104  -6.091  25.516  0.00  0.00    +0.220 C 
BRANCH   2   3
ATOM      3  O   UNL     1       4.773  -6.326  24.152  0.00  0.00    -0.283 OA
BRANCH   3   4
ATOM      4  P   UNL     1       3.783  -5.277  23.451  0.00  0.00    +0.475 P 
ATOM      5  O   UNL     1       3.182  -4.270  24.376  0.00  0.00    -0.227 OA
BRANCH   4   6
ATOM      6  O   UNL     1       4.747  -4.586  22.376  0.00  0.00    -0.302 OA
ATOM      7  H   UNL     1       5.658  -4.911  22.497  0.00  0.00    +0.222 HD
ENDBRANCH   4   6
BRANCH   4   8
ATOM      8  O   UNL     1       2.754  -6.175  22.611  0.00  0.00    -0.285 OA
BRANCH   8   9
ATOM      9  C   UNL     1       1.421  -6.313  23.068  0.00  0.00    +0.187 C 
BRANCH   9  10
ATOM     10  C   UNL     1       1.336  -7.353  24.186  0.00  0.00    +0.106 C 
BRANCH  10  11
ATOM     11  N   UNL     1       2.344  -8.401  24.036  0.00  0.00    -0.328 NA
ATOM     12  H   UNL     1       2.801  -8.568  24.931  0.00  0.00    +0.118 HD
ATOM     13  H   UNL     1       1.905  -9.275  23.754  0.00  0.00    +0.118 HD
ENDBRANCH  10  11
ENDBRANCH   9  10
ENDBRANCH   8   9
ENDBRANCH   4   8
ENDBRANCH   3   4
ENDBRANCH   2   3
ENDBRANCH   1   2
BRANCH   1  14
ATOM     14  C   UNL     1       6.855  -5.031  26.977  0.00  0.00    +0.279 C 
BRANCH  14  15
ATOM     15  O   UNL     1       5.641  -4.861  27.729  0.00  0.00    -0.461 OA
BRANCH  15  16
ATOM     16  C   UNL     1       5.687  -5.339  29.006  0.00  0.00    +0.307 C 
ATOM     17  O   UNL     1       6.439  -6.220  29.396  0.00  0.00    -0.251 OA
BRANCH  16  18
ATOM     18  C   UNL     1       4.648  -4.656  29.852  0.00  0.00    +0.120 C 
BRANCH  18  19
ATOM     19  C   UNL     1       3.525  -4.174  28.957  0.00  0.00    +0.011 C 
BRANCH  19  20
ATOM     20  C   UNL     1       2.981  -2.825  29.408  0.00  0.00    +0.001 C 
BRANCH  20  21
ATOM     21  C   UNL     1       3.840  -1.709  28.823  0.00  0.00    +0.000 C 
BRANCH  21  22
ATOM     22  C   UNL     1       3.967  -1.831  27.311  0.00  0.00    +0.000 C 
BRANCH  22  23
ATOM     23  C   UNL     1       5.362  -1.404  26.867  0.00  0.00    +0.000 C 
BRANCH  23  24
ATOM     24  C   UNL     1       5.295  -0.150  26.005  0.00  0.00    -0.000 C 
BRANCH  24  25
ATOM     25  C   UNL     1       5.330   1.102  26.874  0.00  0.00    -0.000 C 
BRANCH  25  26
ATOM     26  C   UNL     1       6.398   0.973  27.953  0.00  0.00    -0.000 C 
BRANCH  26  27
ATOM     27  C   UNL     1       7.182   2.272  28.096  0.00  0.00    -0.000 C 
BRANCH  27  28
ATOM     28  C   UNL     1       6.833   3.236  26.969  0.00  0.00    -0.000 C 
BRANCH  28  29
ATOM     29  C   UNL     1       7.945   3.274  25.927  0.00  0.00    -0.000 C 
BRANCH  29  30
ATOM     30  C   UNL     1       8.246   4.710  25.510  0.00  0.00    -0.000 C 
BRANCH  30  31
ATOM     31  C   UNL     1       9.211   4.743  24.329  0.00  0.00    -0.000 C 
BRANCH  31  32
ATOM     32  C   UNL     1       9.881   6.110  24.218  0.00  0.00    -0.000 C 
BRANCH  32  34
ATOM     33  C   UNL     1      11.643   4.538  23.362  0.00  0.00    +0.004 C 
ATOM     34  C   UNL     1      11.312   5.982  23.701  0.00  0.00    -0.003 C 
ENDBRANCH  32  34
ENDBRANCH  31  32
ENDBRANCH  30  31
ENDBRANCH  29  30
ENDBRANCH  28  29
ENDBRANCH  27  28
ENDBRANCH  26  27
ENDBRANCH  25  26
ENDBRANCH  24  25
ENDBRANCH  23  24
ENDBRANCH  22  23
ENDBRANCH  21  22
ENDBRANCH  20  21
ENDBRANCH  19  20
ENDBRANCH  18  19
ENDBRANCH  16  18
ENDBRANCH  15  16
ENDBRANCH  14  15
ENDBRANCH   1  14
BRANCH   1  35
ATOM     35  O   UNL     1       6.757  -4.617  24.588  0.00  0.00    -0.456 OA
BRANCH  35  36
ATOM     36  C   UNL     1       7.973  -4.616  23.985  0.00  0.00    +0.308 C 
ATOM     37  O   UNL     1       8.739  -5.566  23.912  0.00  0.00    -0.251 OA
BRANCH  36  38
ATOM     38  C   UNL     1       8.263  -3.272  23.368  0.00  0.00    +0.120 C 
BRANCH  38  39
ATOM     39  C   UNL     1       9.295  -2.530  24.208  0.00  0.00    +0.011 C 
BRANCH  39  40
ATOM     40  C   UNL     1       8.695  -2.021  25.520  0.00  0.00    +0.001 C 
BRANCH  40  41
ATOM     41  C   UNL     1       9.346  -0.712  25.946  0.00  0.00    +0.000 C 
BRANCH  41  42
ATOM     42  C   UNL     1       9.176   0.349  24.864  0.00  0.00    +0.000 C 
BRANCH  42  43
ATOM     43  C   UNL     1      10.524   0.946  24.482  0.00  0.00    +0.000 C 
BRANCH  43  44
ATOM     44  C   UNL     1      10.549   1.325  23.007  0.00  0.00    -0.000 C 
BRANCH  44  45
ATOM     45  C   UNL     1       9.820   0.281  22.170  0.00  0.00    -0.000 C 
BRANCH  45  46
ATOM     46  C   UNL     1       8.716   0.930  21.343  0.00  0.00    -0.000 C 
BRANCH  46  47
ATOM     47  C   UNL     1       8.370   2.308  21.894  0.00  0.00    -0.000 C 
BRANCH  47  48
ATOM     48  C   UNL     1       6.864   2.542  21.857  0.00  0.00    -0.000 C 
BRANCH  48  49
ATOM     49  C   UNL     1       6.187   1.889  23.058  0.00  0.00    -0.000 C 
BRANCH  49  50
ATOM     50  C   UNL     1       5.206   2.853  23.716  0.00  0.00    -0.000 C 
BRANCH  50  51
ATOM     51  C   UNL     1       4.124   3.286  22.731  0.00  0.00    -0.000 C 
BRANCH  51  52
ATOM     52  C   UNL     1       4.073   4.807  22.613  0.00  0.00    -0.000 C 
BRANCH  52  53
ATOM     53  C   UNL     1       5.089   5.465  23.543  0.00  0.00    -0.003 C 
ATOM     54  C   UNL     1       6.190   6.153  22.754  0.00  0.00    +0.004 C 
ENDBRANCH  52  53
ENDBRANCH  51  52
ENDBRANCH  50  51
ENDBRANCH  49  50
ENDBRANCH  48  49
ENDBRANCH  47  48
ENDBRANCH  46  47
ENDBRANCH  45  46
ENDBRANCH  44  45
ENDBRANCH  43  44
ENDBRANCH  42  43
ENDBRANCH  41  42
ENDBRANCH  40  41
ENDBRANCH  39  40
ENDBRANCH  38  39
ENDBRANCH  36  38
ENDBRANCH  35  36
ENDBRANCH   1  35
TORSDOF 45
ENDMDL
MODEL 5
REMARK VINA RESULT:      -3.7      2.997      8.093
REMARK  Name = 
REMARK  47 active torsions:
REMARK  status: ('A' for Active; 'I' for Inactive)
REMARK    1  A    between atoms: C_1  and  C_2
REMARK    2  A    between atoms: C_2  and  C_3
REMARK    3  A    between atoms: C_3  and  C_4
REMARK    4  A    between atoms: C_4  and  C_5
REMARK    5  A    between atoms: C_5  and  C_6
REMARK    6  A    between atoms: C_6  and  C_7
REMARK    7  A    between atoms: C_7  and  C_8
REMARK    8  A    between atoms: C_8  and  C_9
REMARK    9  A    between atoms: C_9  and  C_10
REMARK   10  A    between atoms: C_10  and  C_11
REMARK   11  A    between atoms: C_11  and  C_12
REMARK   12  A    between atoms: C_12  and  C_13
REMARK   13  A    between atoms: C_13  and  C_14
REMARK   14  A    between atoms: C_14  and  C_15
REMARK   15  A    between atoms: C_15  and  C_16
REMARK   16  A    between atoms: C_16  and  C_17
REMARK   17  A    between atoms: C_17  and  C_18
REMARK   18  A    between atoms: C_18  and  O_20
REMARK   19  A    between atoms: O_20  and  C_21
REMARK   20  A    between atoms: C_21  and  C_22
REMARK   21  A    between atoms: C_22  and  C_24
REMARK   22  A    between atoms: C_22  and  O_33
REMARK   23  A    between atoms: C_24  and  O_25
REMARK   24  A    between atoms: O_25  and  P_26
REMARK   25  A    between atoms: P_26  and  O_27
REMARK   26  A    between atoms: P_26  and  O_29
REMARK   27  A    between atoms: O_29  and  C_30
REMARK   28  A    between atoms: C_30  and  C_31
REMARK   29  A    between atoms: C_31  and  N_32
REMARK   30  A    between atoms: O_33  and  C_34
REMARK   31  A    between atoms: C_34  and  C_36
REMARK   32  A    between atoms: C_36  and  C_37
REMARK   33  A    between atoms: C_37  and  C_38
REMARK   34  A    between atoms: C_38  and  C_39
REMARK   35  A    between atoms: C_39  and  C_40
REMARK   36  A    between atoms: C_40  and  C_41
REMARK   37  A    between atoms: C_41  and  C_42
REMARK   38  A    between atoms: C_42  and  C_43
REMARK   39  A    between atoms: C_43  and  C_44
REMARK   40  A    between atoms: C_44  and  C_45
REMARK   41  A    between atoms: C_45  and  C_46
REMARK   42  A    between atoms: C_46  and  C_47
REMARK   43  A    between atoms: C_47  and  C_48
REMARK   44  A    between atoms: C_48  and  C_49
REMARK   45  A    between atoms: C_49  and  C_50
REMARK   46  A    between atoms: C_50  and  C_51
REMARK   47  A    between atoms: C_51  and  C_52
REMARK                            x       y       z     vdW  Elec       q    Type
REMARK                         _______ _______ _______ _____ _____    ______ ____
ROOT
ATOM      1  C   UNL     1       7.942  -1.785  23.309  0.00  0.00    +0.240 C 
ENDROOT
BRANCH   1   2
ATOM      2  C   UNL     1       6.902  -1.124  24.208  0.00  0.00    +0.220 C 
BRANCH   2   3
ATOM      3  O   UNL     1       7.565  -0.247  25.113  0.00  0.00    -0.283 OA
BRANCH   3   4
ATOM      4  P   UNL     1       7.402  -0.557  26.678  0.00  0.00    +0.475 P 
ATOM      5  O   UNL     1       6.752  -1.864  26.993  0.00  0.00    -0.227 OA
BRANCH   4   6
ATOM      6  O   UNL     1       8.922  -0.519  27.178  0.00  0.00    -0.302 OA
ATOM      7  H   UNL     1       8.982  -0.908  28.069  0.00  0.00    +0.222 HD
ENDBRANCH   4   6
BRANCH   4   8
ATOM      8  O   UNL     1       6.702   0.750  27.288  0.00  0.00    -0.285 OA
BRANCH   8   9
ATOM      9  C   UNL     1       6.289   0.748  28.643  0.00  0.00    +0.187 C 
BRANCH   9  10
ATOM     10  C   UNL     1       7.158   1.690  29.476  0.00  0.00    +0.106 C 
BRANCH  10  11
ATOM     11  N   UNL     1       8.435   1.078  29.840  0.00  0.00    -0.328 NA
ATOM     12  H   UNL     1       8.307   0.078  29.987  0.00  0.00    +0.118 HD
ATOM     13  H   UNL     1       9.108   1.188  29.084  0.00  0.00    +0.118 HD
ENDBRANCH  10  11
ENDBRANCH   9  10
ENDBRANCH   8   9
ENDBRANCH   4   8
ENDBRANCH   3   4
ENDBRANCH   2   3
ENDBRANCH   1   2
BRANCH   1  14
ATOM     14  C   UNL     1       8.055  -3.281  23.626  0.00  0.00    +0.279 C 
BRANCH  14  15
ATOM     15  O   UNL     1       8.744  -3.487  24.871  0.00  0.00    -0.461 OA
BRANCH  15  16
ATOM     16  C   UNL     1       8.939  -4.795  25.208  0.00  0.00    +0.307 C 
ATOM     17  O   UNL     1       9.410  -5.646  24.467  0.00  0.00    -0.251 OA
BRANCH  16  18
ATOM     18  C   UNL     1       8.450  -5.047  26.607  0.00  0.00    +0.120 C 
BRANCH  18  19
ATOM     19  C   UNL     1       6.959  -5.314  26.566  0.00  0.00    +0.011 C 
BRANCH  19  20
ATOM     20  C   UNL     1       6.398  -5.616  27.949  0.00  0.00    +0.001 C 
BRANCH  20  21
ATOM     21  C   UNL     1       4.910  -5.285  27.979  0.00  0.00    +0.000 C 
BRANCH  21  22
ATOM     22  C   UNL     1       4.062  -6.466  27.529  0.00  0.00    +0.000 C 
BRANCH  22  23
ATOM     23  C   UNL     1       2.581  -6.130  27.669  0.00  0.00    +0.000 C 
BRANCH  23  24
ATOM     24  C   UNL     1       1.798  -6.622  26.458  0.00  0.00    -0.000 C 
BRANCH  24  25
ATOM     25  C   UNL     1       2.514  -7.793  25.794  0.00  0.00    -0.000 C 
BRANCH  25  26
ATOM     26  C   UNL     1       2.236  -7.809  24.296  0.00  0.00    -0.000 C 
BRANCH  26  27
ATOM     27  C   UNL     1       3.008  -6.699  23.592  0.00  0.00    -0.000 C 
BRANCH  27  28
ATOM     28  C   UNL     1       4.484  -6.752  23.965  0.00  0.00    -0.000 C 
BRANCH  28  29
ATOM     29  C   UNL     1       5.224  -5.538  23.414  0.00  0.00    -0.000 C 
BRANCH  29  30
ATOM     30  C   UNL     1       4.304  -4.323  23.362  0.00  0.00    -0.000 C 
BRANCH  30  31
ATOM     31  C   UNL     1       4.371  -3.534  24.667  0.00  0.00    -0.000 C 
BRANCH  31  32
ATOM     32  C   UNL     1       2.975  -3.345  25.255  0.00  0.00    -0.000 C 
BRANCH  32  34
ATOM     33  C   UNL     1       1.657  -2.461  27.201  0.00  0.00    +0.004 C 
ATOM     34  C   UNL     1       3.025  -2.528  26.543  0.00  0.00    -0.003 C 
ENDBRANCH  32  34
ENDBRANCH  31  32
ENDBRANCH  30  31
ENDBRANCH  29  30
ENDBRANCH  28  29
ENDBRANCH  27  28
ENDBRANCH  26  27
ENDBRANCH  25  26
ENDBRANCH  24  25
ENDBRANCH  23  24
ENDBRANCH  22  23
ENDBRANCH  21  22
ENDBRANCH  20  21
ENDBRANCH  19  20
ENDBRANCH  18  19
ENDBRANCH  16  18
ENDBRANCH  15  16
ENDBRANCH  14  15
ENDBRANCH   1  14
BRANCH   1  35
ATOM     35  O   UNL     1       9.219  -1.152  23.583  0.00  0.00    -0.456 OA
BRANCH  35  36
ATOM     36  C   UNL     1      10.059  -1.042  22.522  0.00  0.00    +0.308 C 
ATOM     37  O   UNL     1      10.887  -1.870  22.173  0.00  0.00    -0.251 OA
BRANCH  36  38
ATOM     38  C   UNL     1       9.819   0.250  21.783  0.00  0.00    +0.120 C 
BRANCH  38  39
ATOM     39  C   UNL     1      10.189   1.431  22.671  0.00  0.00    +0.011 C 
BRANCH  39  40
ATOM     40  C   UNL     1       8.966   2.280  23.020  0.00  0.00    +0.001 C 
BRANCH  40  41
ATOM     41  C   UNL     1       8.973   2.668  24.493  0.00  0.00    +0.000 C 
BRANCH  41  42
ATOM     42  C   UNL     1       7.622   3.242  24.904  0.00  0.00    +0.000 C 
BRANCH  42  43
ATOM     43  C   UNL     1       7.684   3.800  26.320  0.00  0.00    +0.000 C 
BRANCH  43  44
ATOM     44  C   UNL     1       7.417   5.301  26.321  0.00  0.00    -0.000 C 
BRANCH  44  45
ATOM     45  C   UNL     1       5.929   5.583  26.491  0.00  0.00    -0.000 C 
BRANCH  45  46
ATOM     46  C   UNL     1       5.414   6.450  25.349  0.00  0.00    -0.000 C 
BRANCH  46  47
ATOM     47  C   UNL     1       6.571   7.108  24.606  0.00  0.00    -0.000 C 
BRANCH  47  48
ATOM     48  C   UNL     1       6.446   6.883  23.103  0.00  0.00    -0.000 C 
BRANCH  48  49
ATOM     49  C   UNL     1       7.709   6.234  22.547  0.00  0.00    -0.000 C 
BRANCH  49  50
ATOM     50  C   UNL     1       8.944   6.726  23.295  0.00  0.00    -0.000 C 
BRANCH  50  51
ATOM     51  C   UNL     1       9.994   5.624  23.397  0.00  0.00    -0.000 C 
BRANCH  51  52
ATOM     52  C   UNL     1      11.292   6.164  23.992  0.00  0.00    -0.000 C 
BRANCH  52  53
ATOM     53  C   UNL     1      12.465   5.237  23.686  0.00  0.00    -0.003 C 
ATOM     54  C   UNL     1      13.105   5.585  22.354  0.00  0.00    +0.004 C 
ENDBRANCH  52  53
ENDBRANCH  51  52
ENDBRANCH  50  51
ENDBRANCH  49  50
ENDBRANCH  48  49
ENDBRANCH  47  48
ENDBRANCH  46  47
ENDBRANCH  45  46
ENDBRANCH  44  45
ENDBRANCH  43  44
ENDBRANCH  42  43
ENDBRANCH  41  42
ENDBRANCH  40  41
ENDBRANCH  39  40
ENDBRANCH  38  39
ENDBRANCH  36  38
ENDBRANCH  35  36
ENDBRANCH   1  35
TORSDOF 45
ENDMDL
MODEL 6
REMARK VINA RESULT:      -3.7      1.855      4.532
REMARK  Name = 
REMARK  47 active torsions:
REMARK  status: ('A' for Active; 'I' for Inactive)
REMARK    1  A    between atoms: C_1  and  C_2
REMARK    2  A    between atoms: C_2  and  C_3
REMARK    3  A    between atoms: C_3  and  C_4
REMARK    4  A    between atoms: C_4  and  C_5
REMARK    5  A    between atoms: C_5  and  C_6
REMARK    6  A    between atoms: C_6  and  C_7
REMARK    7  A    between atoms: C_7  and  C_8
REMARK    8  A    between atoms: C_8  and  C_9
REMARK    9  A    between atoms: C_9  and  C_10
REMARK   10  A    between atoms: C_10  and  C_11
REMARK   11  A    between atoms: C_11  and  C_12
REMARK   12  A    between atoms: C_12  and  C_13
REMARK   13  A    between atoms: C_13  and  C_14
REMARK   14  A    between atoms: C_14  and  C_15
REMARK   15  A    between atoms: C_15  and  C_16
REMARK   16  A    between atoms: C_16  and  C_17
REMARK   17  A    between atoms: C_17  and  C_18
REMARK   18  A    between atoms: C_18  and  O_20
REMARK   19  A    between atoms: O_20  and  C_21
REMARK   20  A    between atoms: C_21  and  C_22
REMARK   21  A    between atoms: C_22  and  C_24
REMARK   22  A    between atoms: C_22  and  O_33
REMARK   23  A    between atoms: C_24  and  O_25
REMARK   24  A    between atoms: O_25  and  P_26
REMARK   25  A    between atoms: P_26  and  O_27
REMARK   26  A    between atoms: P_26  and  O_29
REMARK   27  A    between atoms: O_29  and  C_30
REMARK   28  A    between atoms: C_30  and  C_31
REMARK   29  A    between atoms: C_31  and  N_32
REMARK   30  A    between atoms: O_33  and  C_34
REMARK   31  A    between atoms: C_34  and  C_36
REMARK   32  A    between atoms: C_36  and  C_37
REMARK   33  A    between atoms: C_37  and  C_38
REMARK   34  A    between atoms: C_38  and  C_39
REMARK   35  A    between atoms: C_39  and  C_40
REMARK   36  A    between atoms: C_40  and  C_41
REMARK   37  A    between atoms: C_41  and  C_42
REMARK   38  A    between atoms: C_42  and  C_43
REMARK   39  A    between atoms: C_43  and  C_44
REMARK   40  A    between atoms: C_44  and  C_45
REMARK   41  A    between atoms: C_45  and  C_46
REMARK   42  A    between atoms: C_46  and  C_47
REMARK   43  A    between atoms: C_47  and  C_48
REMARK   44  A    between atoms: C_48  and  C_49
REMARK   45  A    between atoms: C_49  and  C_50
REMARK   46  A    between atoms: C_50  and  C_51
REMARK   47  A    between atoms: C_51  and  C_52
REMARK                            x       y       z     vdW  Elec       q    Type
REMARK                         _______ _______ _______ _____ _____    ______ ____
ROOT
ATOM      1  C   UNL     1       3.698  -3.397  26.344  0.00  0.00    +0.240 C 
ENDROOT
BRANCH   1   2
ATOM      2  C   UNL     1       2.801  -4.626  26.457  0.00  0.00    +0.220 C 
BRANCH   2   3
ATOM      3  O   UNL     1       2.838  -5.102  27.798  0.00  0.00    -0.283 OA
BRANCH   3   4
ATOM      4  P   UNL     1       2.844  -6.692  28.007  0.00  0.00    +0.475 P 
ATOM      5  O   UNL     1       1.491  -7.313  28.123  0.00  0.00    -0.227 OA
BRANCH   4   6
ATOM      6  O   UNL     1       3.610  -7.191  26.693  0.00  0.00    -0.302 OA
ATOM      7  H   UNL     1       4.308  -7.824  26.941  0.00  0.00    +0.222 HD
ENDBRANCH   4   6
BRANCH   4   8
ATOM      8  O   UNL     1       3.850  -6.946  29.229  0.00  0.00    -0.285 OA
BRANCH   8   9
ATOM      9  C   UNL     1       4.795  -5.948  29.569  0.00  0.00    +0.187 C 
BRANCH   9  10
ATOM     10  C   UNL     1       6.136  -6.216  28.885  0.00  0.00    +0.106 C 
BRANCH  10  11
ATOM     11  N   UNL     1       6.707  -7.500  29.285  0.00  0.00    -0.328 NA
ATOM     12  H   UNL     1       6.052  -7.994  29.890  0.00  0.00    +0.118 HD
ATOM     13  H   UNL     1       6.865  -8.088  28.469  0.00  0.00    +0.118 HD
ENDBRANCH  10  11
ENDBRANCH   9  10
ENDBRANCH   8   9
ENDBRANCH   4   8
ENDBRANCH   3   4
ENDBRANCH   2   3
ENDBRANCH   1   2
BRANCH   1  14
ATOM     14  C   UNL     1       5.166  -3.814  26.201  0.00  0.00    +0.279 C 
BRANCH  14  15
ATOM     15  O   UNL     1       5.276  -5.051  25.476  0.00  0.00    -0.461 OA
BRANCH  15  16
ATOM     16  C   UNL     1       6.515  -5.307  24.963  0.00  0.00    +0.307 C 
ATOM     17  O   UNL     1       7.532  -5.444  25.627  0.00  0.00    -0.251 OA
BRANCH  16  18
ATOM     18  C   UNL     1       6.454  -5.351  23.462  0.00  0.00    +0.120 C 
BRANCH  18  19
ATOM     19  C   UNL     1       7.554  -4.475  22.899  0.00  0.00    +0.011 C 
BRANCH  19  20
ATOM     20  C   UNL     1       7.231  -2.994  23.046  0.00  0.00    +0.001 C 
BRANCH  20  21
ATOM     21  C   UNL     1       8.282  -2.169  22.312  0.00  0.00    +0.000 C 
BRANCH  21  22
ATOM     22  C   UNL     1       9.529  -1.964  23.160  0.00  0.00    +0.000 C 
BRANCH  22  23
ATOM     23  C   UNL     1      10.189  -0.635  22.809  0.00  0.00    +0.000 C 
BRANCH  23  24
ATOM     24  C   UNL     1      10.805   0.008  24.045  0.00  0.00    -0.000 C 
BRANCH  24  25
ATOM     25  C   UNL     1      10.536   1.508  24.061  0.00  0.00    -0.000 C 
BRANCH  25  26
ATOM     26  C   UNL     1       9.994   1.968  22.713  0.00  0.00    -0.000 C 
BRANCH  26  27
ATOM     27  C   UNL     1       8.889   3.001  22.898  0.00  0.00    -0.000 C 
BRANCH  27  28
ATOM     28  C   UNL     1       7.678   2.651  22.042  0.00  0.00    -0.000 C 
BRANCH  28  29
ATOM     29  C   UNL     1       7.064   1.329  22.491  0.00  0.00    -0.000 C 
BRANCH  29  30
ATOM     30  C   UNL     1       5.997   1.563  23.555  0.00  0.00    -0.000 C 
BRANCH  30  31
ATOM     31  C   UNL     1       6.009   0.444  24.593  0.00  0.00    -0.000 C 
BRANCH  31  32
ATOM     32  C   UNL     1       7.388   0.318  25.235  0.00  0.00    -0.000 C 
BRANCH  32  34
ATOM     33  C   UNL     1       8.679  -0.885  27.022  0.00  0.00    +0.004 C 
ATOM     34  C   UNL     1       7.488  -0.949  26.081  0.00  0.00    -0.003 C 
ENDBRANCH  32  34
ENDBRANCH  31  32
ENDBRANCH  30  31
ENDBRANCH  29  30
ENDBRANCH  28  29
ENDBRANCH  27  28
ENDBRANCH  26  27
ENDBRANCH  25  26
ENDBRANCH  24  25
ENDBRANCH  23  24
ENDBRANCH  22  23
ENDBRANCH  21  22
ENDBRANCH  20  21
ENDBRANCH  19  20
ENDBRANCH  18  19
ENDBRANCH  16  18
ENDBRANCH  15  16
ENDBRANCH  14  15
ENDBRANCH   1  14
BRANCH   1  35
ATOM     35  O   UNL     1       3.547  -2.634  27.570  0.00  0.00    -0.456 OA
BRANCH  35  36
ATOM     36  C   UNL     1       3.410  -1.293  27.412  0.00  0.00    +0.308 C 
ATOM     37  O   UNL     1       2.594  -0.734  26.695  0.00  0.00    -0.251 OA
BRANCH  36  38
ATOM     38  C   UNL     1       4.393  -0.550  28.281  0.00  0.00    +0.120 C 
BRANCH  38  39
ATOM     39  C   UNL     1       4.263   0.949  28.043  0.00  0.00    +0.011 C 
BRANCH  39  40
ATOM     40  C   UNL     1       5.605   1.665  28.203  0.00  0.00    +0.001 C 
BRANCH  40  41
ATOM     41  C   UNL     1       5.733   2.813  27.211  0.00  0.00    +0.000 C 
BRANCH  41  42
ATOM     42  C   UNL     1       7.035   3.575  27.435  0.00  0.00    +0.000 C 
BRANCH  42  43
ATOM     43  C   UNL     1       7.541   4.168  26.127  0.00  0.00    +0.000 C 
BRANCH  43  44
ATOM     44  C   UNL     1       8.036   5.595  26.336  0.00  0.00    -0.000 C 
BRANCH  44  45
ATOM     45  C   UNL     1       9.003   5.998  25.229  0.00  0.00    -0.000 C 
BRANCH  45  46
ATOM     46  C   UNL     1       8.332   6.958  24.255  0.00  0.00    -0.000 C 
BRANCH  46  47
ATOM     47  C   UNL     1       8.510   6.481  22.818  0.00  0.00    -0.000 C 
BRANCH  47  48
ATOM     48  C   UNL     1       7.158   6.305  22.136  0.00  0.00    -0.000 C 
BRANCH  48  49
ATOM     49  C   UNL     1       6.022   6.455  23.143  0.00  0.00    -0.000 C 
BRANCH  49  50
ATOM     50  C   UNL     1       5.255   5.146  23.293  0.00  0.00    -0.000 C 
BRANCH  50  51
ATOM     51  C   UNL     1       4.288   5.213  24.472  0.00  0.00    -0.000 C 
BRANCH  51  52
ATOM     52  C   UNL     1       4.616   6.397  25.377  0.00  0.00    -0.000 C 
BRANCH  52  53
ATOM     53  C   UNL     1       4.015   6.211  26.767  0.00  0.00    -0.003 C 
ATOM     54  C   UNL     1       2.985   5.095  26.774  0.00  0.00    +0.004 C 
ENDBRANCH  52  53
ENDBRANCH  51  52
ENDBRANCH  50  51
ENDBRANCH  49  50
ENDBRANCH  48  49
ENDBRANCH  47  48
ENDBRANCH  46  47
ENDBRANCH  45  46
ENDBRANCH  44  45
ENDBRANCH  43  44
ENDBRANCH  42  43
ENDBRANCH  41  42
ENDBRANCH  40  41
ENDBRANCH  39  40
ENDBRANCH  38  39
ENDBRANCH  36  38
ENDBRANCH  35  36
ENDBRANCH   1  35
TORSDOF 45
ENDMDL
MODEL 7
REMARK VINA RESULT:      -3.7      3.625      8.901
REMARK  Name = 
REMARK  47 active torsions:
REMARK  status: ('A' for Active; 'I' for Inactive)
REMARK    1  A    between atoms: C_1  and  C_2
REMARK    2  A    between atoms: C_2  and  C_3
REMARK    3  A    between atoms: C_3  and  C_4
REMARK    4  A    between atoms: C_4  and  C_5
REMARK    5  A    between atoms: C_5  and  C_6
REMARK    6  A    between atoms: C_6  and  C_7
REMARK    7  A    between atoms: C_7  and  C_8
REMARK    8  A    between atoms: C_8  and  C_9
REMARK    9  A    between atoms: C_9  and  C_10
REMARK   10  A    between atoms: C_10  and  C_11
REMARK   11  A    between atoms: C_11  and  C_12
REMARK   12  A    between atoms: C_12  and  C_13
REMARK   13  A    between atoms: C_13  and  C_14
REMARK   14  A    between atoms: C_14  and  C_15
REMARK   15  A    between atoms: C_15  and  C_16
REMARK   16  A    between atoms: C_16  and  C_17
REMARK   17  A    between atoms: C_17  and  C_18
REMARK   18  A    between atoms: C_18  and  O_20
REMARK   19  A    between atoms: O_20  and  C_21
REMARK   20  A    between atoms: C_21  and  C_22
REMARK   21  A    between atoms: C_22  and  C_24
REMARK   22  A    between atoms: C_22  and  O_33
REMARK   23  A    between atoms: C_24  and  O_25
REMARK   24  A    between atoms: O_25  and  P_26
REMARK   25  A    between atoms: P_26  and  O_27
REMARK   26  A    between atoms: P_26  and  O_29
REMARK   27  A    between atoms: O_29  and  C_30
REMARK   28  A    between atoms: C_30  and  C_31
REMARK   29  A    between atoms: C_31  and  N_32
REMARK   30  A    between atoms: O_33  and  C_34
REMARK   31  A    between atoms: C_34  and  C_36
REMARK   32  A    between atoms: C_36  and  C_37
REMARK   33  A    between atoms: C_37  and  C_38
REMARK   34  A    between atoms: C_38  and  C_39
REMARK   35  A    between atoms: C_39  and  C_40
REMARK   36  A    between atoms: C_40  and  C_41
REMARK   37  A    between atoms: C_41  and  C_42
REMARK   38  A    between atoms: C_42  and  C_43
REMARK   39  A    between atoms: C_43  and  C_44
REMARK   40  A    between atoms: C_44  and  C_45
REMARK   41  A    between atoms: C_45  and  C_46
REMARK   42  A    between atoms: C_46  and  C_47
REMARK   43  A    between atoms: C_47  and  C_48
REMARK   44  A    between atoms: C_48  and  C_49
REMARK   45  A    between atoms: C_49  and  C_50
REMARK   46  A    between atoms: C_50  and  C_51
REMARK   47  A    between atoms: C_51  and  C_52
REMARK                            x       y       z     vdW  Elec       q    Type
REMARK                         _______ _______ _______ _____ _____    ______ ____
ROOT
ATOM      1  C   UNL     1       4.962   2.619  25.421  0.00  0.00    +0.240 C 
ENDROOT
BRANCH   1   2
ATOM      2  C   UNL     1       5.536   3.827  26.156  0.00  0.00    +0.220 C 
BRANCH   2   3
ATOM      3  O   UNL     1       5.339   3.651  27.554  0.00  0.00    -0.283 OA
BRANCH   3   4
ATOM      4  P   UNL     1       6.284   4.498  28.535  0.00  0.00    +0.475 P 
ATOM      5  O   UNL     1       6.713   5.825  27.999  0.00  0.00    -0.227 OA
BRANCH   4   6
ATOM      6  O   UNL     1       5.355   4.658  29.827  0.00  0.00    -0.302 OA
ATOM      7  H   UNL     1       5.785   4.237  30.594  0.00  0.00    +0.222 HD
ENDBRANCH   4   6
BRANCH   4   8
ATOM      8  O   UNL     1       7.457   3.489  28.954  0.00  0.00    -0.285 OA
BRANCH   8   9
ATOM      9  C   UNL     1       7.262   2.616  30.053  0.00  0.00    +0.187 C 
BRANCH   9  10
ATOM     10  C   UNL     1       6.966   1.196  29.571  0.00  0.00    +0.106 C 
BRANCH  10  11
ATOM     11  N   UNL     1       7.831   0.803  28.460  0.00  0.00    -0.328 NA
ATOM     12  H   UNL     1       7.509   1.245  27.601  0.00  0.00    +0.118 HD
ATOM     13  H   UNL     1       8.784   1.122  28.624  0.00  0.00    +0.118 HD
ENDBRANCH  10  11
ENDBRANCH   9  10
ENDBRANCH   8   9
ENDBRANCH   4   8
ENDBRANCH   3   4
ENDBRANCH   2   3
ENDBRANCH   1   2
BRANCH   1  14
ATOM     14  C   UNL     1       5.192   1.337  26.231  0.00  0.00    +0.279 C 
BRANCH  14  15
ATOM     15  O   UNL     1       4.917   0.173  25.433  0.00  0.00    -0.461 OA
BRANCH  15  16
ATOM     16  C   UNL     1       5.371  -1.002  25.958  0.00  0.00    +0.307 C 
ATOM     17  O   UNL     1       5.697  -1.166  27.125  0.00  0.00    -0.251 OA
BRANCH  16  18
ATOM     18  C   UNL     1       5.451  -2.051  24.885  0.00  0.00    +0.120 C 
BRANCH  18  19
ATOM     19  C   UNL     1       4.313  -3.034  25.072  0.00  0.00    +0.011 C 
BRANCH  19  20
ATOM     20  C   UNL     1       4.138  -3.936  23.857  0.00  0.00    +0.001 C 
BRANCH  20  21
ATOM     21  C   UNL     1       3.935  -5.376  24.318  0.00  0.00    +0.000 C 
BRANCH  21  22
ATOM     22  C   UNL     1       4.892  -6.331  23.618  0.00  0.00    +0.000 C 
BRANCH  22  23
ATOM     23  C   UNL     1       5.439  -5.685  22.349  0.00  0.00    +0.000 C 
BRANCH  23  24
ATOM     24  C   UNL     1       6.961  -5.753  22.321  0.00  0.00    -0.000 C 
BRANCH  24  25
ATOM     25  C   UNL     1       7.564  -4.669  23.207  0.00  0.00    -0.000 C 
BRANCH  25  26
ATOM     26  C   UNL     1       8.407  -5.291  24.312  0.00  0.00    -0.000 C 
BRANCH  26  27
ATOM     27  C   UNL     1       8.139  -4.605  25.647  0.00  0.00    -0.000 C 
BRANCH  27  28
ATOM     28  C   UNL     1       7.129  -5.400  26.466  0.00  0.00    -0.000 C 
BRANCH  28  29
ATOM     29  C   UNL     1       6.480  -4.517  27.526  0.00  0.00    -0.000 C 
BRANCH  29  30
ATOM     30  C   UNL     1       5.480  -5.316  28.355  0.00  0.00    -0.000 C 
BRANCH  30  31
ATOM     31  C   UNL     1       5.031  -6.568  27.609  0.00  0.00    -0.000 C 
BRANCH  31  32
ATOM     32  C   UNL     1       3.511  -6.696  27.635  0.00  0.00    -0.000 C 
BRANCH  32  34
ATOM     33  C   UNL     1       2.877  -7.438  29.950  0.00  0.00    +0.004 C 
ATOM     34  C   UNL     1       2.944  -6.265  28.986  0.00  0.00    -0.003 C 
ENDBRANCH  32  34
ENDBRANCH  31  32
ENDBRANCH  30  31
ENDBRANCH  29  30
ENDBRANCH  28  29
ENDBRANCH  27  28
ENDBRANCH  26  27
ENDBRANCH  25  26
ENDBRANCH  24  25
ENDBRANCH  23  24
ENDBRANCH  22  23
ENDBRANCH  21  22
ENDBRANCH  20  21
ENDBRANCH  19  20
ENDBRANCH  18  19
ENDBRANCH  16  18
ENDBRANCH  15  16
ENDBRANCH  14  15
ENDBRANCH   1  14
BRANCH   1  35
ATOM     35  O   UNL     1       5.666   2.504  24.157  0.00  0.00    -0.456 OA
BRANCH  35  36
ATOM     36  C   UNL     1       5.060   3.090  23.093  0.00  0.00    +0.308 C 
ATOM     37  O   UNL     1       3.863   3.065  22.845  0.00  0.00    -0.251 OA
BRANCH  36  38
ATOM     38  C   UNL     1       6.064   3.827  22.244  0.00  0.00    +0.120 C 
BRANCH  38  39
ATOM     39  C   UNL     1       6.073   5.304  22.620  0.00  0.00    +0.011 C 
BRANCH  39  40
ATOM     40  C   UNL     1       7.249   6.043  21.978  0.00  0.00    +0.001 C 
BRANCH  40  41
ATOM     41  C   UNL     1       7.878   7.024  22.958  0.00  0.00    +0.000 C 
BRANCH  41  42
ATOM     42  C   UNL     1       9.203   6.484  23.484  0.00  0.00    +0.000 C 
BRANCH  42  43
ATOM     43  C   UNL     1       9.047   5.974  24.910  0.00  0.00    +0.000 C 
BRANCH  43  44
ATOM     44  C   UNL     1       8.898   4.457  24.930  0.00  0.00    -0.000 C 
BRANCH  44  45
ATOM     45  C   UNL     1       9.781   3.816  23.866  0.00  0.00    -0.000 C 
BRANCH  45  46
ATOM     46  C   UNL     1       9.096   2.596  23.263  0.00  0.00    -0.000 C 
BRANCH  46  47
ATOM     47  C   UNL     1       9.819   2.138  22.003  0.00  0.00    -0.000 C 
BRANCH  47  48
ATOM     48  C   UNL     1       9.129   0.922  21.395  0.00  0.00    -0.000 C 
BRANCH  48  49
ATOM     49  C   UNL     1       7.918   0.517  22.229  0.00  0.00    -0.000 C 
BRANCH  49  50
ATOM     50  C   UNL     1       7.989  -0.961  22.603  0.00  0.00    -0.000 C 
BRANCH  50  51
ATOM     51  C   UNL     1       9.437  -1.439  22.662  0.00  0.00    -0.000 C 
BRANCH  51  52
ATOM     52  C   UNL     1       9.827  -1.813  24.090  0.00  0.00    -0.000 C 
BRANCH  52  53
ATOM     53  C   UNL     1       9.607  -0.644  25.045  0.00  0.00    -0.003 C 
ATOM     54  C   UNL     1      10.801   0.295  25.045  0.00  0.00    +0.004 C 
ENDBRANCH  52  53
ENDBRANCH  51  52
ENDBRANCH  50  51
ENDBRANCH  49  50
ENDBRANCH  48  49
ENDBRANCH  47  48
ENDBRANCH  46  47
ENDBRANCH  45  46
ENDBRANCH  44  45
ENDBRANCH  43  44
ENDBRANCH  42  43
ENDBRANCH  41  42
ENDBRANCH  40  41
ENDBRANCH  39  40
ENDBRANCH  38  39
ENDBRANCH  36  38
ENDBRANCH  35  36
ENDBRANCH   1  35
TORSDOF 45
ENDMDL
MODEL 8
REMARK VINA RESULT:      -3.7      4.290      8.569
REMARK  Name = 
REMARK  47 active torsions:
REMARK  status: ('A' for Active; 'I' for Inactive)
REMARK    1  A    between atoms: C_1  and  C_2
REMARK    2  A    between atoms: C_2  and  C_3
REMARK    3  A    between atoms: C_3  and  C_4
REMARK    4  A    between atoms: C_4  and  C_5
REMARK    5  A    between atoms: C_5  and  C_6
REMARK    6  A    between atoms: C_6  and  C_7
REMARK    7  A    between atoms: C_7  and  C_8
REMARK    8  A    between atoms: C_8  and  C_9
REMARK    9  A    between atoms: C_9  and  C_10
REMARK   10  A    between atoms: C_10  and  C_11
REMARK   11  A    between atoms: C_11  and  C_12
REMARK   12  A    between atoms: C_12  and  C_13
REMARK   13  A    between atoms: C_13  and  C_14
REMARK   14  A    between atoms: C_14  and  C_15
REMARK   15  A    between atoms: C_15  and  C_16
REMARK   16  A    between atoms: C_16  and  C_17
REMARK   17  A    between atoms: C_17  and  C_18
REMARK   18  A    between atoms: C_18  and  O_20
REMARK   19  A    between atoms: O_20  and  C_21
REMARK   20  A    between atoms: C_21  and  C_22
REMARK   21  A    between atoms: C_22  and  C_24
REMARK   22  A    between atoms: C_22  and  O_33
REMARK   23  A    between atoms: C_24  and  O_25
REMARK   24  A    between atoms: O_25  and  P_26
REMARK   25  A    between atoms: P_26  and  O_27
REMARK   26  A    between atoms: P_26  and  O_29
REMARK   27  A    between atoms: O_29  and  C_30
REMARK   28  A    between atoms: C_30  and  C_31
REMARK   29  A    between atoms: C_31  and  N_32
REMARK   30  A    between atoms: O_33  and  C_34
REMARK   31  A    between atoms: C_34  and  C_36
REMARK   32  A    between atoms: C_36  and  C_37
REMARK   33  A    between atoms: C_37  and  C_38
REMARK   34  A    between atoms: C_38  and  C_39
REMARK   35  A    between atoms: C_39  and  C_40
REMARK   36  A    between atoms: C_40  and  C_41
REMARK   37  A    between atoms: C_41  and  C_42
REMARK   38  A    between atoms: C_42  and  C_43
REMARK   39  A    between atoms: C_43  and  C_44
REMARK   40  A    between atoms: C_44  and  C_45
REMARK   41  A    between atoms: C_45  and  C_46
REMARK   42  A    between atoms: C_46  and  C_47
REMARK   43  A    between atoms: C_47  and  C_48
REMARK   44  A    between atoms: C_48  and  C_49
REMARK   45  A    between atoms: C_49  and  C_50
REMARK   46  A    between atoms: C_50  and  C_51
REMARK   47  A    between atoms: C_51  and  C_52
REMARK                            x       y       z     vdW  Elec       q    Type
REMARK                         _______ _______ _______ _____ _____    ______ ____
ROOT
ATOM      1  C   UNL     1       6.372   4.138  22.245  0.00  0.00    +0.240 C 
ENDROOT
BRANCH   1   2
ATOM      2  C   UNL     1       5.305   4.478  23.280  0.00  0.00    +0.220 C 
BRANCH   2   3
ATOM      3  O   UNL     1       4.021   4.253  22.710  0.00  0.00    -0.283 OA
BRANCH   3   4
ATOM      4  P   UNL     1       2.964   3.433  23.595  0.00  0.00    +0.475 P 
ATOM      5  O   UNL     1       3.571   2.455  24.547  0.00  0.00    -0.227 OA
BRANCH   4   6
ATOM      6  O   UNL     1       2.202   4.610  24.367  0.00  0.00    -0.302 OA
ATOM      7  H   UNL     1       2.761   5.408  24.383  0.00  0.00    +0.222 HD
ENDBRANCH   4   6
BRANCH   4   8
ATOM      8  O   UNL     1       1.912   2.840  22.541  0.00  0.00    -0.285 OA
BRANCH   8   9
ATOM      9  C   UNL     1       2.173   2.966  21.155  0.00  0.00    +0.187 C 
BRANCH   9  10
ATOM     10  C   UNL     1       1.440   4.176  20.573  0.00  0.00    +0.106 C 
BRANCH  10  11
ATOM     11  N   UNL     1       2.355   5.272  20.263  0.00  0.00    -0.328 NA
ATOM     12  H   UNL     1       2.549   5.808  21.108  0.00  0.00    +0.118 HD
ATOM     13  H   UNL     1       3.244   4.907  19.927  0.00  0.00    +0.118 HD
ENDBRANCH  10  11
ENDBRANCH   9  10
ENDBRANCH   8   9
ENDBRANCH   4   8
ENDBRANCH   3   4
ENDBRANCH   2   3
ENDBRANCH   1   2
BRANCH   1  14
ATOM     14  C   UNL     1       6.573   2.620  22.159  0.00  0.00    +0.279 C 
BRANCH  14  15
ATOM     15  O   UNL     1       7.213   2.123  23.347  0.00  0.00    -0.461 OA
BRANCH  15  16
ATOM     16  C   UNL     1       8.475   1.639  23.159  0.00  0.00    +0.307 C 
ATOM     17  O   UNL     1       9.362   1.654  24.000  0.00  0.00    -0.251 OA
BRANCH  16  18
ATOM     18  C   UNL     1       8.627   1.125  21.755  0.00  0.00    +0.120 C 
BRANCH  18  19
ATOM     19  C   UNL     1       9.799   0.166  21.707  0.00  0.00    +0.011 C 
BRANCH  19  20
ATOM     20  C   UNL     1       9.364  -1.274  21.946  0.00  0.00    +0.001 C 
BRANCH  20  21
ATOM     21  C   UNL     1      10.238  -1.897  23.029  0.00  0.00    +0.000 C 
BRANCH  21  22
ATOM     22  C   UNL     1       9.400  -2.552  24.119  0.00  0.00    +0.000 C 
BRANCH  22  23
ATOM     23  C   UNL     1       9.034  -1.524  25.185  0.00  0.00    +0.000 C 
BRANCH  23  24
ATOM     24  C   UNL     1       8.573  -2.212  26.464  0.00  0.00    -0.000 C 
BRANCH  24  25
ATOM     25  C   UNL     1       8.562  -3.726  26.285  0.00  0.00    -0.000 C 
BRANCH  25  26
ATOM     26  C   UNL     1       7.308  -4.328  26.907  0.00  0.00    -0.000 C 
BRANCH  26  27
ATOM     27  C   UNL     1       6.839  -5.540  26.110  0.00  0.00    -0.000 C 
BRANCH  27  28
ATOM     28  C   UNL     1       5.359  -5.805  26.359  0.00  0.00    -0.000 C 
BRANCH  28  29
ATOM     29  C   UNL     1       4.790  -6.732  25.291  0.00  0.00    -0.000 C 
BRANCH  29  30
ATOM     30  C   UNL     1       3.267  -6.670  25.277  0.00  0.00    -0.000 C 
BRANCH  30  31
ATOM     31  C   UNL     1       2.731  -6.747  23.850  0.00  0.00    -0.000 C 
BRANCH  31  32
ATOM     32  C   UNL     1       2.463  -5.350  23.298  0.00  0.00    -0.000 C 
BRANCH  32  34
ATOM     33  C   UNL     1       1.792  -3.796  25.155  0.00  0.00    +0.004 C 
ATOM     34  C   UNL     1       1.297  -4.685  24.025  0.00  0.00    -0.003 C 
ENDBRANCH  32  34
ENDBRANCH  31  32
ENDBRANCH  30  31
ENDBRANCH  29  30
ENDBRANCH  28  29
ENDBRANCH  27  28
ENDBRANCH  26  27
ENDBRANCH  25  26
ENDBRANCH  24  25
ENDBRANCH  23  24
ENDBRANCH  22  23
ENDBRANCH  21  22
ENDBRANCH  20  21
ENDBRANCH  19  20
ENDBRANCH  18  19
ENDBRANCH  16  18
ENDBRANCH  15  16
ENDBRANCH  14  15
ENDBRANCH   1  14
BRANCH   1  35
ATOM     35  O   UNL     1       7.614   4.749  22.682  0.00  0.00    -0.456 OA
BRANCH  35  36
ATOM     36  C   UNL     1       7.743   6.073  22.411  0.00  0.00    +0.308 C 
ATOM     37  O   UNL     1       7.168   6.683  21.523  0.00  0.00    -0.251 OA
BRANCH  36  38
ATOM     38  C   UNL     1       8.683   6.729  23.390  0.00  0.00    +0.120 C 
BRANCH  38  39
ATOM     39  C   UNL     1       9.155   5.708  24.417  0.00  0.00    +0.011 C 
BRANCH  39  40
ATOM     40  C   UNL     1       8.891   6.183  25.847  0.00  0.00    +0.001 C 
BRANCH  40  41
ATOM     41  C   UNL     1       7.630   5.540  26.411  0.00  0.00    +0.000 C 
BRANCH  41  42
ATOM     42  C   UNL     1       7.628   4.039  26.147  0.00  0.00    +0.000 C 
BRANCH  42  43
ATOM     43  C   UNL     1       6.347   3.404  26.672  0.00  0.00    +0.000 C 
BRANCH  43  44
ATOM     44  C   UNL     1       6.662   2.310  27.685  0.00  0.00    -0.000 C 
BRANCH  44  45
ATOM     45  C   UNL     1       7.101   1.032  26.980  0.00  0.00    -0.000 C 
BRANCH  45  46
ATOM     46  C   UNL     1       5.948   0.436  26.182  0.00  0.00    -0.000 C 
BRANCH  46  47
ATOM     47  C   UNL     1       5.244  -0.654  26.982  0.00  0.00    -0.000 C 
BRANCH  47  48
ATOM     48  C   UNL     1       4.776  -1.779  26.066  0.00  0.00    -0.000 C 
BRANCH  48  49
ATOM     49  C   UNL     1       5.514  -1.731  24.732  0.00  0.00    -0.000 C 
BRANCH  49  50
ATOM     50  C   UNL     1       5.220  -2.980  23.907  0.00  0.00    -0.000 C 
BRANCH  50  51
ATOM     51  C   UNL     1       6.169  -3.082  22.716  0.00  0.00    -0.000 C 
BRANCH  51  52
ATOM     52  C   UNL     1       5.637  -4.069  21.681  0.00  0.00    -0.000 C 
BRANCH  52  53
ATOM     53  C   UNL     1       6.032  -5.501  22.031  0.00  0.00    -0.003 C 
ATOM     54  C   UNL     1       7.465  -5.568  22.530  0.00  0.00    +0.004 C 
ENDBRANCH  52  53
ENDBRANCH  51  52
ENDBRANCH  50  51
ENDBRANCH  49  50
ENDBRANCH  48  49
ENDBRANCH  47  48
ENDBRANCH  46  47
ENDBRANCH  45  46
ENDBRANCH  44  45
ENDBRANCH  43  44
ENDBRANCH  42  43
ENDBRANCH  41  42
ENDBRANCH  40  41
ENDBRANCH  39  40
ENDBRANCH  38  39
ENDBRANCH  36  38
ENDBRANCH  35  36
ENDBRANCH   1  35
TORSDOF 45
ENDMDL
MODEL 9
REMARK VINA RESULT:      -3.7      2.102      5.943
REMARK  Name = 
REMARK  47 active torsions:
REMARK  status: ('A' for Active; 'I' for Inactive)
REMARK    1  A    between atoms: C_1  and  C_2
REMARK    2  A    between atoms: C_2  and  C_3
REMARK    3  A    between atoms: C_3  and  C_4
REMARK    4  A    between atoms: C_4  and  C_5
REMARK    5  A    between atoms: C_5  and  C_6
REMARK    6  A    between atoms: C_6  and  C_7
REMARK    7  A    between atoms: C_7  and  C_8
REMARK    8  A    between atoms: C_8  and  C_9
REMARK    9  A    between atoms: C_9  and  C_10
REMARK   10  A    between atoms: C_10  and  C_11
REMARK   11  A    between atoms: C_11  and  C_12
REMARK   12  A    between atoms: C_12  and  C_13
REMARK   13  A    between atoms: C_13  and  C_14
REMARK   14  A    between atoms: C_14  and  C_15
REMARK   15  A    between atoms: C_15  and  C_16
REMARK   16  A    between atoms: C_16  and  C_17
REMARK   17  A    between atoms: C_17  and  C_18
REMARK   18  A    between atoms: C_18  and  O_20
REMARK   19  A    between atoms: O_20  and  C_21
REMARK   20  A    between atoms: C_21  and  C_22
REMARK   21  A    between atoms: C_22  and  C_24
REMARK   22  A    between atoms: C_22  and  O_33
REMARK   23  A    between atoms: C_24  and  O_25
REMARK   24  A    between atoms: O_25  and  P_26
REMARK   25  A    between atoms: P_26  and  O_27
REMARK   26  A    between atoms: P_26  and  O_29
REMARK   27  A    between atoms: O_29  and  C_30
REMARK   28  A    between atoms: C_30  and  C_31
REMARK   29  A    between atoms: C_31  and  N_32
REMARK   30  A    between atoms: O_33  and  C_34
REMARK   31  A    between atoms: C_34  and  C_36
REMARK   32  A    between atoms: C_36  and  C_37
REMARK   33  A    between atoms: C_37  and  C_38
REMARK   34  A    between atoms: C_38  and  C_39
REMARK   35  A    between atoms: C_39  and  C_40
REMARK   36  A    between atoms: C_40  and  C_41
REMARK   37  A    between atoms: C_41  and  C_42
REMARK   38  A    between atoms: C_42  and  C_43
REMARK   39  A    between atoms: C_43  and  C_44
REMARK   40  A    between atoms: C_44  and  C_45
REMARK   41  A    between atoms: C_45  and  C_46
REMARK   42  A    between atoms: C_46  and  C_47
REMARK   43  A    between atoms: C_47  and  C_48
REMARK   44  A    between atoms: C_48  and  C_49
REMARK   45  A    between atoms: C_49  and  C_50
REMARK   46  A    between atoms: C_50  and  C_51
REMARK   47  A    between atoms: C_51  and  C_52
REMARK                            x       y       z     vdW  Elec       q    Type
REMARK                         _______ _______ _______ _____ _____    ______ ____
ROOT
ATOM      1  C   UNL     1       5.118  -6.194  26.361  0.00  0.00    +0.240 C 
ENDROOT
BRANCH   1   2
ATOM      2  C   UNL     1       4.635  -6.642  24.985  0.00  0.00    +0.220 C 
BRANCH   2   3
ATOM      3  O   UNL     1       5.177  -5.769  24.000  0.00  0.00    -0.283 OA
BRANCH   3   4
ATOM      4  P   UNL     1       4.162  -4.748  23.294  0.00  0.00    +0.475 P 
ATOM      5  O   UNL     1       2.854  -5.346  22.888  0.00  0.00    -0.227 OA
BRANCH   4   6
ATOM      6  O   UNL     1       3.975  -3.636  24.429  0.00  0.00    -0.302 OA
ATOM      7  H   UNL     1       3.042  -3.607  24.708  0.00  0.00    +0.222 HD
ENDBRANCH   4   6
BRANCH   4   8
ATOM      8  O   UNL     1       5.017  -4.053  22.129  0.00  0.00    -0.285 OA
BRANCH   8   9
ATOM      9  C   UNL     1       6.427  -4.184  22.130  0.00  0.00    +0.187 C 
BRANCH   9  10
ATOM     10  C   UNL     1       7.080  -3.006  22.853  0.00  0.00    +0.106 C 
BRANCH  10  11
ATOM     11  N   UNL     1       8.232  -2.485  22.119  0.00  0.00    -0.328 NA
ATOM     12  H   UNL     1       7.933  -1.732  21.501  0.00  0.00    +0.118 HD
ATOM     13  H   UNL     1       8.914  -2.092  22.765  0.00  0.00    +0.118 HD
ENDBRANCH  10  11
ENDBRANCH   9  10
ENDBRANCH   8   9
ENDBRANCH   4   8
ENDBRANCH   3   4
ENDBRANCH   2   3
ENDBRANCH   1   2
BRANCH   1  14
ATOM     14  C   UNL     1       3.935  -5.730  27.221  0.00  0.00    +0.279 C 
BRANCH  14  15
ATOM     15  O   UNL     1       3.994  -4.311  27.443  0.00  0.00    -0.461 OA
BRANCH  15  16
ATOM     16  C   UNL     1       4.157  -3.941  28.747  0.00  0.00    +0.307 C 
ATOM     17  O   UNL     1       4.779  -4.581  29.582  0.00  0.00    -0.251 OA
BRANCH  16  18
ATOM     18  C   UNL     1       3.425  -2.656  29.015  0.00  0.00    +0.120 C 
BRANCH  18  19
ATOM     19  C   UNL     1       4.199  -1.510  28.396  0.00  0.00    +0.011 C 
BRANCH  19  20
ATOM     20  C   UNL     1       3.797  -0.167  28.990  0.00  0.00    +0.001 C 
BRANCH  20  21
ATOM     21  C   UNL     1       3.748   0.884  27.886  0.00  0.00    +0.000 C 
BRANCH  21  22
ATOM     22  C   UNL     1       4.336   0.359  26.584  0.00  0.00    +0.000 C 
BRANCH  22  23
ATOM     23  C   UNL     1       4.691   1.522  25.663  0.00  0.00    +0.000 C 
BRANCH  23  24
ATOM     24  C   UNL     1       3.714   2.676  25.847  0.00  0.00    -0.000 C 
BRANCH  24  25
ATOM     25  C   UNL     1       4.093   3.848  24.949  0.00  0.00    -0.000 C 
BRANCH  25  26
ATOM     26  C   UNL     1       3.545   3.641  23.542  0.00  0.00    -0.000 C 
BRANCH  26  27
ATOM     27  C   UNL     1       4.678   3.591  22.523  0.00  0.00    -0.000 C 
BRANCH  27  28
ATOM     28  C   UNL     1       5.979   4.088  23.143  0.00  0.00    -0.000 C 
BRANCH  28  29
ATOM     29  C   UNL     1       7.120   4.012  22.134  0.00  0.00    -0.000 C 
BRANCH  29  30
ATOM     30  C   UNL     1       8.034   2.830  22.440  0.00  0.00    -0.000 C 
BRANCH  30  31
ATOM     31  C   UNL     1       7.901   2.403  23.899  0.00  0.00    -0.000 C 
BRANCH  31  32
ATOM     32  C   UNL     1       9.232   2.559  24.630  0.00  0.00    -0.000 C 
BRANCH  32  34
ATOM     33  C   UNL     1      10.838   0.627  24.599  0.00  0.00    +0.004 C 
ATOM     34  C   UNL     1      10.363   1.872  23.868  0.00  0.00    -0.003 C 
ENDBRANCH  32  34
ENDBRANCH  31  32
ENDBRANCH  30  31
ENDBRANCH  29  30
ENDBRANCH  28  29
ENDBRANCH  27  28
ENDBRANCH  26  27
ENDBRANCH  25  26
ENDBRANCH  24  25
ENDBRANCH  23  24
ENDBRANCH  22  23
ENDBRANCH  21  22
ENDBRANCH  20  21
ENDBRANCH  19  20
ENDBRANCH  18  19
ENDBRANCH  16  18
ENDBRANCH  15  16
ENDBRANCH  14  15
ENDBRANCH   1  14
BRANCH   1  35
ATOM     35  O   UNL     1       6.019  -5.074  26.163  0.00  0.00    -0.456 OA
BRANCH  35  36
ATOM     36  C   UNL     1       7.124  -5.065  26.951  0.00  0.00    +0.308 C 
ATOM     37  O   UNL     1       7.439  -5.928  27.757  0.00  0.00    -0.251 OA
BRANCH  36  38
ATOM     38  C   UNL     1       7.962  -3.840  26.683  0.00  0.00    +0.120 C 
BRANCH  38  39
ATOM     39  C   UNL     1       7.064  -2.614  26.577  0.00  0.00    +0.011 C 
BRANCH  39  40
ATOM     40  C   UNL     1       7.821  -1.407  26.018  0.00  0.00    +0.001 C 
BRANCH  40  41
ATOM     41  C   UNL     1       8.466  -0.601  27.137  0.00  0.00    +0.000 C 
BRANCH  41  42
ATOM     42  C   UNL     1       7.679   0.679  27.400  0.00  0.00    +0.000 C 
BRANCH  42  43
ATOM     43  C   UNL     1       7.326   0.798  28.876  0.00  0.00    +0.000 C 
BRANCH  43  44
ATOM     44  C   UNL     1       7.086   2.254  29.259  0.00  0.00    -0.000 C 
BRANCH  44  45
ATOM     45  C   UNL     1       6.910   3.116  28.015  0.00  0.00    -0.000 C 
BRANCH  45  46
ATOM     46  C   UNL     1       5.907   4.233  28.274  0.00  0.00    -0.000 C 
BRANCH  46  47
ATOM     47  C   UNL     1       6.306   5.500  27.526  0.00  0.00    -0.000 C 
BRANCH  47  48
ATOM     48  C   UNL     1       7.479   5.229  26.591  0.00  0.00    -0.000 C 
BRANCH  48  49
ATOM     49  C   UNL     1       7.987   6.527  25.972  0.00  0.00    -0.000 C 
BRANCH  49  50
ATOM     50  C   UNL     1       8.630   6.263  24.614  0.00  0.00    -0.000 C 
BRANCH  50  51
ATOM     51  C   UNL     1      10.151   6.224  24.730  0.00  0.00    -0.000 C 
BRANCH  51  52
ATOM     52  C   UNL     1      10.791   5.938  23.374  0.00  0.00    -0.000 C 
BRANCH  52  53
ATOM     53  C   UNL     1      12.040   5.074  23.526  0.00  0.00    -0.003 C 
ATOM     54  C   UNL     1      13.087   5.436  22.487  0.00  0.00    +0.004 C 
ENDBRANCH  52  53
ENDBRANCH  51  52
ENDBRANCH  50  51
ENDBRANCH  49  50
ENDBRANCH  48  49
ENDBRANCH  47  48
ENDBRANCH  46  47
ENDBRANCH  45  46
ENDBRANCH  44  45
ENDBRANCH  43  44
ENDBRANCH  42  43
ENDBRANCH  41  42
ENDBRANCH  40  41
ENDBRANCH  39  40
ENDBRANCH  38  39
ENDBRANCH  36  38
ENDBRANCH  35  36
ENDBRANCH   1  35
TORSDOF 45
ENDMDL
