MODEL 1
REMARK VINA RESULT:      -6.1      0.000      0.000
REMARK  Name = 
REMARK  8 active torsions:
REMARK  status: ('A' for Active; 'I' for Inactive)
REMARK    1  A    between atoms: CA_2  and  C_3
REMARK    2  A    between atoms: CA_2  and  N_5
REMARK    3  A    between atoms: CA_2  and  C_11
REMARK    4  A    between atoms: C_3  and  O_4
REMARK    5  A    between atoms: C_6  and  C_8
REMARK    6  A    between atoms: C_11  and  O_13
REMARK    7  A    between atoms: C_11  and  C_14
REMARK    8  A    between atoms: C_17  and  N_20
REMARK                            x       y       z     vdW  Elec       q    Type
REMARK                         _______ _______ _______ _____ _____    ______ ____
ROOT
ATOM      1  C   UNL     1      10.220   2.119  22.231  0.00  0.00    +0.167 C 
ENDROOT
BRANCH   1   2
ATOM      2  C   UNL     1      10.070   0.670  22.700  0.00  0.00    -0.017 A 
ATOM      3  C   UNL     1      10.167   0.323  24.060  0.00  0.00    +0.013 A 
ATOM      4  C   UNL     1       9.888  -0.970  24.503  0.00  0.00    +0.084 A 
ATOM      5  C   UNL     1       9.544  -1.956  23.575  0.00  0.00    +0.273 A 
ATOM      6  C   UNL     1       9.543  -1.666  22.208  0.00  0.00    +0.084 A 
ATOM      7  C   UNL     1       9.812  -0.361  21.777  0.00  0.00    +0.013 A 
BRANCH   5   8
ATOM      8  N   UNL     1       9.160  -3.294  24.043  0.00  0.00    +0.080 N 
ATOM      9  O   UNL     1       7.962  -3.607  23.965  0.00  0.00    +0.041 OA
ATOM     10  O   UNL     1      10.054  -4.030  24.475  0.00  0.00    -0.576 OA
ENDBRANCH   5   8
ENDBRANCH   1   2
BRANCH   1  11
ATOM     11  O   UNL     1       9.079   2.466  21.430  0.00  0.00    -0.385 OA
ATOM     12  H   UNL     1       8.503   1.685  21.388  0.00  0.00    +0.210 HD
ENDBRANCH   1  11
BRANCH   1  13
ATOM     13  CA  UNL     1      10.305   3.171  23.379  0.00  0.00    +0.131 C 
BRANCH  13  14
ATOM     14  N   UNL     1       9.191   4.133  23.277  0.00  0.00    -0.306 N 
ATOM     15  H   UNL     1       9.192   4.743  22.462  0.00  0.00    +0.149 HD
ATOM     16  C   UNL     1       8.276   4.342  24.281  0.00  0.00    +0.238 C 
ATOM     17  O   UNL     1       8.346   3.706  25.335  0.00  0.00    -0.274 OA
BRANCH  16  18
ATOM     18  C   UNL     1       7.208   5.395  24.043  0.00  0.00    +0.209 C 
ATOM     19 BR   UNL     1       5.467   4.599  24.359  0.00  0.00    -0.066 Br
ATOM     20 BR   UNL     1       7.431   6.085  22.246  0.00  0.00    -0.066 Br
ENDBRANCH  16  18
ENDBRANCH  13  14
BRANCH  13  21
ATOM     21  C   UNL     1      11.655   3.917  23.372  0.00  0.00    +0.181 C 
BRANCH  21  22
ATOM     22  O   UNL     1      11.573   5.190  22.724  0.00  0.00    -0.393 OA
ATOM     23  H   UNL     1      12.448   5.401  22.333  0.00  0.00    +0.209 HD
ENDBRANCH  21  22
ENDBRANCH  13  21
ENDBRANCH   1  13
TORSDOF 8
ENDMDL
MODEL 2
REMARK VINA RESULT:      -6.1      4.020      7.293
REMARK  Name = 
REMARK  8 active torsions:
REMARK  status: ('A' for Active; 'I' for Inactive)
REMARK    1  A    between atoms: CA_2  and  C_3
REMARK    2  A    between atoms: CA_2  and  N_5
REMARK    3  A    between atoms: CA_2  and  C_11
REMARK    4  A    between atoms: C_3  and  O_4
REMARK    5  A    between atoms: C_6  and  C_8
REMARK    6  A    between atoms: C_11  and  O_13
REMARK    7  A    between atoms: C_11  and  C_14
REMARK    8  A    between atoms: C_17  and  N_20
REMARK                            x       y       z     vdW  Elec       q    Type
REMARK                         _______ _______ _______ _____ _____    ______ ____
ROOT
ATOM      1  C   UNL     1       9.306  -1.932  22.785  0.00  0.00    +0.167 C 
ENDROOT
BRANCH   1   2
ATOM      2  C   UNL     1       9.789  -0.489  22.947  0.00  0.00    -0.017 A 
ATOM      3  C   UNL     1       9.794   0.412  21.866  0.00  0.00    +0.013 A 
ATOM      4  C   UNL     1      10.096   1.762  22.045  0.00  0.00    +0.084 A 
ATOM      5  C   UNL     1      10.443   2.226  23.315  0.00  0.00    +0.273 A 
ATOM      6  C   UNL     1      10.549   1.335  24.386  0.00  0.00    +0.084 A 
ATOM      7  C   UNL     1      10.231  -0.015  24.197  0.00  0.00    +0.013 A 
BRANCH   5   8
ATOM      8  N   UNL     1      10.672   3.661  23.528  0.00  0.00    +0.080 N 
ATOM      9  O   UNL     1      11.805   4.104  23.284  0.00  0.00    +0.041 OA
ATOM     10  O   UNL     1       9.720   4.342  23.926  0.00  0.00    -0.576 OA
ENDBRANCH   5   8
ENDBRANCH   1   2
BRANCH   1  11
ATOM     11  O   UNL     1      10.237  -2.807  23.442  0.00  0.00    -0.385 OA
ATOM     12  H   UNL     1       9.849  -3.697  23.446  0.00  0.00    +0.210 HD
ENDBRANCH   1  11
BRANCH   1  13
ATOM     13  CA  UNL     1       7.902  -2.223  23.397  0.00  0.00    +0.131 C 
BRANCH  13  14
ATOM     14  N   UNL     1       7.431  -3.560  22.991  0.00  0.00    -0.306 N 
ATOM     15  H   UNL     1       7.647  -3.847  22.038  0.00  0.00    +0.149 HD
ATOM     16  C   UNL     1       6.603  -4.340  23.763  0.00  0.00    +0.238 C 
ATOM     17  O   UNL     1       6.218  -3.943  24.866  0.00  0.00    -0.274 OA
BRANCH  16  18
ATOM     18  C   UNL     1       6.173  -5.680  23.191  0.00  0.00    +0.209 C 
ATOM     19 BR   UNL     1       6.528  -5.685  21.284  0.00  0.00    -0.066 Br
ATOM     20 BR   UNL     1       4.307  -5.954  23.635  0.00  0.00    -0.066 Br
ENDBRANCH  16  18
ENDBRANCH  13  14
BRANCH  13  21
ATOM     21  C   UNL     1       6.869  -1.151  22.994  0.00  0.00    +0.181 C 
BRANCH  21  22
ATOM     22  O   UNL     1       5.840  -0.987  23.974  0.00  0.00    -0.393 OA
ATOM     23  H   UNL     1       5.669  -0.028  24.095  0.00  0.00    +0.209 HD
ENDBRANCH  21  22
ENDBRANCH  13  21
ENDBRANCH   1  13
TORSDOF 8
ENDMDL
MODEL 3
REMARK VINA RESULT:      -5.8      4.024      7.209
REMARK  Name = 
REMARK  8 active torsions:
REMARK  status: ('A' for Active; 'I' for Inactive)
REMARK    1  A    between atoms: CA_2  and  C_3
REMARK    2  A    between atoms: CA_2  and  N_5
REMARK    3  A    between atoms: CA_2  and  C_11
REMARK    4  A    between atoms: C_3  and  O_4
REMARK    5  A    between atoms: C_6  and  C_8
REMARK    6  A    between atoms: C_11  and  O_13
REMARK    7  A    between atoms: C_11  and  C_14
REMARK    8  A    between atoms: C_17  and  N_20
REMARK                            x       y       z     vdW  Elec       q    Type
REMARK                         _______ _______ _______ _____ _____    ______ ____
ROOT
ATOM      1  C   UNL     1       9.369  -1.785  22.523  0.00  0.00    +0.167 C 
ENDROOT
BRANCH   1   2
ATOM      2  C   UNL     1       9.629  -0.305  22.813  0.00  0.00    -0.017 A 
ATOM      3  C   UNL     1      10.008   0.139  24.094  0.00  0.00    +0.013 A 
ATOM      4  C   UNL     1      10.385   1.462  24.324  0.00  0.00    +0.084 A 
ATOM      5  C   UNL     1      10.346   2.381  23.273  0.00  0.00    +0.273 A 
ATOM      6  C   UNL     1       9.873   1.993  22.016  0.00  0.00    +0.084 A 
ATOM      7  C   UNL     1       9.511   0.659  21.794  0.00  0.00    +0.013 A 
BRANCH   5   8
ATOM      8  N   UNL     1      10.828   3.751  23.486  0.00  0.00    +0.080 N 
ATOM      9  O   UNL     1      12.044   3.959  23.357  0.00  0.00    +0.041 OA
ATOM     10  O   UNL     1       9.992   4.617  23.769  0.00  0.00    -0.576 OA
ENDBRANCH   5   8
ENDBRANCH   1   2
BRANCH   1  11
ATOM     11  O   UNL     1      10.434  -2.561  23.096  0.00  0.00    -0.385 OA
ATOM     12  H   UNL     1      10.031  -3.232  23.671  0.00  0.00    +0.210 HD
ENDBRANCH   1  11
BRANCH   1  13
ATOM     13  CA  UNL     1       8.037  -2.341  23.112  0.00  0.00    +0.131 C 
BRANCH  13  14
ATOM     14  N   UNL     1       8.302  -3.515  23.964  0.00  0.00    -0.306 N 
ATOM     15  H   UNL     1       9.134  -4.058  23.742  0.00  0.00    +0.149 HD
ATOM     16  C   UNL     1       7.417  -3.984  24.906  0.00  0.00    +0.238 C 
ATOM     17  O   UNL     1       6.338  -3.416  25.089  0.00  0.00    -0.274 OA
BRANCH  16  18
ATOM     18  C   UNL     1       7.817  -5.228  25.680  0.00  0.00    +0.209 C 
ATOM     19 BR   UNL     1       6.846  -5.255  27.360  0.00  0.00    -0.066 Br
ATOM     20 BR   UNL     1       9.743  -5.213  25.896  0.00  0.00    -0.066 Br
ENDBRANCH  16  18
ENDBRANCH  13  14
BRANCH  13  21
ATOM     21  C   UNL     1       7.029  -2.705  22.003  0.00  0.00    +0.181 C 
BRANCH  21  22
ATOM     22  O   UNL     1       5.688  -2.339  22.341  0.00  0.00    -0.393 OA
ATOM     23  H   UNL     1       5.102  -3.111  22.185  0.00  0.00    +0.209 HD
ENDBRANCH  21  22
ENDBRANCH  13  21
ENDBRANCH   1  13
TORSDOF 8
ENDMDL
MODEL 4
REMARK VINA RESULT:      -5.7      2.931      3.931
REMARK  Name = 
REMARK  8 active torsions:
REMARK  status: ('A' for Active; 'I' for Inactive)
REMARK    1  A    between atoms: CA_2  and  C_3
REMARK    2  A    between atoms: CA_2  and  N_5
REMARK    3  A    between atoms: CA_2  and  C_11
REMARK    4  A    between atoms: C_3  and  O_4
REMARK    5  A    between atoms: C_6  and  C_8
REMARK    6  A    between atoms: C_11  and  O_13
REMARK    7  A    between atoms: C_11  and  C_14
REMARK    8  A    between atoms: C_17  and  N_20
REMARK                            x       y       z     vdW  Elec       q    Type
REMARK                         _______ _______ _______ _____ _____    ______ ____
ROOT
ATOM      1  C   UNL     1      10.173  -1.407  22.809  0.00  0.00    +0.167 C 
ENDROOT
BRANCH   1   2
ATOM      2  C   UNL     1       9.193  -2.357  23.504  0.00  0.00    -0.017 A 
ATOM      3  C   UNL     1       8.073  -2.879  22.831  0.00  0.00    +0.013 A 
ATOM      4  C   UNL     1       7.263  -3.853  23.414  0.00  0.00    +0.084 A 
ATOM      5  C   UNL     1       7.541  -4.293  24.710  0.00  0.00    +0.273 A 
ATOM      6  C   UNL     1       8.582  -3.716  25.441  0.00  0.00    +0.084 A 
ATOM      7  C   UNL     1       9.397  -2.749  24.840  0.00  0.00    +0.013 A 
BRANCH   5   8
ATOM      8  N   UNL     1       6.748  -5.383  25.294  0.00  0.00    +0.080 N 
ATOM      9  O   UNL     1       7.143  -5.868  26.366  0.00  0.00    +0.041 OA
ATOM     10  O   UNL     1       5.731  -5.741  24.690  0.00  0.00    -0.576 OA
ENDBRANCH   5   8
ENDBRANCH   1   2
BRANCH   1  11
ATOM     11  O   UNL     1      10.150  -1.672  21.398  0.00  0.00    -0.385 OA
ATOM     12  H   UNL     1       9.290  -1.374  21.058  0.00  0.00    +0.210 HD
ENDBRANCH   1  11
BRANCH   1  13
ATOM     13  CA  UNL     1       9.853   0.108  22.991  0.00  0.00    +0.131 C 
BRANCH  13  14
ATOM     14  N   UNL     1       8.766   0.289  23.971  0.00  0.00    -0.306 N 
ATOM     15  H   UNL     1       8.032  -0.416  23.970  0.00  0.00    +0.149 HD
ATOM     16  C   UNL     1       8.623   1.416  24.745  0.00  0.00    +0.238 C 
ATOM     17  O   UNL     1       9.431   2.344  24.656  0.00  0.00    -0.274 OA
BRANCH  16  18
ATOM     18  C   UNL     1       7.429   1.472  25.682  0.00  0.00    +0.209 C 
ATOM     19 BR   UNL     1       7.542  -0.014  26.924  0.00  0.00    -0.066 Br
ATOM     20 BR   UNL     1       5.817   1.465  24.607  0.00  0.00    -0.066 Br
ENDBRANCH  16  18
ENDBRANCH  13  14
BRANCH  13  21
ATOM     21  C   UNL     1       9.481   0.778  21.653  0.00  0.00    +0.181 C 
BRANCH  21  22
ATOM     22  O   UNL     1       9.976   2.117  21.556  0.00  0.00    -0.393 OA
ATOM     23  H   UNL     1       9.940   2.532  22.444  0.00  0.00    +0.209 HD
ENDBRANCH  21  22
ENDBRANCH  13  21
ENDBRANCH   1  13
TORSDOF 8
ENDMDL
MODEL 5
REMARK VINA RESULT:      -5.7      1.411      1.773
REMARK  Name = 
REMARK  8 active torsions:
REMARK  status: ('A' for Active; 'I' for Inactive)
REMARK    1  A    between atoms: CA_2  and  C_3
REMARK    2  A    between atoms: CA_2  and  N_5
REMARK    3  A    between atoms: CA_2  and  C_11
REMARK    4  A    between atoms: C_3  and  O_4
REMARK    5  A    between atoms: C_6  and  C_8
REMARK    6  A    between atoms: C_11  and  O_13
REMARK    7  A    between atoms: C_11  and  C_14
REMARK    8  A    between atoms: C_17  and  N_20
REMARK                            x       y       z     vdW  Elec       q    Type
REMARK                         _______ _______ _______ _____ _____    ______ ____
ROOT
ATOM      1  C   UNL     1      10.353   1.879  22.707  0.00  0.00    +0.167 C 
ENDROOT
BRANCH   1   2
ATOM      2  C   UNL     1      10.038   0.398  22.929  0.00  0.00    -0.017 A 
ATOM      3  C   UNL     1      10.142  -0.194  24.202  0.00  0.00    +0.013 A 
ATOM      4  C   UNL     1       9.719  -1.503  24.433  0.00  0.00    +0.084 A 
ATOM      5  C   UNL     1       9.220  -2.261  23.372  0.00  0.00    +0.273 A 
ATOM      6  C   UNL     1       9.204  -1.736  22.077  0.00  0.00    +0.084 A 
ATOM      7  C   UNL     1       9.619  -0.417  21.860  0.00  0.00    +0.013 A 
BRANCH   5   8
ATOM      8  N   UNL     1       8.688  -3.606  23.626  0.00  0.00    +0.080 N 
ATOM      9  O   UNL     1       9.344  -4.353  24.367  0.00  0.00    +0.041 OA
ATOM     10  O   UNL     1       7.613  -3.909  23.094  0.00  0.00    -0.576 OA
ENDBRANCH   5   8
ENDBRANCH   1   2
BRANCH   1  11
ATOM     11  O   UNL     1       9.818   2.278  21.435  0.00  0.00    -0.385 OA
ATOM     12  H   UNL     1      10.395   1.911  20.746  0.00  0.00    +0.210 HD
ENDBRANCH   1  11
BRANCH   1  13
ATOM     13  CA  UNL     1       9.749   2.841  23.775  0.00  0.00    +0.131 C 
BRANCH  13  14
ATOM     14  N   UNL     1       8.281   2.900  23.642  0.00  0.00    -0.306 N 
ATOM     15  H   UNL     1       7.918   3.386  22.824  0.00  0.00    +0.149 HD
ATOM     16  C   UNL     1       7.414   2.482  24.624  0.00  0.00    +0.238 C 
ATOM     17  O   UNL     1       7.842   2.018  25.683  0.00  0.00    -0.274 OA
BRANCH  16  18
ATOM     18  C   UNL     1       5.927   2.641  24.355  0.00  0.00    +0.209 C 
ATOM     19 BR   UNL     1       5.688   3.281  22.538  0.00  0.00    -0.066 Br
ATOM     20 BR   UNL     1       5.194   3.828  25.699  0.00  0.00    -0.066 Br
ENDBRANCH  16  18
ENDBRANCH  13  14
BRANCH  13  21
ATOM     21  C   UNL     1      10.348   4.259  23.672  0.00  0.00    +0.181 C 
BRANCH  21  22
ATOM     22  O   UNL     1      11.547   4.290  22.892  0.00  0.00    -0.393 OA
ATOM     23  H   UNL     1      12.272   3.883  23.412  0.00  0.00    +0.209 HD
ENDBRANCH  21  22
ENDBRANCH  13  21
ENDBRANCH   1  13
TORSDOF 8
ENDMDL
MODEL 6
REMARK VINA RESULT:      -5.6      4.603      6.946
REMARK  Name = 
REMARK  8 active torsions:
REMARK  status: ('A' for Active; 'I' for Inactive)
REMARK    1  A    between atoms: CA_2  and  C_3
REMARK    2  A    between atoms: CA_2  and  N_5
REMARK    3  A    between atoms: CA_2  and  C_11
REMARK    4  A    between atoms: C_3  and  O_4
REMARK    5  A    between atoms: C_6  and  C_8
REMARK    6  A    between atoms: C_11  and  O_13
REMARK    7  A    between atoms: C_11  and  C_14
REMARK    8  A    between atoms: C_17  and  N_20
REMARK                            x       y       z     vdW  Elec       q    Type
REMARK                         _______ _______ _______ _____ _____    ______ ____
ROOT
ATOM      1  C   UNL     1       7.801  -4.451  23.087  0.00  0.00    +0.167 C 
ENDROOT
BRANCH   1   2
ATOM      2  C   UNL     1       7.398  -4.998  24.459  0.00  0.00    -0.017 A 
ATOM      3  C   UNL     1       8.271  -4.937  25.561  0.00  0.00    +0.013 A 
ATOM      4  C   UNL     1       7.854  -5.302  26.841  0.00  0.00    +0.084 A 
ATOM      5  C   UNL     1       6.555  -5.778  27.031  0.00  0.00    +0.273 A 
ATOM      6  C   UNL     1       5.701  -5.950  25.938  0.00  0.00    +0.084 A 
ATOM      7  C   UNL     1       6.126  -5.568  24.661  0.00  0.00    +0.013 A 
BRANCH   5   8
ATOM      8  N   UNL     1       6.081  -6.077  28.388  0.00  0.00    +0.080 N 
ATOM      9  O   UNL     1       6.085  -5.151  29.214  0.00  0.00    +0.041 OA
ATOM     10  O   UNL     1       5.696  -7.228  28.622  0.00  0.00    -0.576 OA
ENDBRANCH   5   8
ENDBRANCH   1   2
BRANCH   1  11
ATOM     11  O   UNL     1       7.281  -5.325  22.072  0.00  0.00    -0.385 OA
ATOM     12  H   UNL     1       6.830  -4.773  21.413  0.00  0.00    +0.210 HD
ENDBRANCH   1  11
BRANCH   1  13
ATOM     13  CA  UNL     1       7.265  -3.021  22.772  0.00  0.00    +0.131 C 
BRANCH  13  14
ATOM     14  N   UNL     1       7.642  -2.083  23.845  0.00  0.00    -0.306 N 
ATOM     15  H   UNL     1       7.071  -2.105  24.688  0.00  0.00    +0.149 HD
ATOM     16  C   UNL     1       8.595  -1.104  23.696  0.00  0.00    +0.238 C 
ATOM     17  O   UNL     1       9.199  -0.974  22.628  0.00  0.00    -0.274 OA
BRANCH  16  18
ATOM     18  C   UNL     1       8.846  -0.189  24.882  0.00  0.00    +0.209 C 
ATOM     19 BR   UNL     1      10.642   0.531  24.744  0.00  0.00    -0.066 Br
ATOM     20 BR   UNL     1       8.538  -1.204  26.504  0.00  0.00    -0.066 Br
ENDBRANCH  16  18
ENDBRANCH  13  14
BRANCH  13  21
ATOM     21  C   UNL     1       5.735  -3.015  22.572  0.00  0.00    +0.181 C 
BRANCH  21  22
ATOM     22  O   UNL     1       5.353  -3.441  21.261  0.00  0.00    -0.393 OA
ATOM     23  H   UNL     1       5.872  -4.240  21.026  0.00  0.00    +0.209 HD
ENDBRANCH  21  22
ENDBRANCH  13  21
ENDBRANCH   1  13
TORSDOF 8
ENDMDL
MODEL 7
REMARK VINA RESULT:      -5.6      4.810      8.097
REMARK  Name = 
REMARK  8 active torsions:
REMARK  status: ('A' for Active; 'I' for Inactive)
REMARK    1  A    between atoms: CA_2  and  C_3
REMARK    2  A    between atoms: CA_2  and  N_5
REMARK    3  A    between atoms: CA_2  and  C_11
REMARK    4  A    between atoms: C_3  and  O_4
REMARK    5  A    between atoms: C_6  and  C_8
REMARK    6  A    between atoms: C_11  and  O_13
REMARK    7  A    between atoms: C_11  and  C_14
REMARK    8  A    between atoms: C_17  and  N_20
REMARK                            x       y       z     vdW  Elec       q    Type
REMARK                         _______ _______ _______ _____ _____    ______ ____
ROOT
ATOM      1  C   UNL     1       8.387  -5.185  24.246  0.00  0.00    +0.167 C 
ENDROOT
BRANCH   1   2
ATOM      2  C   UNL     1       8.620  -3.732  23.827  0.00  0.00    -0.017 A 
ATOM      3  C   UNL     1       9.786  -3.037  24.200  0.00  0.00    +0.013 A 
ATOM      4  C   UNL     1      10.066  -1.765  23.700  0.00  0.00    +0.084 A 
ATOM      5  C   UNL     1       9.152  -1.146  22.844  0.00  0.00    +0.273 A 
ATOM      6  C   UNL     1       7.938  -1.768  22.541  0.00  0.00    +0.084 A 
ATOM      7  C   UNL     1       7.674  -3.050  23.038  0.00  0.00    +0.013 A 
BRANCH   5   8
ATOM      8  N   UNL     1       9.483   0.152  22.242  0.00  0.00    +0.080 N 
ATOM      9  O   UNL     1       9.021   0.398  21.117  0.00  0.00    +0.041 OA
ATOM     10  O   UNL     1      10.192   0.925  22.897  0.00  0.00    -0.576 OA
ENDBRANCH   5   8
ENDBRANCH   1   2
BRANCH   1  11
ATOM     11  O   UNL     1       9.660  -5.814  24.459  0.00  0.00    -0.385 OA
ATOM     12  H   UNL     1       9.625  -6.264  25.319  0.00  0.00    +0.210 HD
ENDBRANCH   1  11
BRANCH   1  13
ATOM     13  CA  UNL     1       7.569  -5.362  25.561  0.00  0.00    +0.131 C 
BRANCH  13  14
ATOM     14  N   UNL     1       6.126  -5.218  25.292  0.00  0.00    -0.306 N 
ATOM     15  H   UNL     1       5.850  -4.436  24.702  0.00  0.00    +0.149 HD
ATOM     16  C   UNL     1       5.160  -5.971  25.916  0.00  0.00    +0.238 C 
ATOM     17  O   UNL     1       5.472  -6.832  26.742  0.00  0.00    -0.274 OA
BRANCH  16  18
ATOM     18  C   UNL     1       3.712  -5.680  25.561  0.00  0.00    +0.209 C 
ATOM     19 BR   UNL     1       2.883  -7.319  24.935  0.00  0.00    -0.066 Br
ATOM     20 BR   UNL     1       3.686  -4.249  24.255  0.00  0.00    -0.066 Br
ENDBRANCH  16  18
ENDBRANCH  13  14
BRANCH  13  21
ATOM     21  C   UNL     1       8.010  -4.359  26.648  0.00  0.00    +0.181 C 
BRANCH  21  22
ATOM     22  O   UNL     1       9.297  -4.671  27.189  0.00  0.00    -0.393 OA
ATOM     23  H   UNL     1       9.198  -4.864  28.146  0.00  0.00    +0.209 HD
ENDBRANCH  21  22
ENDBRANCH  13  21
ENDBRANCH   1  13
TORSDOF 8
ENDMDL
MODEL 8
REMARK VINA RESULT:      -5.6      2.308      6.018
REMARK  Name = 
REMARK  8 active torsions:
REMARK  status: ('A' for Active; 'I' for Inactive)
REMARK    1  A    between atoms: CA_2  and  C_3
REMARK    2  A    between atoms: CA_2  and  N_5
REMARK    3  A    between atoms: CA_2  and  C_11
REMARK    4  A    between atoms: C_3  and  O_4
REMARK    5  A    between atoms: C_6  and  C_8
REMARK    6  A    between atoms: C_11  and  O_13
REMARK    7  A    between atoms: C_11  and  C_14
REMARK    8  A    between atoms: C_17  and  N_20
REMARK                            x       y       z     vdW  Elec       q    Type
REMARK                         _______ _______ _______ _____ _____    ______ ____
ROOT
ATOM      1  C   UNL     1       9.599  -1.928  22.731  0.00  0.00    +0.167 C 
ENDROOT
BRANCH   1   2
ATOM      2  C   UNL     1       9.968  -0.451  22.889  0.00  0.00    -0.017 A 
ATOM      3  C   UNL     1       9.738   0.479  21.858  0.00  0.00    +0.013 A 
ATOM      4  C   UNL     1       9.939   1.846  22.054  0.00  0.00    +0.084 A 
ATOM      5  C   UNL     1      10.417   2.302  23.284  0.00  0.00    +0.273 A 
ATOM      6  C   UNL     1      10.754   1.392  24.290  0.00  0.00    +0.084 A 
ATOM      7  C   UNL     1      10.536   0.024  24.086  0.00  0.00    +0.013 A 
BRANCH   5   8
ATOM      8  N   UNL     1      10.543   3.745  23.527  0.00  0.00    +0.080 N 
ATOM      9  O   UNL     1      11.653   4.265  23.334  0.00  0.00    +0.041 OA
ATOM     10  O   UNL     1       9.534   4.355  23.897  0.00  0.00    -0.576 OA
ENDBRANCH   5   8
ENDBRANCH   1   2
BRANCH   1  11
ATOM     11  O   UNL     1      10.687  -2.729  23.220  0.00  0.00    -0.385 OA
ATOM     12  H   UNL     1      10.325  -3.597  23.463  0.00  0.00    +0.210 HD
ENDBRANCH   1  11
BRANCH   1  13
ATOM     13  CA  UNL     1       8.324  -2.371  23.511  0.00  0.00    +0.131 C 
BRANCH  13  14
ATOM     14  N   UNL     1       7.663  -1.201  24.119  0.00  0.00    -0.306 N 
ATOM     15  H   UNL     1       8.272  -0.500  24.535  0.00  0.00    +0.149 HD
ATOM     16  C   UNL     1       6.301  -1.101  24.284  0.00  0.00    +0.238 C 
ATOM     17  O   UNL     1       5.556  -2.009  23.908  0.00  0.00    -0.274 OA
BRANCH  16  18
ATOM     18  C   UNL     1       5.771   0.151  24.961  0.00  0.00    +0.209 C 
ATOM     19 BR   UNL     1       6.653   1.698  24.190  0.00  0.00    -0.066 Br
ATOM     20 BR   UNL     1       6.052  -0.031  26.870  0.00  0.00    -0.066 Br
ENDBRANCH  16  18
ENDBRANCH  13  14
BRANCH  13  21
ATOM     21  C   UNL     1       8.652  -3.418  24.595  0.00  0.00    +0.181 C 
BRANCH  21  22
ATOM     22  O   UNL     1       8.778  -4.738  24.059  0.00  0.00    -0.393 OA
ATOM     23  H   UNL     1       9.162  -4.677  23.158  0.00  0.00    +0.209 HD
ENDBRANCH  21  22
ENDBRANCH  13  21
ENDBRANCH   1  13
TORSDOF 8
ENDMDL
MODEL 9
REMARK VINA RESULT:      -5.6      3.859      7.167
REMARK  Name = 
REMARK  8 active torsions:
REMARK  status: ('A' for Active; 'I' for Inactive)
REMARK    1  A    between atoms: CA_2  and  C_3
REMARK    2  A    between atoms: CA_2  and  N_5
REMARK    3  A    between atoms: CA_2  and  C_11
REMARK    4  A    between atoms: C_3  and  O_4
REMARK    5  A    between atoms: C_6  and  C_8
REMARK    6  A    between atoms: C_11  and  O_13
REMARK    7  A    between atoms: C_11  and  C_14
REMARK    8  A    between atoms: C_17  and  N_20
REMARK                            x       y       z     vdW  Elec       q    Type
REMARK                         _______ _______ _______ _____ _____    ______ ____
ROOT
ATOM      1  C   UNL     1       9.612  -0.490  24.380  0.00  0.00    +0.167 C 
ENDROOT
BRANCH   1   2
ATOM      2  C   UNL     1       9.646   1.039  24.305  0.00  0.00    -0.017 A 
ATOM      3  C   UNL     1      10.704   1.722  23.676  0.00  0.00    +0.013 A 
ATOM      4  C   UNL     1      10.664   3.103  23.481  0.00  0.00    +0.084 A 
ATOM      5  C   UNL     1       9.573   3.833  23.956  0.00  0.00    +0.273 A 
ATOM      6  C   UNL     1       8.560   3.197  24.678  0.00  0.00    +0.084 A 
ATOM      7  C   UNL     1       8.604   1.809  24.855  0.00  0.00    +0.013 A 
BRANCH   5   8
ATOM      8  N   UNL     1       9.482   5.272  23.674  0.00  0.00    +0.080 N 
ATOM      9  O   UNL     1       8.373   5.723  23.347  0.00  0.00    +0.041 OA
ATOM     10  O   UNL     1      10.511   5.946  23.790  0.00  0.00    -0.576 OA
ENDBRANCH   5   8
ENDBRANCH   1   2
BRANCH   1  11
ATOM     11  O   UNL     1       9.085  -0.877  25.659  0.00  0.00    -0.385 OA
ATOM     12  H   UNL     1       9.833  -0.948  26.275  0.00  0.00    +0.210 HD
ENDBRANCH   1  11
BRANCH   1  13
ATOM     13  CA  UNL     1       8.725  -1.176  23.297  0.00  0.00    +0.131 C 
BRANCH  13  14
ATOM     14  N   UNL     1       8.619  -2.623  23.563  0.00  0.00    -0.306 N 
ATOM     15  H   UNL     1       9.455  -3.082  23.915  0.00  0.00    +0.149 HD
ATOM     16  C   UNL     1       7.526  -3.380  23.211  0.00  0.00    +0.238 C 
ATOM     17  O   UNL     1       6.556  -2.860  22.653  0.00  0.00    -0.274 OA
BRANCH  16  18
ATOM     18  C   UNL     1       7.580  -4.867  23.517  0.00  0.00    +0.209 C 
ATOM     19 BR   UNL     1       7.007  -5.847  21.943  0.00  0.00    -0.066 Br
ATOM     20 BR   UNL     1       6.487  -5.202  25.082  0.00  0.00    -0.066 Br
ENDBRANCH  16  18
ENDBRANCH  13  14
BRANCH  13  21
ATOM     21  C   UNL     1       9.268  -0.935  21.874  0.00  0.00    +0.181 C 
BRANCH  21  22
ATOM     22  O   UNL     1      10.514  -1.600  21.645  0.00  0.00    -0.393 OA
ATOM     23  H   UNL     1      10.845  -1.953  22.498  0.00  0.00    +0.209 HD
ENDBRANCH  21  22
ENDBRANCH  13  21
ENDBRANCH   1  13
TORSDOF 8
ENDMDL
