MODEL 1
REMARK VINA RESULT:      -6.5      0.000      0.000
REMARK  Name = 
REMARK  7 active torsions:
REMARK  status: ('A' for Active; 'I' for Inactive)
REMARK    1  A    between atoms: C_1  and  C_2
REMARK    2  A    between atoms: C_2  and  O_4
REMARK    3  A    between atoms: C_2  and  C_5
REMARK    4  A    between atoms: C_8  and  N_16
REMARK    5  A    between atoms: C_10  and  O_12
REMARK    6  A    between atoms: C_13  and  O_15
REMARK    7  A    between atoms: C_24  and  C_25
REMARK                            x       y       z     vdW  Elec       q    Type
REMARK                         _______ _______ _______ _____ _____    ______ ____
ROOT
ATOM      1  C   UNL     1       6.533  -4.839  23.998  0.00  0.00    +0.180 C 
ATOM      2  C   UNL     1       7.462  -5.327  25.112  0.00  0.00    +0.179 C 
ATOM      3  C   UNL     1       8.713  -4.459  25.018  0.00  0.00    +0.195 C 
ATOM      4  C   UNL     1       8.424  -3.499  23.857  0.00  0.00    +0.253 C 
ATOM      5  O   UNL     1       6.996  -3.509  23.662  0.00  0.00    -0.345 OA
ENDROOT
BRANCH   4   6
ATOM      6  N   UNL     1       8.865  -2.143  24.149  0.00  0.00    -0.286 N 
ATOM      7  C   UNL     1       9.140  -1.189  23.205  0.00  0.00    +0.166 A 
ATOM      8  N   UNL     1       9.019  -1.300  21.869  0.00  0.00    -0.216 NA
ATOM      9  C   UNL     1       9.407  -0.158  21.262  0.00  0.00    +0.223 A 
ATOM     10  N   UNL     1       9.887   0.970  21.829  0.00  0.00    -0.238 NA
ATOM     11  C   UNL     1      10.001   1.022  23.191  0.00  0.00    +0.069 A 
ATOM     12  C   UNL     1      10.565   2.259  23.811  0.00  0.00    +0.068 C 
ATOM     13  C   UNL     1       9.600  -0.098  23.927  0.00  0.00    +0.129 A 
ATOM     14  N   UNL     1       9.579  -0.363  25.278  0.00  0.00    -0.232 NA
ATOM     15  C   UNL     1       9.116  -1.592  25.376  0.00  0.00    +0.203 A 
ENDBRANCH   4   6
BRANCH   1  17
ATOM     16  C   UNL     1       6.246  -4.925  21.466  0.00  0.00    +0.040 C 
ATOM     17  C   UNL     1       6.510  -5.727  22.735  0.00  0.00    +0.143 C 
BRANCH  17  18
ATOM     18  O   UNL     1       5.517  -6.744  22.852  0.00  0.00    -0.389 OA
ATOM     19  H   UNL     1       5.871  -7.440  23.435  0.00  0.00    +0.210 HD
ENDBRANCH  17  18
ENDBRANCH   1  17
BRANCH   2  20
ATOM     20  O   UNL     1       6.821  -5.106  26.383  0.00  0.00    -0.386 OA
ATOM     21  H   UNL     1       6.838  -5.940  26.887  0.00  0.00    +0.210 HD
ENDBRANCH   2  20
BRANCH   3  22
ATOM     22  O   UNL     1       9.886  -5.245  24.794  0.00  0.00    -0.385 OA
ATOM     23  H   UNL     1      10.557  -4.640  24.417  0.00  0.00    +0.210 HD
ENDBRANCH   3  22
TORSDOF 5
ENDMDL
MODEL 2
REMARK VINA RESULT:      -6.5      1.777      2.682
REMARK  Name = 
REMARK  7 active torsions:
REMARK  status: ('A' for Active; 'I' for Inactive)
REMARK    1  A    between atoms: C_1  and  C_2
REMARK    2  A    between atoms: C_2  and  O_4
REMARK    3  A    between atoms: C_2  and  C_5
REMARK    4  A    between atoms: C_8  and  N_16
REMARK    5  A    between atoms: C_10  and  O_12
REMARK    6  A    between atoms: C_13  and  O_15
REMARK    7  A    between atoms: C_24  and  C_25
REMARK                            x       y       z     vdW  Elec       q    Type
REMARK                         _______ _______ _______ _____ _____    ______ ____
ROOT
ATOM      1  C   UNL     1       8.587  -4.765  26.678  0.00  0.00    +0.180 C 
ATOM      2  C   UNL     1       9.121  -5.222  25.319  0.00  0.00    +0.179 C 
ATOM      3  C   UNL     1       8.850  -4.068  24.358  0.00  0.00    +0.195 C 
ATOM      4  C   UNL     1       8.186  -2.995  25.230  0.00  0.00    +0.253 C 
ATOM      5  O   UNL     1       8.504  -3.322  26.597  0.00  0.00    -0.345 OA
ENDROOT
BRANCH   4   6
ATOM      6  N   UNL     1       8.680  -1.661  24.922  0.00  0.00    -0.286 N 
ATOM      7  C   UNL     1       8.901  -1.180  23.658  0.00  0.00    +0.166 A 
ATOM      8  N   UNL     1       8.674  -1.810  22.491  0.00  0.00    -0.216 NA
ATOM      9  C   UNL     1       9.040  -1.029  21.451  0.00  0.00    +0.223 A 
ATOM     10  N   UNL     1       9.588   0.204  21.485  0.00  0.00    -0.238 NA
ATOM     11  C   UNL     1       9.809   0.792  22.699  0.00  0.00    +0.069 A 
ATOM     12  C   UNL     1      10.449   2.142  22.731  0.00  0.00    +0.068 C 
ATOM     13  C   UNL     1       9.441   0.083  23.848  0.00  0.00    +0.129 A 
ATOM     14  N   UNL     1       9.521   0.382  25.190  0.00  0.00    -0.232 NA
ATOM     15  C   UNL     1       9.038  -0.678  25.804  0.00  0.00    +0.203 A 
ENDBRANCH   4   6
BRANCH   1  17
ATOM     16  C   UNL     1       6.240  -4.285  27.553  0.00  0.00    +0.040 C 
ATOM     17  C   UNL     1       7.213  -5.353  27.067  0.00  0.00    +0.143 C 
BRANCH  17  18
ATOM     18  O   UNL     1       7.358  -6.342  28.085  0.00  0.00    -0.389 OA
ATOM     19  H   UNL     1       6.494  -6.448  28.522  0.00  0.00    +0.210 HD
ENDBRANCH  17  18
ENDBRANCH   1  17
BRANCH   2  20
ATOM     20  O   UNL     1      10.543  -5.432  25.424  0.00  0.00    -0.386 OA
ATOM     21  H   UNL     1      10.722  -5.921  26.247  0.00  0.00    +0.210 HD
ENDBRANCH   2  20
BRANCH   3  22
ATOM     22  O   UNL     1       8.021  -4.472  23.267  0.00  0.00    -0.385 OA
ATOM     23  H   UNL     1       8.578  -5.031  22.686  0.00  0.00    +0.210 HD
ENDBRANCH   3  22
TORSDOF 5
ENDMDL
MODEL 3
REMARK VINA RESULT:      -6.4      2.874      6.378
REMARK  Name = 
REMARK  7 active torsions:
REMARK  status: ('A' for Active; 'I' for Inactive)
REMARK    1  A    between atoms: C_1  and  C_2
REMARK    2  A    between atoms: C_2  and  O_4
REMARK    3  A    between atoms: C_2  and  C_5
REMARK    4  A    between atoms: C_8  and  N_16
REMARK    5  A    between atoms: C_10  and  O_12
REMARK    6  A    between atoms: C_13  and  O_15
REMARK    7  A    between atoms: C_24  and  C_25
REMARK                            x       y       z     vdW  Elec       q    Type
REMARK                         _______ _______ _______ _____ _____    ______ ____
ROOT
ATOM      1  C   UNL     1       9.195  -0.256  23.288  0.00  0.00    +0.180 C 
ATOM      2  C   UNL     1      10.051  -1.466  22.909  0.00  0.00    +0.179 C 
ATOM      3  C   UNL     1       9.255  -2.691  23.348  0.00  0.00    +0.195 C 
ATOM      4  C   UNL     1       7.965  -2.114  23.943  0.00  0.00    +0.253 C 
ATOM      5  O   UNL     1       7.848  -0.767  23.442  0.00  0.00    -0.345 OA
ENDROOT
BRANCH   4   6
ATOM      6  N   UNL     1       6.792  -2.881  23.550  0.00  0.00    -0.286 N 
ATOM      7  C   UNL     1       6.305  -3.968  24.227  0.00  0.00    +0.166 A 
ATOM      8  N   UNL     1       6.773  -4.496  25.373  0.00  0.00    -0.216 NA
ATOM      9  C   UNL     1       6.050  -5.582  25.725  0.00  0.00    +0.223 A 
ATOM     10  N   UNL     1       5.012  -6.143  25.069  0.00  0.00    -0.238 NA
ATOM     11  C   UNL     1       4.586  -5.571  23.902  0.00  0.00    +0.069 A 
ATOM     12  C   UNL     1       3.460  -6.217  23.163  0.00  0.00    +0.068 C 
ATOM     13  C   UNL     1       5.247  -4.422  23.455  0.00  0.00    +0.129 A 
ATOM     14  N   UNL     1       5.069  -3.618  22.351  0.00  0.00    -0.232 NA
ATOM     15  C   UNL     1       6.001  -2.694  22.449  0.00  0.00    +0.203 A 
ENDBRANCH   4   6
BRANCH   1  17
ATOM     16  C   UNL     1       9.286   1.959  24.548  0.00  0.00    +0.040 C 
ATOM     17  C   UNL     1       9.635   0.475  24.575  0.00  0.00    +0.143 C 
BRANCH  17  18
ATOM     18  O   UNL     1      11.040   0.335  24.779  0.00  0.00    -0.389 OA
ATOM     19  H   UNL     1      11.191   0.220  25.734  0.00  0.00    +0.210 HD
ENDBRANCH  17  18
ENDBRANCH   1  17
BRANCH   2  20
ATOM     20  O   UNL     1      10.216  -1.491  21.478  0.00  0.00    -0.386 OA
ATOM     21  H   UNL     1      11.082  -1.102  21.260  0.00  0.00    +0.210 HD
ENDBRANCH   2  20
BRANCH   3  22
ATOM     22  O   UNL     1       9.981  -3.484  24.291  0.00  0.00    -0.385 OA
ATOM     23  H   UNL     1      10.733  -2.935  24.595  0.00  0.00    +0.210 HD
ENDBRANCH   3  22
TORSDOF 5
ENDMDL
MODEL 4
REMARK VINA RESULT:      -6.4      3.222      6.082
REMARK  Name = 
REMARK  7 active torsions:
REMARK  status: ('A' for Active; 'I' for Inactive)
REMARK    1  A    between atoms: C_1  and  C_2
REMARK    2  A    between atoms: C_2  and  O_4
REMARK    3  A    between atoms: C_2  and  C_5
REMARK    4  A    between atoms: C_8  and  N_16
REMARK    5  A    between atoms: C_10  and  O_12
REMARK    6  A    between atoms: C_13  and  O_15
REMARK    7  A    between atoms: C_24  and  C_25
REMARK                            x       y       z     vdW  Elec       q    Type
REMARK                         _______ _______ _______ _____ _____    ______ ____
ROOT
ATOM      1  C   UNL     1       8.801   0.473  21.913  0.00  0.00    +0.180 C 
ATOM      2  C   UNL     1       9.758  -0.595  22.446  0.00  0.00    +0.179 C 
ATOM      3  C   UNL     1       9.044  -1.236  23.632  0.00  0.00    +0.195 C 
ATOM      4  C   UNL     1       7.696  -0.506  23.704  0.00  0.00    +0.253 C 
ATOM      5  O   UNL     1       7.494   0.110  22.418  0.00  0.00    -0.345 OA
ENDROOT
BRANCH   4   6
ATOM      6  N   UNL     1       6.597  -1.418  23.984  0.00  0.00    -0.286 N 
ATOM      7  C   UNL     1       6.288  -2.525  23.237  0.00  0.00    +0.166 A 
ATOM      8  N   UNL     1       6.943  -2.994  22.159  0.00  0.00    -0.216 NA
ATOM      9  C   UNL     1       6.327  -4.093  21.672  0.00  0.00    +0.223 A 
ATOM     10  N   UNL     1       5.201  -4.687  22.119  0.00  0.00    -0.238 NA
ATOM     11  C   UNL     1       4.569  -4.160  23.211  0.00  0.00    +0.069 A 
ATOM     12  C   UNL     1       3.303  -4.801  23.679  0.00  0.00    +0.068 C 
ATOM     13  C   UNL     1       5.136  -3.033  23.817  0.00  0.00    +0.129 A 
ATOM     14  N   UNL     1       4.764  -2.279  24.907  0.00  0.00    -0.232 NA
ATOM     15  C   UNL     1       5.673  -1.330  24.990  0.00  0.00    +0.203 A 
ENDBRANCH   4   6
BRANCH   1  17
ATOM     16  C   UNL     1       7.978   2.878  22.122  0.00  0.00    +0.040 C 
ATOM     17  C   UNL     1       9.147   1.920  22.328  0.00  0.00    +0.143 C 
BRANCH  17  18
ATOM     18  O   UNL     1      10.271   2.401  21.593  0.00  0.00    -0.389 OA
ATOM     19  H   UNL     1      11.063   2.276  22.147  0.00  0.00    +0.210 HD
ENDBRANCH  17  18
ENDBRANCH   1  17
BRANCH   2  20
ATOM     20  O   UNL     1       9.966  -1.587  21.421  0.00  0.00    -0.386 OA
ATOM     21  H   UNL     1      10.087  -2.453  21.850  0.00  0.00    +0.210 HD
ENDBRANCH   2  20
BRANCH   3  22
ATOM     22  O   UNL     1       9.799  -1.103  24.838  0.00  0.00    -0.385 OA
ATOM     23  H   UNL     1      10.459  -0.398  24.677  0.00  0.00    +0.210 HD
ENDBRANCH   3  22
TORSDOF 5
ENDMDL
MODEL 5
REMARK VINA RESULT:      -6.3      1.769      2.873
REMARK  Name = 
REMARK  7 active torsions:
REMARK  status: ('A' for Active; 'I' for Inactive)
REMARK    1  A    between atoms: C_1  and  C_2
REMARK    2  A    between atoms: C_2  and  O_4
REMARK    3  A    between atoms: C_2  and  C_5
REMARK    4  A    between atoms: C_8  and  N_16
REMARK    5  A    between atoms: C_10  and  O_12
REMARK    6  A    between atoms: C_13  and  O_15
REMARK    7  A    between atoms: C_24  and  C_25
REMARK                            x       y       z     vdW  Elec       q    Type
REMARK                         _______ _______ _______ _____ _____    ______ ____
ROOT
ATOM      1  C   UNL     1       6.289  -5.901  23.448  0.00  0.00    +0.180 C 
ATOM      2  C   UNL     1       6.142  -5.330  22.036  0.00  0.00    +0.179 C 
ATOM      3  C   UNL     1       6.419  -3.836  22.162  0.00  0.00    +0.195 C 
ATOM      4  C   UNL     1       6.730  -3.630  23.650  0.00  0.00    +0.253 C 
ATOM      5  O   UNL     1       7.069  -4.926  24.181  0.00  0.00    -0.345 OA
ENDROOT
BRANCH   4   6
ATOM      6  N   UNL     1       7.843  -2.715  23.853  0.00  0.00    -0.286 N 
ATOM      7  C   UNL     1       7.756  -1.349  23.786  0.00  0.00    +0.166 A 
ATOM      8  N   UNL     1       6.654  -0.609  23.569  0.00  0.00    -0.216 NA
ATOM      9  C   UNL     1       6.963   0.706  23.546  0.00  0.00    +0.223 A 
ATOM     10  N   UNL     1       8.177   1.282  23.681  0.00  0.00    -0.238 NA
ATOM     11  C   UNL     1       9.265   0.480  23.887  0.00  0.00    +0.069 A 
ATOM     12  C   UNL     1      10.610   1.120  24.001  0.00  0.00    +0.068 C 
ATOM     13  C   UNL     1       9.058  -0.903  23.957  0.00  0.00    +0.129 A 
ATOM     14  N   UNL     1       9.915  -1.962  24.155  0.00  0.00    -0.232 NA
ATOM     15  C   UNL     1       9.151  -3.032  24.104  0.00  0.00    +0.203 A 
ENDBRANCH   4   6
BRANCH   1  17
ATOM     16  C   UNL     1       5.124  -6.209  25.696  0.00  0.00    +0.040 C 
ATOM     17  C   UNL     1       4.956  -6.172  24.181  0.00  0.00    +0.143 C 
BRANCH  17  18
ATOM     18  O   UNL     1       4.386  -7.406  23.750  0.00  0.00    -0.389 OA
ATOM     19  H   UNL     1       4.521  -8.060  24.460  0.00  0.00    +0.210 HD
ENDBRANCH  17  18
ENDBRANCH   1  17
BRANCH   2  20
ATOM     20  O   UNL     1       7.139  -5.930  21.186  0.00  0.00    -0.386 OA
ATOM     21  H   UNL     1       7.712  -5.224  20.836  0.00  0.00    +0.210 HD
ENDBRANCH   2  20
BRANCH   3  22
ATOM     22  O   UNL     1       5.304  -3.053  21.727  0.00  0.00    -0.385 OA
ATOM     23  H   UNL     1       5.668  -2.345  21.156  0.00  0.00    +0.210 HD
ENDBRANCH   3  22
TORSDOF 5
ENDMDL
MODEL 6
REMARK VINA RESULT:      -6.3      3.526      6.222
REMARK  Name = 
REMARK  7 active torsions:
REMARK  status: ('A' for Active; 'I' for Inactive)
REMARK    1  A    between atoms: C_1  and  C_2
REMARK    2  A    between atoms: C_2  and  O_4
REMARK    3  A    between atoms: C_2  and  C_5
REMARK    4  A    between atoms: C_8  and  N_16
REMARK    5  A    between atoms: C_10  and  O_12
REMARK    6  A    between atoms: C_13  and  O_15
REMARK    7  A    between atoms: C_24  and  C_25
REMARK                            x       y       z     vdW  Elec       q    Type
REMARK                         _______ _______ _______ _____ _____    ______ ____
ROOT
ATOM      1  C   UNL     1       7.879   1.760  21.852  0.00  0.00    +0.180 C 
ATOM      2  C   UNL     1       9.163   2.292  22.492  0.00  0.00    +0.179 C 
ATOM      3  C   UNL     1       9.470   1.348  23.650  0.00  0.00    +0.195 C 
ATOM      4  C   UNL     1       8.346   0.306  23.601  0.00  0.00    +0.253 C 
ATOM      5  O   UNL     1       7.775   0.380  22.280  0.00  0.00    -0.345 OA
ENDROOT
BRANCH   4   6
ATOM      6  N   UNL     1       8.841  -1.042  23.841  0.00  0.00    -0.286 N 
ATOM      7  C   UNL     1       8.343  -1.902  24.784  0.00  0.00    +0.166 A 
ATOM      8  N   UNL     1       7.306  -1.694  25.616  0.00  0.00    -0.216 NA
ATOM      9  C   UNL     1       7.125  -2.762  26.424  0.00  0.00    +0.223 A 
ATOM     10  N   UNL     1       7.847  -3.901  26.478  0.00  0.00    -0.238 NA
ATOM     11  C   UNL     1       8.898  -4.053  25.617  0.00  0.00    +0.069 A 
ATOM     12  C   UNL     1       9.716  -5.301  25.705  0.00  0.00    +0.068 C 
ATOM     13  C   UNL     1       9.162  -3.018  24.713  0.00  0.00    +0.129 A 
ATOM     14  N   UNL     1      10.117  -2.861  23.734  0.00  0.00    -0.232 NA
ATOM     15  C   UNL     1       9.884  -1.672  23.219  0.00  0.00    +0.203 A 
ENDBRANCH   4   6
BRANCH   1  17
ATOM     16  C   UNL     1       6.888   3.758  23.089  0.00  0.00    +0.040 C 
ATOM     17  C   UNL     1       6.596   2.531  22.232  0.00  0.00    +0.143 C 
BRANCH  17  18
ATOM     18  O   UNL     1       5.688   1.684  22.934  0.00  0.00    -0.389 OA
ATOM     19  H   UNL     1       6.157   0.858  23.147  0.00  0.00    +0.210 HD
ENDBRANCH  17  18
ENDBRANCH   1  17
BRANCH   2  20
ATOM     20  O   UNL     1      10.229   2.222  21.524  0.00  0.00    -0.386 OA
ATOM     21  H   UNL     1       9.839   2.263  20.632  0.00  0.00    +0.210 HD
ENDBRANCH   2  20
BRANCH   3  22
ATOM     22  O   UNL     1       9.514   2.041  24.900  0.00  0.00    -0.385 OA
ATOM     23  H   UNL     1       9.014   1.494  25.540  0.00  0.00    +0.210 HD
ENDBRANCH   3  22
TORSDOF 5
ENDMDL
MODEL 7
REMARK VINA RESULT:      -6.3      2.018      3.155
REMARK  Name = 
REMARK  7 active torsions:
REMARK  status: ('A' for Active; 'I' for Inactive)
REMARK    1  A    between atoms: C_1  and  C_2
REMARK    2  A    between atoms: C_2  and  O_4
REMARK    3  A    between atoms: C_2  and  C_5
REMARK    4  A    between atoms: C_8  and  N_16
REMARK    5  A    between atoms: C_10  and  O_12
REMARK    6  A    between atoms: C_13  and  O_15
REMARK    7  A    between atoms: C_24  and  C_25
REMARK                            x       y       z     vdW  Elec       q    Type
REMARK                         _______ _______ _______ _____ _____    ______ ____
ROOT
ATOM      1  C   UNL     1       8.363  -4.685  26.625  0.00  0.00    +0.180 C 
ATOM      2  C   UNL     1       8.939  -5.521  25.481  0.00  0.00    +0.179 C 
ATOM      3  C   UNL     1       8.693  -4.711  24.212  0.00  0.00    +0.195 C 
ATOM      4  C   UNL     1       8.001  -3.433  24.703  0.00  0.00    +0.253 C 
ATOM      5  O   UNL     1       8.279  -3.333  26.114  0.00  0.00    -0.345 OA
ENDROOT
BRANCH   4   6
ATOM      6  N   UNL     1       8.500  -2.247  24.024  0.00  0.00    -0.286 N 
ATOM      7  C   UNL     1       7.818  -1.064  23.911  0.00  0.00    +0.166 A 
ATOM      8  N   UNL     1       6.611  -0.763  24.425  0.00  0.00    -0.216 NA
ATOM      9  C   UNL     1       6.250   0.493  24.082  0.00  0.00    +0.223 A 
ATOM     10  N   UNL     1       6.925   1.377  23.316  0.00  0.00    -0.238 NA
ATOM     11  C   UNL     1       8.141   1.013  22.810  0.00  0.00    +0.069 A 
ATOM     12  C   UNL     1       8.868   1.982  21.935  0.00  0.00    +0.068 C 
ATOM     13  C   UNL     1       8.629  -0.261  23.125  0.00  0.00    +0.129 A 
ATOM     14  N   UNL     1       9.791  -0.919  22.790  0.00  0.00    -0.232 NA
ATOM     15  C   UNL     1       9.689  -2.101  23.361  0.00  0.00    +0.203 A 
ENDBRANCH   4   6
BRANCH   1  17
ATOM     16  C   UNL     1       6.107  -3.977  27.579  0.00  0.00    +0.040 C 
ATOM     17  C   UNL     1       6.980  -5.145  27.135  0.00  0.00    +0.143 C 
BRANCH  17  18
ATOM     18  O   UNL     1       7.122  -6.055  28.225  0.00  0.00    -0.389 OA
ATOM     19  H   UNL     1       6.716  -6.900  27.961  0.00  0.00    +0.210 HD
ENDBRANCH  17  18
ENDBRANCH   1  17
BRANCH   2  20
ATOM     20  O   UNL     1      10.357  -5.674  25.683  0.00  0.00    -0.386 OA
ATOM     21  H   UNL     1      10.742  -6.074  24.882  0.00  0.00    +0.210 HD
ENDBRANCH   2  20
BRANCH   3  22
ATOM     22  O   UNL     1       7.897  -5.432  23.269  0.00  0.00    -0.385 OA
ATOM     23  H   UNL     1       7.333  -6.041  23.789  0.00  0.00    +0.210 HD
ENDBRANCH   3  22
TORSDOF 5
ENDMDL
MODEL 8
REMARK VINA RESULT:      -6.3      3.197      6.189
REMARK  Name = 
REMARK  7 active torsions:
REMARK  status: ('A' for Active; 'I' for Inactive)
REMARK    1  A    between atoms: C_1  and  C_2
REMARK    2  A    between atoms: C_2  and  O_4
REMARK    3  A    between atoms: C_2  and  C_5
REMARK    4  A    between atoms: C_8  and  N_16
REMARK    5  A    between atoms: C_10  and  O_12
REMARK    6  A    between atoms: C_13  and  O_15
REMARK    7  A    between atoms: C_24  and  C_25
REMARK                            x       y       z     vdW  Elec       q    Type
REMARK                         _______ _______ _______ _____ _____    ______ ____
ROOT
ATOM      1  C   UNL     1       8.627   1.546  23.386  0.00  0.00    +0.180 C 
ATOM      2  C   UNL     1       7.914   0.706  22.324  0.00  0.00    +0.179 C 
ATOM      3  C   UNL     1       8.054  -0.743  22.779  0.00  0.00    +0.195 C 
ATOM      4  C   UNL     1       8.831  -0.655  24.098  0.00  0.00    +0.253 C 
ATOM      5  O   UNL     1       8.700   0.704  24.562  0.00  0.00    -0.345 OA
ENDROOT
BRANCH   4   6
ATOM      6  N   UNL     1       8.302  -1.564  25.104  0.00  0.00    -0.286 N 
ATOM      7  C   UNL     1       8.602  -2.899  25.188  0.00  0.00    +0.166 A 
ATOM      8  N   UNL     1       9.449  -3.598  24.410  0.00  0.00    -0.216 NA
ATOM      9  C   UNL     1       9.467  -4.898  24.779  0.00  0.00    +0.223 A 
ATOM     10  N   UNL     1       8.752  -5.501  25.752  0.00  0.00    -0.238 NA
ATOM     11  C   UNL     1       7.896  -4.743  26.503  0.00  0.00    +0.069 A 
ATOM     12  C   UNL     1       7.082  -5.422  27.556  0.00  0.00    +0.068 C 
ATOM     13  C   UNL     1       7.818  -3.373  26.228  0.00  0.00    +0.129 A 
ATOM     14  N   UNL     1       7.079  -2.354  26.787  0.00  0.00    -0.232 NA
ATOM     15  C   UNL     1       7.409  -1.280  26.100  0.00  0.00    +0.203 A 
ENDBRANCH   4   6
BRANCH   1  17
ATOM     16  C   UNL     1      10.384   3.381  23.605  0.00  0.00    +0.040 C 
ATOM     17  C   UNL     1      10.040   2.028  22.991  0.00  0.00    +0.143 C 
BRANCH  17  18
ATOM     18  O   UNL     1      10.164   2.120  21.573  0.00  0.00    -0.389 OA
ATOM     19  H   UNL     1      11.075   2.402  21.372  0.00  0.00    +0.210 HD
ENDBRANCH  17  18
ENDBRANCH   1  17
BRANCH   2  20
ATOM     20  O   UNL     1       6.519   1.068  22.304  0.00  0.00    -0.386 OA
ATOM     21  H   UNL     1       6.394   1.846  22.877  0.00  0.00    +0.210 HD
ENDBRANCH   2  20
BRANCH   3  22
ATOM     22  O   UNL     1       8.729  -1.541  21.803  0.00  0.00    -0.385 OA
ATOM     23  H   UNL     1       9.007  -0.930  21.089  0.00  0.00    +0.210 HD
ENDBRANCH   3  22
TORSDOF 5
ENDMDL
MODEL 9
REMARK VINA RESULT:      -6.2      4.230      7.213
REMARK  Name = 
REMARK  7 active torsions:
REMARK  status: ('A' for Active; 'I' for Inactive)
REMARK    1  A    between atoms: C_1  and  C_2
REMARK    2  A    between atoms: C_2  and  O_4
REMARK    3  A    between atoms: C_2  and  C_5
REMARK    4  A    between atoms: C_8  and  N_16
REMARK    5  A    between atoms: C_10  and  O_12
REMARK    6  A    between atoms: C_13  and  O_15
REMARK    7  A    between atoms: C_24  and  C_25
REMARK                            x       y       z     vdW  Elec       q    Type
REMARK                         _______ _______ _______ _____ _____    ______ ____
ROOT
ATOM      1  C   UNL     1       8.258   4.366  23.982  0.00  0.00    +0.180 C 
ATOM      2  C   UNL     1       7.870   3.788  22.619  0.00  0.00    +0.179 C 
ATOM      3  C   UNL     1       8.470   2.386  22.578  0.00  0.00    +0.195 C 
ATOM      4  C   UNL     1       9.160   2.227  23.938  0.00  0.00    +0.253 C 
ATOM      5  O   UNL     1       8.588   3.223  24.808  0.00  0.00    -0.345 OA
ENDROOT
BRANCH   4   6
ATOM      6  N   UNL     1       8.946   0.905  24.506  0.00  0.00    -0.286 N 
ATOM      7  C   UNL     1       9.466  -0.258  24.002  0.00  0.00    +0.166 A 
ATOM      8  N   UNL     1      10.285  -0.397  22.943  0.00  0.00    -0.216 NA
ATOM      9  C   UNL     1      10.568  -1.701  22.731  0.00  0.00    +0.223 A 
ATOM     10  N   UNL     1      10.118  -2.776  23.412  0.00  0.00    -0.238 NA
ATOM     11  C   UNL     1       9.278  -2.576  24.472  0.00  0.00    +0.069 A 
ATOM     12  C   UNL     1       8.755  -3.771  25.201  0.00  0.00    +0.068 C 
ATOM     13  C   UNL     1       8.938  -1.259  24.802  0.00  0.00    +0.129 A 
ATOM     14  N   UNL     1       8.140  -0.725  25.789  0.00  0.00    -0.232 NA
ATOM     15  C   UNL     1       8.182   0.576  25.593  0.00  0.00    +0.203 A 
ENDBRANCH   4   6
BRANCH   1  17
ATOM     16  C   UNL     1       9.474   6.257  25.185  0.00  0.00    +0.040 C 
ATOM     17  C   UNL     1       9.440   5.359  23.954  0.00  0.00    +0.143 C 
BRANCH  17  18
ATOM     18  O   UNL     1       9.382   6.179  22.788  0.00  0.00    -0.389 OA
ATOM     19  H   UNL     1      10.255   6.146  22.357  0.00  0.00    +0.210 HD
ENDBRANCH  17  18
ENDBRANCH   1  17
BRANCH   2  20
ATOM     20  O   UNL     1       6.433   3.695  22.545  0.00  0.00    -0.386 OA
ATOM     21  H   UNL     1       6.067   3.857  23.433  0.00  0.00    +0.210 HD
ENDBRANCH   2  20
BRANCH   3  22
ATOM     22  O   UNL     1       9.379   2.233  21.485  0.00  0.00    -0.385 OA
ATOM     23  H   UNL     1       9.520   1.270  21.374  0.00  0.00    +0.210 HD
ENDBRANCH   3  22
TORSDOF 5
ENDMDL
