MODEL 1
REMARK VINA RESULT:      -7.6      0.000      0.000
REMARK  Name = 
REMARK  9 active torsions:
REMARK  status: ('A' for Active; 'I' for Inactive)
REMARK    1  A    between atoms: C_1  and  C_2
REMARK    2  A    between atoms: C_2  and  C_3
REMARK    3  A    between atoms: C_6  and  C_7
REMARK    4  A    between atoms: C_6  and  C_8
REMARK    5  A    between atoms: C_11  and  C_15
REMARK    6  A    between atoms: C_15  and  C_17
REMARK    7  A    between atoms: C_18  and  C_19
REMARK    8  A    between atoms: C_22  and  C_25
REMARK    9  A    between atoms: C_25  and  O_26
REMARK                            x       y       z     vdW  Elec       q    Type
REMARK                         _______ _______ _______ _____ _____    ______ ____
ROOT
ATOM      1  C   UNL     1       2.110  -5.090  24.367  0.00  0.00    +0.016 C 
ATOM      2  C   UNL     1       3.002  -6.246  24.872  0.00  0.00    -0.010 C 
ATOM      3  C   UNL     1       4.470  -5.791  24.848  0.00  0.00    -0.038 A 
ATOM      4  C   UNL     1       5.182  -5.474  26.030  0.00  0.00    -0.037 A 
ATOM      5  C   UNL     1       6.542  -5.099  25.923  0.00  0.00    +0.016 A 
ATOM      6  C   UNL     1       7.184  -4.973  24.684  0.00  0.00    +0.022 A 
ATOM      7  C   UNL     1       6.474  -5.261  23.525  0.00  0.00    +0.012 A 
ATOM      8  C   UNL     1       4.547  -5.567  27.425  0.00  0.00    -0.010 C 
ATOM      9  C   UNL     1       5.117  -6.806  28.149  0.00  0.00    +0.016 C 
ATOM     10  C   UNL     1       4.861  -4.314  28.278  0.00  0.00    +0.016 C 
ATOM     11  C   UNL     1       3.008  -5.667  27.347  0.00  0.00    +0.012 C 
ATOM     12  C   UNL     1       5.136  -5.657  23.607  0.00  0.00    +0.005 A 
ATOM     13  C   UNL     1       2.559  -6.665  26.293  0.00  0.00    +0.012 C 
ATOM     14  C   UNL     1       2.763  -7.475  23.963  0.00  0.00    +0.016 C 
ENDROOT
BRANCH   6  15
ATOM     15  C   UNL     1       8.614  -4.564  24.580  0.00  0.00    +0.186 C 
ATOM     16  O   UNL     1       9.504  -5.401  24.486  0.00  0.00    -0.287 OA
BRANCH  15  17
ATOM     17  C   UNL     1       8.897  -3.101  24.554  0.00  0.00    +0.052 C 
ATOM     18  C   UNL     1       9.438  -2.511  23.476  0.00  0.00    +0.012 C 
BRANCH  18  19
ATOM     19  C   UNL     1       9.744  -1.070  23.426  0.00  0.00    -0.025 A 
ATOM     20  C   UNL     1       9.704  -0.347  22.226  0.00  0.00    +0.009 A 
ATOM     21  C   UNL     1       9.980   1.023  22.204  0.00  0.00    +0.015 A 
ATOM     22  C   UNL     1      10.314   1.694  23.383  0.00  0.00    +0.059 A 
ATOM     23  C   UNL     1      10.413   0.974  24.579  0.00  0.00    +0.015 A 
ATOM     24  C   UNL     1      10.127  -0.399  24.597  0.00  0.00    +0.009 A 
BRANCH  22  25
ATOM     25  C   UNL     1      10.597   3.151  23.293  0.00  0.00    +0.337 C 
ATOM     26  O   UNL     1      11.705   3.621  23.478  0.00  0.00    -0.245 OA
BRANCH  25  27
ATOM     27  O   UNL     1       9.532   3.897  22.933  0.00  0.00    -0.477 OA
ATOM     28  H   UNL     1       9.383   4.698  23.470  0.00  0.00    +0.295 HD
ENDBRANCH  25  27
ENDBRANCH  22  25
ENDBRANCH  18  19
ENDBRANCH  15  17
ENDBRANCH   6  15
TORSDOF 5
ENDMDL
MODEL 2
REMARK VINA RESULT:      -7.6      2.348      4.482
REMARK  Name = 
REMARK  9 active torsions:
REMARK  status: ('A' for Active; 'I' for Inactive)
REMARK    1  A    between atoms: C_1  and  C_2
REMARK    2  A    between atoms: C_2  and  C_3
REMARK    3  A    between atoms: C_6  and  C_7
REMARK    4  A    between atoms: C_6  and  C_8
REMARK    5  A    between atoms: C_11  and  C_15
REMARK    6  A    between atoms: C_15  and  C_17
REMARK    7  A    between atoms: C_18  and  C_19
REMARK    8  A    between atoms: C_22  and  C_25
REMARK    9  A    between atoms: C_25  and  O_26
REMARK                            x       y       z     vdW  Elec       q    Type
REMARK                         _______ _______ _______ _____ _____    ______ ____
ROOT
ATOM      1  C   UNL     1       7.168  -5.556  27.076  0.00  0.00    +0.016 C 
ATOM      2  C   UNL     1       6.341  -4.485  26.330  0.00  0.00    -0.010 C 
ATOM      3  C   UNL     1       7.273  -3.697  25.395  0.00  0.00    -0.038 A 
ATOM      4  C   UNL     1       7.261  -3.875  23.991  0.00  0.00    -0.037 A 
ATOM      5  C   UNL     1       8.125  -3.083  23.199  0.00  0.00    +0.016 A 
ATOM      6  C   UNL     1       9.030  -2.175  23.764  0.00  0.00    +0.022 A 
ATOM      7  C   UNL     1       9.056  -2.022  25.145  0.00  0.00    +0.012 A 
ATOM      8  C   UNL     1       6.314  -4.863  23.294  0.00  0.00    -0.010 C 
ATOM      9  C   UNL     1       5.199  -4.065  22.582  0.00  0.00    +0.016 C 
ATOM     10  C   UNL     1       7.057  -5.714  22.236  0.00  0.00    +0.016 C 
ATOM     11  C   UNL     1       5.689  -5.859  24.295  0.00  0.00    +0.012 C 
ATOM     12  C   UNL     1       8.194  -2.776  25.947  0.00  0.00    +0.005 A 
ATOM     13  C   UNL     1       5.192  -5.163  25.550  0.00  0.00    +0.012 C 
ATOM     14  C   UNL     1       5.671  -3.571  27.384  0.00  0.00    +0.016 C 
ENDROOT
BRANCH   6  15
ATOM     15  C   UNL     1       9.946  -1.354  22.923  0.00  0.00    +0.186 C 
ATOM     16  O   UNL     1      10.837  -1.878  22.265  0.00  0.00    -0.287 OA
BRANCH  15  17
ATOM     17  C   UNL     1       9.697   0.115  22.890  0.00  0.00    +0.052 C 
ATOM     18  C   UNL     1       8.455   0.614  22.780  0.00  0.00    +0.012 C 
BRANCH  18  19
ATOM     19  C   UNL     1       8.179   2.061  22.730  0.00  0.00    -0.025 A 
ATOM     20  C   UNL     1       8.973   2.990  23.416  0.00  0.00    +0.009 A 
ATOM     21  C   UNL     1       8.704   4.359  23.340  0.00  0.00    +0.015 A 
ATOM     22  C   UNL     1       7.626   4.825  22.584  0.00  0.00    +0.059 A 
ATOM     23  C   UNL     1       6.791   3.905  21.939  0.00  0.00    +0.015 A 
ATOM     24  C   UNL     1       7.070   2.532  22.012  0.00  0.00    +0.009 A 
BRANCH  22  25
ATOM     25  C   UNL     1       7.392   6.293  22.543  0.00  0.00    +0.337 C 
ATOM     26  O   UNL     1       7.558   7.015  23.510  0.00  0.00    -0.245 OA
BRANCH  25  27
ATOM     27  O   UNL     1       7.038   6.760  21.328  0.00  0.00    -0.477 OA
ATOM     28  H   UNL     1       6.749   7.691  21.307  0.00  0.00    +0.295 HD
ENDBRANCH  25  27
ENDBRANCH  22  25
ENDBRANCH  18  19
ENDBRANCH  15  17
ENDBRANCH   6  15
TORSDOF 5
ENDMDL
MODEL 3
REMARK VINA RESULT:      -7.5      2.814      8.768
REMARK  Name = 
REMARK  9 active torsions:
REMARK  status: ('A' for Active; 'I' for Inactive)
REMARK    1  A    between atoms: C_1  and  C_2
REMARK    2  A    between atoms: C_2  and  C_3
REMARK    3  A    between atoms: C_6  and  C_7
REMARK    4  A    between atoms: C_6  and  C_8
REMARK    5  A    between atoms: C_11  and  C_15
REMARK    6  A    between atoms: C_15  and  C_17
REMARK    7  A    between atoms: C_18  and  C_19
REMARK    8  A    between atoms: C_22  and  C_25
REMARK    9  A    between atoms: C_25  and  O_26
REMARK                            x       y       z     vdW  Elec       q    Type
REMARK                         _______ _______ _______ _____ _____    ______ ____
ROOT
ATOM      1  C   UNL     1      10.669   2.172  23.814  0.00  0.00    +0.016 C 
ATOM      2  C   UNL     1       9.368   1.535  23.278  0.00  0.00    -0.010 C 
ATOM      3  C   UNL     1       9.334   0.052  23.682  0.00  0.00    -0.038 A 
ATOM      4  C   UNL     1       8.485  -0.433  24.704  0.00  0.00    -0.037 A 
ATOM      5  C   UNL     1       8.488  -1.819  24.989  0.00  0.00    +0.016 A 
ATOM      6  C   UNL     1       9.347  -2.711  24.334  0.00  0.00    +0.022 A 
ATOM      7  C   UNL     1      10.198  -2.226  23.347  0.00  0.00    +0.012 A 
ATOM      8  C   UNL     1       7.528   0.480  25.484  0.00  0.00    -0.010 C 
ATOM      9  C   UNL     1       6.084   0.211  25.007  0.00  0.00    +0.016 C 
ATOM     10  C   UNL     1       7.598   0.212  27.007  0.00  0.00    +0.016 C 
ATOM     11  C   UNL     1       7.876   1.973  25.287  0.00  0.00    +0.012 C 
ATOM     12  C   UNL     1      10.194  -0.864  23.032  0.00  0.00    +0.005 A 
ATOM     13  C   UNL     1       8.145   2.304  23.830  0.00  0.00    +0.012 C 
ATOM     14  C   UNL     1       9.338   1.717  21.741  0.00  0.00    +0.016 C 
ENDROOT
BRANCH   6  15
ATOM     15  C   UNL     1       9.353  -4.168  24.649  0.00  0.00    +0.186 C 
ATOM     16  O   UNL     1      10.358  -4.713  25.092  0.00  0.00    -0.287 OA
BRANCH  15  17
ATOM     17  C   UNL     1       8.077  -4.910  24.441  0.00  0.00    +0.052 C 
ATOM     18  C   UNL     1       7.204  -5.099  25.444  0.00  0.00    +0.012 C 
BRANCH  18  19
ATOM     19  C   UNL     1       5.943  -5.841  25.273  0.00  0.00    -0.025 A 
ATOM     20  C   UNL     1       5.318  -5.960  24.024  0.00  0.00    +0.009 A 
ATOM     21  C   UNL     1       4.131  -6.684  23.881  0.00  0.00    +0.015 A 
ATOM     22  C   UNL     1       3.539  -7.293  24.989  0.00  0.00    +0.059 A 
ATOM     23  C   UNL     1       4.121  -7.135  26.253  0.00  0.00    +0.015 A 
ATOM     24  C   UNL     1       5.317  -6.415  26.389  0.00  0.00    +0.009 A 
BRANCH  22  25
ATOM     25  C   UNL     1       2.276  -8.048  24.771  0.00  0.00    +0.337 C 
ATOM     26  O   UNL     1       1.319  -7.578  24.182  0.00  0.00    -0.245 OA
BRANCH  25  27
ATOM     27  O   UNL     1       2.306  -9.315  25.233  0.00  0.00    -0.477 OA
ATOM     28  H   UNL     1       1.479  -9.819  25.124  0.00  0.00    +0.295 HD
ENDBRANCH  25  27
ENDBRANCH  22  25
ENDBRANCH  18  19
ENDBRANCH  15  17
ENDBRANCH   6  15
TORSDOF 5
ENDMDL
MODEL 4
REMARK VINA RESULT:      -7.4      3.000      4.845
REMARK  Name = 
REMARK  9 active torsions:
REMARK  status: ('A' for Active; 'I' for Inactive)
REMARK    1  A    between atoms: C_1  and  C_2
REMARK    2  A    between atoms: C_2  and  C_3
REMARK    3  A    between atoms: C_6  and  C_7
REMARK    4  A    between atoms: C_6  and  C_8
REMARK    5  A    between atoms: C_11  and  C_15
REMARK    6  A    between atoms: C_15  and  C_17
REMARK    7  A    between atoms: C_18  and  C_19
REMARK    8  A    between atoms: C_22  and  C_25
REMARK    9  A    between atoms: C_25  and  O_26
REMARK                            x       y       z     vdW  Elec       q    Type
REMARK                         _______ _______ _______ _____ _____    ______ ____
ROOT
ATOM      1  C   UNL     1       9.018  -4.980  25.155  0.00  0.00    +0.016 C 
ATOM      2  C   UNL     1       7.562  -4.775  25.632  0.00  0.00    -0.010 C 
ATOM      3  C   UNL     1       7.176  -3.299  25.436  0.00  0.00    -0.038 A 
ATOM      4  C   UNL     1       6.303  -2.878  24.406  0.00  0.00    -0.037 A 
ATOM      5  C   UNL     1       5.969  -1.505  24.318  0.00  0.00    +0.016 A 
ATOM      6  C   UNL     1       6.522  -0.549  25.178  0.00  0.00    +0.022 A 
ATOM      7  C   UNL     1       7.399  -0.964  26.174  0.00  0.00    +0.012 A 
ATOM      8  C   UNL     1       5.670  -3.859  23.409  0.00  0.00    -0.010 C 
ATOM      9  C   UNL     1       4.176  -4.030  23.761  0.00  0.00    +0.016 C 
ATOM     10  C   UNL     1       5.773  -3.340  21.954  0.00  0.00    +0.016 C 
ATOM     11  C   UNL     1       6.375  -5.233  23.433  0.00  0.00    +0.012 C 
ATOM     12  C   UNL     1       7.725  -2.318  26.295  0.00  0.00    +0.005 A 
ATOM     13  C   UNL     1       6.620  -5.719  24.851  0.00  0.00    +0.012 C 
ATOM     14  C   UNL     1       7.475  -5.203  27.116  0.00  0.00    +0.016 C 
ENDROOT
BRANCH   6  15
ATOM     15  C   UNL     1       6.175   0.897  25.070  0.00  0.00    +0.186 C 
ATOM     16  O   UNL     1       5.007   1.267  25.074  0.00  0.00    -0.287 OA
BRANCH  15  17
ATOM     17  C   UNL     1       7.311   1.860  25.001  0.00  0.00    +0.052 C 
ATOM     18  C   UNL     1       8.050   1.994  23.889  0.00  0.00    +0.012 C 
BRANCH  18  19
ATOM     19  C   UNL     1       9.188   2.926  23.796  0.00  0.00    -0.025 A 
ATOM     20  C   UNL     1      10.480   2.487  23.478  0.00  0.00    +0.009 A 
ATOM     21  C   UNL     1      11.541   3.390  23.378  0.00  0.00    +0.015 A 
ATOM     22  C   UNL     1      11.332   4.752  23.606  0.00  0.00    +0.059 A 
ATOM     23  C   UNL     1      10.058   5.198  23.979  0.00  0.00    +0.015 A 
ATOM     24  C   UNL     1       8.995   4.288  24.070  0.00  0.00    +0.009 A 
BRANCH  22  25
ATOM     25  C   UNL     1      12.502   5.662  23.484  0.00  0.00    +0.337 C 
ATOM     26  O   UNL     1      13.126   5.800  22.448  0.00  0.00    -0.245 OA
BRANCH  25  27
ATOM     27  O   UNL     1      12.772   6.362  24.605  0.00  0.00    -0.477 OA
ATOM     28  H   UNL     1      12.659   5.873  25.440  0.00  0.00    +0.295 HD
ENDBRANCH  25  27
ENDBRANCH  22  25
ENDBRANCH  18  19
ENDBRANCH  15  17
ENDBRANCH   6  15
TORSDOF 5
ENDMDL
MODEL 5
REMARK VINA RESULT:      -7.2      3.110      8.754
REMARK  Name = 
REMARK  9 active torsions:
REMARK  status: ('A' for Active; 'I' for Inactive)
REMARK    1  A    between atoms: C_1  and  C_2
REMARK    2  A    between atoms: C_2  and  C_3
REMARK    3  A    between atoms: C_6  and  C_7
REMARK    4  A    between atoms: C_6  and  C_8
REMARK    5  A    between atoms: C_11  and  C_15
REMARK    6  A    between atoms: C_15  and  C_17
REMARK    7  A    between atoms: C_18  and  C_19
REMARK    8  A    between atoms: C_22  and  C_25
REMARK    9  A    between atoms: C_25  and  O_26
REMARK                            x       y       z     vdW  Elec       q    Type
REMARK                         _______ _______ _______ _____ _____    ______ ____
ROOT
ATOM      1  C   UNL     1       9.296   4.727  24.162  0.00  0.00    +0.016 C 
ATOM      2  C   UNL     1       8.075   3.962  23.605  0.00  0.00    -0.010 C 
ATOM      3  C   UNL     1       8.461   2.487  23.400  0.00  0.00    -0.038 A 
ATOM      4  C   UNL     1       8.003   1.461  24.260  0.00  0.00    -0.037 A 
ATOM      5  C   UNL     1       8.375   0.125  23.980  0.00  0.00    +0.016 A 
ATOM      6  C   UNL     1       9.227  -0.204  22.918  0.00  0.00    +0.022 A 
ATOM      7  C   UNL     1       9.694   0.811  22.090  0.00  0.00    +0.012 A 
ATOM      8  C   UNL     1       7.083   1.738  25.458  0.00  0.00    -0.010 C 
ATOM      9  C   UNL     1       5.661   1.239  25.118  0.00  0.00    +0.016 C 
ATOM     10  C   UNL     1       7.568   1.002  26.731  0.00  0.00    +0.016 C 
ATOM     11  C   UNL     1       7.042   3.241  25.811  0.00  0.00    +0.012 C 
ATOM     12  C   UNL     1       9.321   2.136  22.333  0.00  0.00    +0.005 A 
ATOM     13  C   UNL     1       6.881   4.109  24.575  0.00  0.00    +0.012 C 
ATOM     14  C   UNL     1       7.645   4.635  22.280  0.00  0.00    +0.016 C 
ENDROOT
BRANCH   6  15
ATOM     15  C   UNL     1       9.624  -1.613  22.637  0.00  0.00    +0.186 C 
ATOM     16  O   UNL     1      10.750  -1.883  22.237  0.00  0.00    -0.287 OA
BRANCH  15  17
ATOM     17  C   UNL     1       8.606  -2.667  22.908  0.00  0.00    +0.052 C 
ATOM     18  C   UNL     1       7.444  -2.710  22.235  0.00  0.00    +0.012 C 
BRANCH  18  19
ATOM     19  C   UNL     1       6.413  -3.731  22.491  0.00  0.00    -0.025 A 
ATOM     20  C   UNL     1       6.530  -5.040  22.004  0.00  0.00    +0.009 A 
ATOM     21  C   UNL     1       5.549  -5.997  22.273  0.00  0.00    +0.015 A 
ATOM     22  C   UNL     1       4.421  -5.658  23.026  0.00  0.00    +0.059 A 
ATOM     23  C   UNL     1       4.263  -4.340  23.471  0.00  0.00    +0.015 A 
ATOM     24  C   UNL     1       5.255  -3.386  23.205  0.00  0.00    +0.009 A 
BRANCH  22  25
ATOM     25  C   UNL     1       3.412  -6.721  23.278  0.00  0.00    +0.337 C 
ATOM     26  O   UNL     1       2.321  -6.736  22.738  0.00  0.00    -0.245 OA
BRANCH  25  27
ATOM     27  O   UNL     1       3.835  -7.695  24.110  0.00  0.00    -0.477 OA
ATOM     28  H   UNL     1       3.231  -7.907  24.845  0.00  0.00    +0.295 HD
ENDBRANCH  25  27
ENDBRANCH  22  25
ENDBRANCH  18  19
ENDBRANCH  15  17
ENDBRANCH   6  15
TORSDOF 5
ENDMDL
MODEL 6
REMARK VINA RESULT:      -7.2      0.848      2.590
REMARK  Name = 
REMARK  9 active torsions:
REMARK  status: ('A' for Active; 'I' for Inactive)
REMARK    1  A    between atoms: C_1  and  C_2
REMARK    2  A    between atoms: C_2  and  C_3
REMARK    3  A    between atoms: C_6  and  C_7
REMARK    4  A    between atoms: C_6  and  C_8
REMARK    5  A    between atoms: C_11  and  C_15
REMARK    6  A    between atoms: C_15  and  C_17
REMARK    7  A    between atoms: C_18  and  C_19
REMARK    8  A    between atoms: C_22  and  C_25
REMARK    9  A    between atoms: C_25  and  O_26
REMARK                            x       y       z     vdW  Elec       q    Type
REMARK                         _______ _______ _______ _____ _____    ______ ____
ROOT
ATOM      1  C   UNL     1       4.156  -7.062  28.866  0.00  0.00    +0.016 C 
ATOM      2  C   UNL     1       4.006  -5.679  28.193  0.00  0.00    -0.010 C 
ATOM      3  C   UNL     1       5.212  -5.440  27.269  0.00  0.00    -0.038 A 
ATOM      4  C   UNL     1       5.108  -5.511  25.859  0.00  0.00    -0.037 A 
ATOM      5  C   UNL     1       6.259  -5.241  25.080  0.00  0.00    +0.016 A 
ATOM      6  C   UNL     1       7.503  -4.966  25.661  0.00  0.00    +0.022 A 
ATOM      7  C   UNL     1       7.605  -4.922  27.046  0.00  0.00    +0.012 A 
ATOM      8  C   UNL     1       3.787  -5.825  25.144  0.00  0.00    -0.010 C 
ATOM      9  C   UNL     1       3.249  -4.528  24.501  0.00  0.00    +0.016 C 
ATOM     10  C   UNL     1       3.979  -6.881  24.028  0.00  0.00    +0.016 C 
ATOM     11  C   UNL     1       2.735  -6.405  26.116  0.00  0.00    +0.012 C 
ATOM     12  C   UNL     1       6.477  -5.162  27.837  0.00  0.00    +0.005 A 
ATOM     13  C   UNL     1       2.672  -5.620  27.414  0.00  0.00    +0.012 C 
ATOM     14  C   UNL     1       3.909  -4.608  29.305  0.00  0.00    +0.016 C 
ENDROOT
BRANCH   6  15
ATOM     15  C   UNL     1       8.712  -4.696  24.833  0.00  0.00    +0.186 C 
ATOM     16  O   UNL     1       9.275  -5.599  24.225  0.00  0.00    -0.287 OA
BRANCH  15  17
ATOM     17  C   UNL     1       9.170  -3.280  24.748  0.00  0.00    +0.052 C 
ATOM     18  C   UNL     1       8.795  -2.481  23.736  0.00  0.00    +0.012 C 
BRANCH  18  19
ATOM     19  C   UNL     1       9.244  -1.082  23.617  0.00  0.00    -0.025 A 
ATOM     20  C   UNL     1       9.568  -0.512  22.379  0.00  0.00    +0.009 A 
ATOM     21  C   UNL     1       9.974   0.822  22.287  0.00  0.00    +0.015 A 
ATOM     22  C   UNL     1      10.076   1.609  23.437  0.00  0.00    +0.059 A 
ATOM     23  C   UNL     1       9.810   1.037  24.687  0.00  0.00    +0.015 A 
ATOM     24  C   UNL     1       9.395  -0.300  24.772  0.00  0.00    +0.009 A 
BRANCH  22  25
ATOM     25  C   UNL     1      10.514   3.020  23.272  0.00  0.00    +0.337 C 
ATOM     26  O   UNL     1      11.674   3.370  23.397  0.00  0.00    -0.245 OA
BRANCH  25  27
ATOM     27  O   UNL     1       9.525   3.865  22.918  0.00  0.00    -0.477 OA
ATOM     28  H   UNL     1       8.993   3.587  22.149  0.00  0.00    +0.295 HD
ENDBRANCH  25  27
ENDBRANCH  22  25
ENDBRANCH  18  19
ENDBRANCH  15  17
ENDBRANCH   6  15
TORSDOF 5
ENDMDL
MODEL 7
REMARK VINA RESULT:      -7.1      2.650      4.865
REMARK  Name = 
REMARK  9 active torsions:
REMARK  status: ('A' for Active; 'I' for Inactive)
REMARK    1  A    between atoms: C_1  and  C_2
REMARK    2  A    between atoms: C_2  and  C_3
REMARK    3  A    between atoms: C_6  and  C_7
REMARK    4  A    between atoms: C_6  and  C_8
REMARK    5  A    between atoms: C_11  and  C_15
REMARK    6  A    between atoms: C_15  and  C_17
REMARK    7  A    between atoms: C_18  and  C_19
REMARK    8  A    between atoms: C_22  and  C_25
REMARK    9  A    between atoms: C_25  and  O_26
REMARK                            x       y       z     vdW  Elec       q    Type
REMARK                         _______ _______ _______ _____ _____    ______ ____
ROOT
ATOM      1  C   UNL     1       5.757  -5.488  25.704  0.00  0.00    +0.016 C 
ATOM      2  C   UNL     1       5.599  -4.600  24.450  0.00  0.00    -0.010 C 
ATOM      3  C   UNL     1       5.842  -3.133  24.843  0.00  0.00    -0.038 A 
ATOM      4  C   UNL     1       7.027  -2.444  24.491  0.00  0.00    -0.037 A 
ATOM      5  C   UNL     1       7.156  -1.084  24.860  0.00  0.00    +0.016 A 
ATOM      6  C   UNL     1       6.177  -0.420  25.610  0.00  0.00    +0.022 A 
ATOM      7  C   UNL     1       5.025  -1.108  25.974  0.00  0.00    +0.012 A 
ATOM      8  C   UNL     1       8.157  -3.103  23.687  0.00  0.00    -0.010 C 
ATOM      9  C   UNL     1       8.138  -2.541  22.249  0.00  0.00    +0.016 C 
ATOM     10  C   UNL     1       9.545  -2.810  24.308  0.00  0.00    +0.016 C 
ATOM     11  C   UNL     1       8.011  -4.641  23.652  0.00  0.00    +0.012 C 
ATOM     12  C   UNL     1       4.865  -2.446  25.601  0.00  0.00    +0.005 A 
ATOM     13  C   UNL     1       6.584  -5.067  23.354  0.00  0.00    +0.012 C 
ATOM     14  C   UNL     1       4.178  -4.817  23.879  0.00  0.00    +0.016 C 
ENDROOT
BRANCH   6  15
ATOM     15  C   UNL     1       6.326   1.009  26.005  0.00  0.00    +0.186 C 
ATOM     16  O   UNL     1       5.449   1.583  26.639  0.00  0.00    -0.287 OA
BRANCH  15  17
ATOM     17  C   UNL     1       7.602   1.683  25.630  0.00  0.00    +0.052 C 
ATOM     18  C   UNL     1       7.628   2.697  24.751  0.00  0.00    +0.012 C 
BRANCH  18  19
ATOM     19  C   UNL     1       8.875   3.373  24.349  0.00  0.00    -0.025 A 
ATOM     20  C   UNL     1       9.954   2.667  23.802  0.00  0.00    +0.009 A 
ATOM     21  C   UNL     1      11.121   3.330  23.411  0.00  0.00    +0.015 A 
ATOM     22  C   UNL     1      11.234   4.713  23.573  0.00  0.00    +0.059 A 
ATOM     23  C   UNL     1      10.185   5.423  24.170  0.00  0.00    +0.015 A 
ATOM     24  C   UNL     1       9.014   4.754  24.553  0.00  0.00    +0.009 A 
BRANCH  22  25
ATOM     25  C   UNL     1      12.501   5.359  23.138  0.00  0.00    +0.337 C 
ATOM     26  O   UNL     1      12.893   5.335  21.985  0.00  0.00    -0.245 OA
BRANCH  25  27
ATOM     27  O   UNL     1      13.145   6.021  24.120  0.00  0.00    -0.477 OA
ATOM     28  H   UNL     1      12.885   5.779  25.028  0.00  0.00    +0.295 HD
ENDBRANCH  25  27
ENDBRANCH  22  25
ENDBRANCH  18  19
ENDBRANCH  15  17
ENDBRANCH   6  15
TORSDOF 5
ENDMDL
MODEL 8
REMARK VINA RESULT:      -7.0      3.002      9.184
REMARK  Name = 
REMARK  9 active torsions:
REMARK  status: ('A' for Active; 'I' for Inactive)
REMARK    1  A    between atoms: C_1  and  C_2
REMARK    2  A    between atoms: C_2  and  C_3
REMARK    3  A    between atoms: C_6  and  C_7
REMARK    4  A    between atoms: C_6  and  C_8
REMARK    5  A    between atoms: C_11  and  C_15
REMARK    6  A    between atoms: C_15  and  C_17
REMARK    7  A    between atoms: C_18  and  C_19
REMARK    8  A    between atoms: C_22  and  C_25
REMARK    9  A    between atoms: C_25  and  O_26
REMARK                            x       y       z     vdW  Elec       q    Type
REMARK                         _______ _______ _______ _____ _____    ______ ____
ROOT
ATOM      1  C   UNL     1       6.064   2.897  24.514  0.00  0.00    +0.016 C 
ATOM      2  C   UNL     1       7.405   2.609  25.227  0.00  0.00    -0.010 C 
ATOM      3  C   UNL     1       7.789   1.138  24.993  0.00  0.00    -0.038 A 
ATOM      4  C   UNL     1       8.824   0.760  24.106  0.00  0.00    -0.037 A 
ATOM      5  C   UNL     1       9.139  -0.613  23.977  0.00  0.00    +0.016 A 
ATOM      6  C   UNL     1       8.420  -1.608  24.651  0.00  0.00    +0.022 A 
ATOM      7  C   UNL     1       7.387  -1.234  25.502  0.00  0.00    +0.012 A 
ATOM      8  C   UNL     1       9.648   1.786  23.314  0.00  0.00    -0.010 C 
ATOM      9  C   UNL     1      11.057   1.881  23.939  0.00  0.00    +0.016 C 
ATOM     10  C   UNL     1       9.798   1.374  21.830  0.00  0.00    +0.016 C 
ATOM     11  C   UNL     1       8.979   3.179  23.315  0.00  0.00    +0.012 C 
ATOM     12  C   UNL     1       7.074   0.119  25.665  0.00  0.00    +0.005 A 
ATOM     13  C   UNL     1       8.493   3.572  24.699  0.00  0.00    +0.012 C 
ATOM     14  C   UNL     1       7.233   2.930  26.730  0.00  0.00    +0.016 C 
ENDROOT
BRANCH   6  15
ATOM     15  C   UNL     1       8.750  -3.054  24.499  0.00  0.00    +0.186 C 
ATOM     16  O   UNL     1       9.894  -3.417  24.249  0.00  0.00    -0.287 OA
BRANCH  15  17
ATOM     17  C   UNL     1       7.639  -4.025  24.705  0.00  0.00    +0.052 C 
ATOM     18  C   UNL     1       6.718  -4.250  23.754  0.00  0.00    +0.012 C 
BRANCH  18  19
ATOM     19  C   UNL     1       5.599  -5.193  23.935  0.00  0.00    -0.025 A 
ATOM     20  C   UNL     1       5.538  -6.067  25.028  0.00  0.00    +0.009 A 
ATOM     21  C   UNL     1       4.459  -6.940  25.190  0.00  0.00    +0.015 A 
ATOM     22  C   UNL     1       3.424  -6.963  24.252  0.00  0.00    +0.059 A 
ATOM     23  C   UNL     1       3.499  -6.135  23.126  0.00  0.00    +0.015 A 
ATOM     24  C   UNL     1       4.580  -5.255  22.973  0.00  0.00    +0.009 A 
BRANCH  22  25
ATOM     25  C   UNL     1       2.305  -7.915  24.481  0.00  0.00    +0.337 C 
ATOM     26  O   UNL     1       1.188  -7.743  24.026  0.00  0.00    -0.245 OA
BRANCH  25  27
ATOM     27  O   UNL     1       2.650  -9.011  25.187  0.00  0.00    -0.477 OA
ATOM     28  H   UNL     1       3.600  -9.094  25.390  0.00  0.00    +0.295 HD
ENDBRANCH  25  27
ENDBRANCH  22  25
ENDBRANCH  18  19
ENDBRANCH  15  17
ENDBRANCH   6  15
TORSDOF 5
ENDMDL
MODEL 9
REMARK VINA RESULT:      -6.8      3.458      9.685
REMARK  Name = 
REMARK  9 active torsions:
REMARK  status: ('A' for Active; 'I' for Inactive)
REMARK    1  A    between atoms: C_1  and  C_2
REMARK    2  A    between atoms: C_2  and  C_3
REMARK    3  A    between atoms: C_6  and  C_7
REMARK    4  A    between atoms: C_6  and  C_8
REMARK    5  A    between atoms: C_11  and  C_15
REMARK    6  A    between atoms: C_15  and  C_17
REMARK    7  A    between atoms: C_18  and  C_19
REMARK    8  A    between atoms: C_22  and  C_25
REMARK    9  A    between atoms: C_25  and  O_26
REMARK                            x       y       z     vdW  Elec       q    Type
REMARK                         _______ _______ _______ _____ _____    ______ ____
ROOT
ATOM      1  C   UNL     1       5.987   6.956  21.866  0.00  0.00    +0.016 C 
ATOM      2  C   UNL     1       6.013   6.150  23.184  0.00  0.00    -0.010 C 
ATOM      3  C   UNL     1       6.801   4.849  22.958  0.00  0.00    -0.038 A 
ATOM      4  C   UNL     1       8.105   4.656  23.471  0.00  0.00    -0.037 A 
ATOM      5  C   UNL     1       8.746   3.414  23.249  0.00  0.00    +0.016 A 
ATOM      6  C   UNL     1       8.154   2.397  22.489  0.00  0.00    +0.022 A 
ATOM      7  C   UNL     1       6.883   2.600  21.966  0.00  0.00    +0.012 A 
ATOM      8  C   UNL     1       8.833   5.727  24.297  0.00  0.00    -0.010 C 
ATOM      9  C   UNL     1       8.852   5.285  25.777  0.00  0.00    +0.016 C 
ATOM     10  C   UNL     1      10.295   5.917  23.824  0.00  0.00    +0.016 C 
ATOM     11  C   UNL     1       8.151   7.107  24.171  0.00  0.00    +0.012 C 
ATOM     12  C   UNL     1       6.220   3.810  22.192  0.00  0.00    +0.005 A 
ATOM     13  C   UNL     1       6.641   7.007  24.307  0.00  0.00    +0.012 C 
ATOM     14  C   UNL     1       4.552   5.874  23.612  0.00  0.00    +0.016 C 
ENDROOT
BRANCH   6  15
ATOM     15  C   UNL     1       8.842   1.097  22.249  0.00  0.00    +0.186 C 
ATOM     16  O   UNL     1       9.828   1.029  21.524  0.00  0.00    -0.287 OA
BRANCH  15  17
ATOM     17  C   UNL     1       8.300  -0.095  22.961  0.00  0.00    +0.052 C 
ATOM     18  C   UNL     1       9.054  -0.802  23.819  0.00  0.00    +0.012 C 
BRANCH  18  19
ATOM     19  C   UNL     1       8.551  -1.994  24.526  0.00  0.00    -0.025 A 
ATOM     20  C   UNL     1       8.649  -3.278  23.974  0.00  0.00    +0.009 A 
ATOM     21  C   UNL     1       8.182  -4.396  24.669  0.00  0.00    +0.015 A 
ATOM     22  C   UNL     1       7.595  -4.249  25.928  0.00  0.00    +0.059 A 
ATOM     23  C   UNL     1       7.440  -2.966  26.468  0.00  0.00    +0.015 A 
ATOM     24  C   UNL     1       7.918  -1.848  25.769  0.00  0.00    +0.009 A 
BRANCH  22  25
ATOM     25  C   UNL     1       7.118  -5.477  26.617  0.00  0.00    +0.337 C 
ATOM     26  O   UNL     1       6.082  -6.042  26.316  0.00  0.00    -0.245 OA
BRANCH  25  27
ATOM     27  O   UNL     1       7.961  -5.941  27.562  0.00  0.00    -0.477 OA
ATOM     28  H   UNL     1       7.752  -5.670  28.476  0.00  0.00    +0.295 HD
ENDBRANCH  25  27
ENDBRANCH  22  25
ENDBRANCH  18  19
ENDBRANCH  15  17
ENDBRANCH   6  15
TORSDOF 5
ENDMDL
