MODEL 1
REMARK VINA RESULT:      -5.3      0.000      0.000
REMARK  Name = 
REMARK  12 active torsions:
REMARK  status: ('A' for Active; 'I' for Inactive)
REMARK    1  A    between atoms: N_1  and  C_2
REMARK    2  A    between atoms: C_2  and  C_3
REMARK    3  A    between atoms: C_3  and  O_4
REMARK    4  A    between atoms: O_4  and  C_5
REMARK    5  A    between atoms: C_5  and  C_6
REMARK    6  A    between atoms: C_6  and  O_7
REMARK    7  A    between atoms: O_7  and  C_8
REMARK    8  A    between atoms: C_8  and  C_9
REMARK    9  A    between atoms: C_9  and  N_10
REMARK   10  A    between atoms: C_11  and  C_13
REMARK   11  A    between atoms: C_16  and  S_19
REMARK   12  A    between atoms: S_19  and  N_20
REMARK                            x       y       z     vdW  Elec       q    Type
REMARK                         _______ _______ _______ _____ _____    ______ ____
ROOT
ATOM      1  N   UNL     1       7.267  -4.404  22.366  0.00  0.00    -0.309 N 
ATOM      2  H   UNL     1       8.255  -4.425  22.580  0.00  0.00    +0.149 HD
ATOM      3  C   UNL     1       6.651  -3.194  22.120  0.00  0.00    +0.244 C 
ATOM      4  O   UNL     1       5.541  -3.088  21.615  0.00  0.00    -0.270 OA
ENDROOT
BRANCH   3   5
ATOM      5  C   UNL     1       7.449  -1.979  22.459  0.00  0.00    +0.037 A 
ATOM      6  C   UNL     1       8.807  -1.872  22.126  0.00  0.00    +0.015 A 
ATOM      7  C   UNL     1       9.505  -0.691  22.393  0.00  0.00    +0.029 A 
ATOM      8  C   UNL     1       8.848   0.373  23.016  0.00  0.00    +0.105 A 
ATOM      9  C   UNL     1       7.504   0.264  23.386  0.00  0.00    +0.029 A 
ATOM     10  C   UNL     1       6.808  -0.918  23.114  0.00  0.00    +0.015 A 
BRANCH   8  11
ATOM     11  S   UNL     1       9.706   1.902  23.260  0.00  0.00    +0.056 S 
ATOM     12  O   UNL     1      10.910   1.651  24.015  0.00  0.00    -0.153 OA
ATOM     13  O   UNL     1       8.753   2.920  23.637  0.00  0.00    -0.153 OA
BRANCH  11  14
ATOM     14  N   UNL     1      10.198   2.280  21.704  0.00  0.00    -0.204 NA
ATOM     15  H   UNL     1       9.681   1.715  21.030  0.00  0.00    +0.144 HD
ATOM     16  H   UNL     1      11.212   2.182  21.629  0.00  0.00    +0.144 HD
ENDBRANCH  11  14
ENDBRANCH   8  11
ENDBRANCH   3   5
BRANCH   1  17
ATOM     17  C   UNL     1       6.641  -5.664  22.015  0.00  0.00    +0.132 C 
BRANCH  17  18
ATOM     18  C   UNL     1       5.665  -6.150  23.085  0.00  0.00    +0.178 C 
BRANCH  18  19
ATOM     19  O   UNL     1       6.209  -5.880  24.377  0.00  0.00    -0.376 OA
BRANCH  19  20
ATOM     20  C   UNL     1       5.366  -5.001  25.123  0.00  0.00    +0.188 C 
BRANCH  20  21
ATOM     21  C   UNL     1       6.224  -4.113  26.017  0.00  0.00    +0.188 C 
BRANCH  21  22
ATOM     22  O   UNL     1       7.521  -3.962  25.438  0.00  0.00    -0.376 OA
BRANCH  22  23
ATOM     23  C   UNL     1       8.549  -4.205  26.406  0.00  0.00    +0.174 C 
BRANCH  23  24
ATOM     24  C   UNL     1       9.726  -4.925  25.736  0.00  0.00    +0.105 C 
BRANCH  24  25
ATOM     25  N   UNL     1       9.305  -5.637  24.525  0.00  0.00    -0.328 NA
ATOM     26  H   UNL     1      10.152  -5.924  24.029  0.00  0.00    +0.118 HD
ATOM     27  H   UNL     1       8.822  -6.493  24.788  0.00  0.00    +0.118 HD
ENDBRANCH  24  25
ENDBRANCH  23  24
ENDBRANCH  22  23
ENDBRANCH  21  22
ENDBRANCH  20  21
ENDBRANCH  19  20
ENDBRANCH  18  19
ENDBRANCH  17  18
ENDBRANCH   1  17
TORSDOF 12
ENDMDL
MODEL 2
REMARK VINA RESULT:      -5.3      1.583      2.965
REMARK  Name = 
REMARK  12 active torsions:
REMARK  status: ('A' for Active; 'I' for Inactive)
REMARK    1  A    between atoms: N_1  and  C_2
REMARK    2  A    between atoms: C_2  and  C_3
REMARK    3  A    between atoms: C_3  and  O_4
REMARK    4  A    between atoms: O_4  and  C_5
REMARK    5  A    between atoms: C_5  and  C_6
REMARK    6  A    between atoms: C_6  and  O_7
REMARK    7  A    between atoms: O_7  and  C_8
REMARK    8  A    between atoms: C_8  and  C_9
REMARK    9  A    between atoms: C_9  and  N_10
REMARK   10  A    between atoms: C_11  and  C_13
REMARK   11  A    between atoms: C_16  and  S_19
REMARK   12  A    between atoms: S_19  and  N_20
REMARK                            x       y       z     vdW  Elec       q    Type
REMARK                         _______ _______ _______ _____ _____    ______ ____
ROOT
ATOM      1  N   UNL     1       8.177  -3.848  25.920  0.00  0.00    -0.309 N 
ATOM      2  H   UNL     1       7.817  -3.048  26.422  0.00  0.00    +0.149 HD
ATOM      3  C   UNL     1       9.136  -3.662  24.945  0.00  0.00    +0.244 C 
ATOM      4  O   UNL     1       9.803  -4.570  24.468  0.00  0.00    -0.270 OA
ENDROOT
BRANCH   3   5
ATOM      5  C   UNL     1       9.368  -2.249  24.524  0.00  0.00    +0.037 A 
ATOM      6  C   UNL     1       9.889  -1.932  23.260  0.00  0.00    +0.015 A 
ATOM      7  C   UNL     1      10.025  -0.598  22.871  0.00  0.00    +0.029 A 
ATOM      8  C   UNL     1       9.662   0.420  23.757  0.00  0.00    +0.105 A 
ATOM      9  C   UNL     1       9.176   0.117  25.033  0.00  0.00    +0.029 A 
ATOM     10  C   UNL     1       9.039  -1.220  25.417  0.00  0.00    +0.015 A 
BRANCH   8  11
ATOM     11  S   UNL     1       9.739   2.106  23.225  0.00  0.00    +0.056 S 
ATOM     12  O   UNL     1      10.987   2.683  23.665  0.00  0.00    -0.153 OA
ATOM     13  O   UNL     1       8.464   2.737  23.475  0.00  0.00    -0.153 OA
BRANCH  11  14
ATOM     14  N   UNL     1       9.859   1.944  21.561  0.00  0.00    -0.204 NA
ATOM     15  H   UNL     1       9.198   1.238  21.234  0.00  0.00    +0.144 HD
ATOM     16  H   UNL     1      10.827   1.751  21.302  0.00  0.00    +0.144 HD
ENDBRANCH  11  14
ENDBRANCH   8  11
ENDBRANCH   3   5
BRANCH   1  17
ATOM     17  C   UNL     1       7.901  -5.158  26.479  0.00  0.00    +0.132 C 
BRANCH  17  18
ATOM     18  C   UNL     1       6.418  -5.518  26.421  0.00  0.00    +0.178 C 
BRANCH  18  19
ATOM     19  O   UNL     1       5.962  -5.422  25.070  0.00  0.00    -0.376 OA
BRANCH  19  20
ATOM     20  C   UNL     1       4.752  -4.669  24.982  0.00  0.00    +0.188 C 
BRANCH  20  21
ATOM     21  C   UNL     1       4.835  -3.712  23.798  0.00  0.00    +0.188 C 
BRANCH  21  22
ATOM     22  O   UNL     1       6.196  -3.579  23.386  0.00  0.00    -0.376 OA
BRANCH  22  23
ATOM     23  C   UNL     1       6.316  -3.695  21.963  0.00  0.00    +0.174 C 
BRANCH  23  24
ATOM     24  C   UNL     1       6.631  -5.149  21.591  0.00  0.00    +0.105 C 
BRANCH  24  25
ATOM     25  N   UNL     1       7.547  -5.767  22.555  0.00  0.00    -0.328 NA
ATOM     26  H   UNL     1       6.976  -6.250  23.253  0.00  0.00    +0.118 HD
ATOM     27  H   UNL     1       8.096  -6.485  22.087  0.00  0.00    +0.118 HD
ENDBRANCH  24  25
ENDBRANCH  23  24
ENDBRANCH  22  23
ENDBRANCH  21  22
ENDBRANCH  20  21
ENDBRANCH  19  20
ENDBRANCH  18  19
ENDBRANCH  17  18
ENDBRANCH   1  17
TORSDOF 12
ENDMDL
MODEL 3
REMARK VINA RESULT:      -5.2      3.660      8.169
REMARK  Name = 
REMARK  12 active torsions:
REMARK  status: ('A' for Active; 'I' for Inactive)
REMARK    1  A    between atoms: N_1  and  C_2
REMARK    2  A    between atoms: C_2  and  C_3
REMARK    3  A    between atoms: C_3  and  O_4
REMARK    4  A    between atoms: O_4  and  C_5
REMARK    5  A    between atoms: C_5  and  C_6
REMARK    6  A    between atoms: C_6  and  O_7
REMARK    7  A    between atoms: O_7  and  C_8
REMARK    8  A    between atoms: C_8  and  C_9
REMARK    9  A    between atoms: C_9  and  N_10
REMARK   10  A    between atoms: C_11  and  C_13
REMARK   11  A    between atoms: C_16  and  S_19
REMARK   12  A    between atoms: S_19  and  N_20
REMARK                            x       y       z     vdW  Elec       q    Type
REMARK                         _______ _______ _______ _____ _____    ______ ____
ROOT
ATOM      1  N   UNL     1       8.323   1.707  25.016  0.00  0.00    -0.309 N 
ATOM      2  H   UNL     1       7.433   1.230  25.049  0.00  0.00    +0.149 HD
ATOM      3  C   UNL     1       9.477   0.980  24.808  0.00  0.00    +0.244 C 
ATOM      4  O   UNL     1      10.551   1.484  24.506  0.00  0.00    -0.270 OA
ENDROOT
BRANCH   3   5
ATOM      5  C   UNL     1       9.339  -0.502  24.916  0.00  0.00    +0.037 A 
ATOM      6  C   UNL     1       8.663  -1.104  25.988  0.00  0.00    +0.015 A 
ATOM      7  C   UNL     1       8.489  -2.489  26.021  0.00  0.00    +0.029 A 
ATOM      8  C   UNL     1       9.013  -3.275  24.992  0.00  0.00    +0.105 A 
ATOM      9  C   UNL     1       9.722  -2.690  23.937  0.00  0.00    +0.029 A 
ATOM     10  C   UNL     1       9.891  -1.303  23.906  0.00  0.00    +0.015 A 
BRANCH   8  11
ATOM     11  S   UNL     1       8.704  -5.017  24.982  0.00  0.00    +0.056 S 
ATOM     12  O   UNL     1       8.461  -5.446  23.626  0.00  0.00    -0.153 OA
ATOM     13  O   UNL     1       7.809  -5.342  26.069  0.00  0.00    -0.153 OA
BRANCH  11  14
ATOM     14  N   UNL     1      10.199  -5.641  25.410  0.00  0.00    -0.204 NA
ATOM     15  H   UNL     1      10.078  -6.541  25.877  0.00  0.00    +0.144 HD
ATOM     16  H   UNL     1      10.713  -4.957  25.967  0.00  0.00    +0.144 HD
ENDBRANCH  11  14
ENDBRANCH   8  11
ENDBRANCH   3   5
BRANCH   1  17
ATOM     17  C   UNL     1       8.293   3.150  24.868  0.00  0.00    +0.132 C 
BRANCH  17  18
ATOM     18  C   UNL     1       7.575   3.592  23.594  0.00  0.00    +0.178 C 
BRANCH  18  19
ATOM     19  O   UNL     1       8.299   4.669  22.996  0.00  0.00    -0.376 OA
BRANCH  19  20
ATOM     20  C   UNL     1       8.163   5.871  23.754  0.00  0.00    +0.188 C 
BRANCH  20  21
ATOM     21  C   UNL     1       9.505   6.592  23.808  0.00  0.00    +0.188 C 
BRANCH  21  22
ATOM     22  O   UNL     1      10.478   5.743  24.418  0.00  0.00    -0.376 OA
BRANCH  22  23
ATOM     23  C   UNL     1      11.787   6.002  23.896  0.00  0.00    +0.174 C 
BRANCH  23  24
ATOM     24  C   UNL     1      12.335   4.734  23.229  0.00  0.00    +0.105 C 
BRANCH  24  25
ATOM     25  N   UNL     1      11.264   3.782  22.919  0.00  0.00    -0.328 NA
ATOM     26  H   UNL     1      11.563   3.238  22.106  0.00  0.00    +0.118 HD
ATOM     27  H   UNL     1      11.168   3.120  23.687  0.00  0.00    +0.118 HD
ENDBRANCH  24  25
ENDBRANCH  23  24
ENDBRANCH  22  23
ENDBRANCH  21  22
ENDBRANCH  20  21
ENDBRANCH  19  20
ENDBRANCH  18  19
ENDBRANCH  17  18
ENDBRANCH   1  17
TORSDOF 12
ENDMDL
MODEL 4
REMARK VINA RESULT:      -5.1      1.496      2.084
REMARK  Name = 
REMARK  12 active torsions:
REMARK  status: ('A' for Active; 'I' for Inactive)
REMARK    1  A    between atoms: N_1  and  C_2
REMARK    2  A    between atoms: C_2  and  C_3
REMARK    3  A    between atoms: C_3  and  O_4
REMARK    4  A    between atoms: O_4  and  C_5
REMARK    5  A    between atoms: C_5  and  C_6
REMARK    6  A    between atoms: C_6  and  O_7
REMARK    7  A    between atoms: O_7  and  C_8
REMARK    8  A    between atoms: C_8  and  C_9
REMARK    9  A    between atoms: C_9  and  N_10
REMARK   10  A    between atoms: C_11  and  C_13
REMARK   11  A    between atoms: C_16  and  S_19
REMARK   12  A    between atoms: S_19  and  N_20
REMARK                            x       y       z     vdW  Elec       q    Type
REMARK                         _______ _______ _______ _____ _____    ______ ____
ROOT
ATOM      1  N   UNL     1       7.368  -4.377  22.376  0.00  0.00    -0.309 N 
ATOM      2  H   UNL     1       6.844  -3.668  21.882  0.00  0.00    +0.149 HD
ATOM      3  C   UNL     1       8.272  -4.000  23.349  0.00  0.00    +0.244 C 
ATOM      4  O   UNL     1       8.759  -4.775  24.160  0.00  0.00    -0.270 OA
ENDROOT
BRANCH   3   5
ATOM      5  C   UNL     1       8.598  -2.544  23.402  0.00  0.00    +0.037 A 
ATOM      6  C   UNL     1       9.851  -2.084  23.835  0.00  0.00    +0.015 A 
ATOM      7  C   UNL     1      10.147  -0.719  23.803  0.00  0.00    +0.029 A 
ATOM      8  C   UNL     1       9.180   0.187  23.361  0.00  0.00    +0.105 A 
ATOM      9  C   UNL     1       7.915  -0.256  22.963  0.00  0.00    +0.029 A 
ATOM     10  C   UNL     1       7.623  -1.623  22.993  0.00  0.00    +0.015 A 
BRANCH   8  11
ATOM     11  S   UNL     1       9.592   1.903  23.226  0.00  0.00    +0.056 S 
ATOM     12  O   UNL     1      10.825   2.149  23.935  0.00  0.00    -0.153 OA
ATOM     13  O   UNL     1       8.402   2.691  23.445  0.00  0.00    -0.153 OA
BRANCH  11  14
ATOM     14  N   UNL     1       9.952   2.050  21.596  0.00  0.00    -0.204 NA
ATOM     15  H   UNL     1      10.014   1.124  21.170  0.00  0.00    +0.144 HD
ATOM     16  H   UNL     1      10.796   2.613  21.478  0.00  0.00    +0.144 HD
ENDBRANCH  11  14
ENDBRANCH   8  11
ENDBRANCH   3   5
BRANCH   1  17
ATOM     17  C   UNL     1       6.903  -5.745  22.258  0.00  0.00    +0.132 C 
BRANCH  17  18
ATOM     18  C   UNL     1       5.393  -5.832  22.037  0.00  0.00    +0.178 C 
BRANCH  18  19
ATOM     19  O   UNL     1       4.755  -4.747  22.713  0.00  0.00    -0.376 OA
BRANCH  19  20
ATOM     20  C   UNL     1       3.550  -5.170  23.352  0.00  0.00    +0.188 C 
BRANCH  20  21
ATOM     21  C   UNL     1       3.849  -5.545  24.800  0.00  0.00    +0.188 C 
BRANCH  21  22
ATOM     22  O   UNL     1       5.079  -4.943  25.204  0.00  0.00    -0.376 OA
BRANCH  22  23
ATOM     23  C   UNL     1       5.869  -5.857  25.975  0.00  0.00    +0.174 C 
BRANCH  23  24
ATOM     24  C   UNL     1       6.693  -5.079  27.009  0.00  0.00    +0.105 C 
BRANCH  24  25
ATOM     25  N   UNL     1       8.058  -5.603  27.118  0.00  0.00    -0.328 NA
ATOM     26  H   UNL     1       8.218  -5.839  28.100  0.00  0.00    +0.118 HD
ATOM     27  H   UNL     1       8.126  -6.477  26.599  0.00  0.00    +0.118 HD
ENDBRANCH  24  25
ENDBRANCH  23  24
ENDBRANCH  22  23
ENDBRANCH  21  22
ENDBRANCH  20  21
ENDBRANCH  19  20
ENDBRANCH  18  19
ENDBRANCH  17  18
ENDBRANCH   1  17
TORSDOF 12
ENDMDL
MODEL 5
REMARK VINA RESULT:      -5.1      4.006      7.826
REMARK  Name = 
REMARK  12 active torsions:
REMARK  status: ('A' for Active; 'I' for Inactive)
REMARK    1  A    between atoms: N_1  and  C_2
REMARK    2  A    between atoms: C_2  and  C_3
REMARK    3  A    between atoms: C_3  and  O_4
REMARK    4  A    between atoms: O_4  and  C_5
REMARK    5  A    between atoms: C_5  and  C_6
REMARK    6  A    between atoms: C_6  and  O_7
REMARK    7  A    between atoms: O_7  and  C_8
REMARK    8  A    between atoms: C_8  and  C_9
REMARK    9  A    between atoms: C_9  and  N_10
REMARK   10  A    between atoms: C_11  and  C_13
REMARK   11  A    between atoms: C_16  and  S_19
REMARK   12  A    between atoms: S_19  and  N_20
REMARK                            x       y       z     vdW  Elec       q    Type
REMARK                         _______ _______ _______ _____ _____    ______ ____
ROOT
ATOM      1  N   UNL     1       9.675   4.587  23.544  0.00  0.00    -0.309 N 
ATOM      2  H   UNL     1       8.731   4.228  23.542  0.00  0.00    +0.149 HD
ATOM      3  C   UNL     1      10.733   3.718  23.367  0.00  0.00    +0.244 C 
ATOM      4  O   UNL     1      11.872   4.080  23.108  0.00  0.00    -0.270 OA
ENDROOT
BRANCH   3   5
ATOM      5  C   UNL     1      10.401   2.265  23.456  0.00  0.00    +0.037 A 
ATOM      6  C   UNL     1      10.175   1.634  24.688  0.00  0.00    +0.015 A 
ATOM      7  C   UNL     1       9.794   0.291  24.730  0.00  0.00    +0.029 A 
ATOM      8  C   UNL     1       9.664  -0.427  23.539  0.00  0.00    +0.105 A 
ATOM      9  C   UNL     1       9.922   0.181  22.306  0.00  0.00    +0.029 A 
ATOM     10  C   UNL     1      10.300   1.527  22.268  0.00  0.00    +0.015 A 
BRANCH   8  11
ATOM     11  S   UNL     1       9.083  -2.099  23.588  0.00  0.00    +0.056 S 
ATOM     12  O   UNL     1       8.004  -2.195  24.541  0.00  0.00    -0.153 OA
ATOM     13  O   UNL     1      10.219  -2.990  23.612  0.00  0.00    -0.153 OA
BRANCH  11  14
ATOM     14  N   UNL     1       8.388  -2.273  22.073  0.00  0.00    -0.204 NA
ATOM     15  H   UNL     1       8.912  -1.728  21.387  0.00  0.00    +0.144 HD
ATOM     16  H   UNL     1       7.397  -2.032  22.119  0.00  0.00    +0.144 HD
ENDBRANCH  11  14
ENDBRANCH   8  11
ENDBRANCH   3   5
BRANCH   1  17
ATOM     17  C   UNL     1       9.837   6.022  23.410  0.00  0.00    +0.132 C 
BRANCH  17  18
ATOM     18  C   UNL     1       8.507   6.744  23.200  0.00  0.00    +0.178 C 
BRANCH  18  19
ATOM     19  O   UNL     1       7.746   6.050  22.210  0.00  0.00    -0.376 OA
BRANCH  19  20
ATOM     20  C   UNL     1       6.404   5.829  22.647  0.00  0.00    +0.188 C 
BRANCH  20  21
ATOM     21  C   UNL     1       6.143   4.330  22.744  0.00  0.00    +0.188 C 
BRANCH  21  22
ATOM     22  O   UNL     1       7.193   3.619  22.087  0.00  0.00    -0.376 OA
BRANCH  22  23
ATOM     23  C   UNL     1       6.857   2.235  21.930  0.00  0.00    +0.174 C 
BRANCH  23  24
ATOM     24  C   UNL     1       6.519   1.630  23.299  0.00  0.00    +0.105 C 
BRANCH  24  25
ATOM     25  N   UNL     1       6.300   0.183  23.211  0.00  0.00    -0.328 NA
ATOM     26  H   UNL     1       6.208  -0.053  22.219  0.00  0.00    +0.118 HD
ATOM     27  H   UNL     1       7.127  -0.305  23.546  0.00  0.00    +0.118 HD
ENDBRANCH  24  25
ENDBRANCH  23  24
ENDBRANCH  22  23
ENDBRANCH  21  22
ENDBRANCH  20  21
ENDBRANCH  19  20
ENDBRANCH  18  19
ENDBRANCH  17  18
ENDBRANCH   1  17
TORSDOF 12
ENDMDL
MODEL 6
REMARK VINA RESULT:      -5.1      1.921      2.471
REMARK  Name = 
REMARK  12 active torsions:
REMARK  status: ('A' for Active; 'I' for Inactive)
REMARK    1  A    between atoms: N_1  and  C_2
REMARK    2  A    between atoms: C_2  and  C_3
REMARK    3  A    between atoms: C_3  and  O_4
REMARK    4  A    between atoms: O_4  and  C_5
REMARK    5  A    between atoms: C_5  and  C_6
REMARK    6  A    between atoms: C_6  and  O_7
REMARK    7  A    between atoms: O_7  and  C_8
REMARK    8  A    between atoms: C_8  and  C_9
REMARK    9  A    between atoms: C_9  and  N_10
REMARK   10  A    between atoms: C_11  and  C_13
REMARK   11  A    between atoms: C_16  and  S_19
REMARK   12  A    between atoms: S_19  and  N_20
REMARK                            x       y       z     vdW  Elec       q    Type
REMARK                         _______ _______ _______ _____ _____    ______ ____
ROOT
ATOM      1  N   UNL     1       8.098  -2.317  22.758  0.00  0.00    -0.309 N 
ATOM      2  H   UNL     1       7.310  -1.700  22.901  0.00  0.00    +0.149 HD
ATOM      3  C   UNL     1       9.375  -1.854  23.002  0.00  0.00    +0.244 C 
ATOM      4  O   UNL     1      10.353  -2.583  23.100  0.00  0.00    -0.270 OA
ENDROOT
BRANCH   3   5
ATOM      5  C   UNL     1       9.505  -0.381  23.204  0.00  0.00    +0.037 A 
ATOM      6  C   UNL     1       9.826   0.483  22.146  0.00  0.00    +0.015 A 
ATOM      7  C   UNL     1       9.867   1.863  22.354  0.00  0.00    +0.029 A 
ATOM      8  C   UNL     1       9.611   2.377  23.627  0.00  0.00    +0.105 A 
ATOM      9  C   UNL     1       9.326   1.524  24.698  0.00  0.00    +0.029 A 
ATOM     10  C   UNL     1       9.283   0.143  24.485  0.00  0.00    +0.015 A 
BRANCH   8  11
ATOM     11  S   UNL     1       9.564   4.130  23.865  0.00  0.00    +0.056 S 
ATOM     12  O   UNL     1      10.860   4.683  23.556  0.00  0.00    -0.153 OA
ATOM     13  O   UNL     1       8.873   4.419  25.101  0.00  0.00    -0.153 OA
BRANCH  11  14
ATOM     14  N   UNL     1       8.538   4.624  22.635  0.00  0.00    -0.204 NA
ATOM     15  H   UNL     1       7.822   3.914  22.475  0.00  0.00    +0.144 HD
ATOM     16  H   UNL     1       9.083   4.852  21.802  0.00  0.00    +0.144 HD
ENDBRANCH  11  14
ENDBRANCH   8  11
ENDBRANCH   3   5
BRANCH   1  17
ATOM     17  C   UNL     1       7.813  -3.732  22.618  0.00  0.00    +0.132 C 
BRANCH  17  18
ATOM     18  C   UNL     1       6.331  -4.008  22.367  0.00  0.00    +0.178 C 
BRANCH  18  19
ATOM     19  O   UNL     1       5.622  -3.937  23.605  0.00  0.00    -0.376 OA
BRANCH  19  20
ATOM     20  C   UNL     1       5.630  -5.195  24.281  0.00  0.00    +0.188 C 
BRANCH  20  21
ATOM     21  C   UNL     1       6.051  -4.988  25.732  0.00  0.00    +0.188 C 
BRANCH  21  22
ATOM     22  O   UNL     1       7.179  -5.812  26.024  0.00  0.00    -0.376 OA
BRANCH  22  23
ATOM     23  C   UNL     1       8.147  -5.101  26.806  0.00  0.00    +0.174 C 
BRANCH  23  24
ATOM     24  C   UNL     1       9.262  -4.577  25.891  0.00  0.00    +0.105 C 
BRANCH  24  25
ATOM     25  N   UNL     1      10.022  -5.674  25.284  0.00  0.00    -0.328 NA
ATOM     26  H   UNL     1      10.280  -6.320  26.034  0.00  0.00    +0.118 HD
ATOM     27  H   UNL     1       9.417  -6.195  24.653  0.00  0.00    +0.118 HD
ENDBRANCH  24  25
ENDBRANCH  23  24
ENDBRANCH  22  23
ENDBRANCH  21  22
ENDBRANCH  20  21
ENDBRANCH  19  20
ENDBRANCH  18  19
ENDBRANCH  17  18
ENDBRANCH   1  17
TORSDOF 12
ENDMDL
MODEL 7
REMARK VINA RESULT:      -5.0      3.335      7.736
REMARK  Name = 
REMARK  12 active torsions:
REMARK  status: ('A' for Active; 'I' for Inactive)
REMARK    1  A    between atoms: N_1  and  C_2
REMARK    2  A    between atoms: C_2  and  C_3
REMARK    3  A    between atoms: C_3  and  O_4
REMARK    4  A    between atoms: O_4  and  C_5
REMARK    5  A    between atoms: C_5  and  C_6
REMARK    6  A    between atoms: C_6  and  O_7
REMARK    7  A    between atoms: O_7  and  C_8
REMARK    8  A    between atoms: C_8  and  C_9
REMARK    9  A    between atoms: C_9  and  N_10
REMARK   10  A    between atoms: C_11  and  C_13
REMARK   11  A    between atoms: C_16  and  S_19
REMARK   12  A    between atoms: S_19  and  N_20
REMARK                            x       y       z     vdW  Elec       q    Type
REMARK                         _______ _______ _______ _____ _____    ______ ____
ROOT
ATOM      1  N   UNL     1       9.781  -0.629  24.127  0.00  0.00    -0.309 N 
ATOM      2  H   UNL     1       8.925  -0.423  24.624  0.00  0.00    +0.149 HD
ATOM      3  C   UNL     1       9.797  -1.644  23.193  0.00  0.00    +0.244 C 
ATOM      4  O   UNL     1      10.694  -1.800  22.376  0.00  0.00    -0.270 OA
ENDROOT
BRANCH   3   5
ATOM      5  C   UNL     1       8.603  -2.540  23.187  0.00  0.00    +0.037 A 
ATOM      6  C   UNL     1       7.512  -2.310  22.337  0.00  0.00    +0.015 A 
ATOM      7  C   UNL     1       6.444  -3.209  22.305  0.00  0.00    +0.029 A 
ATOM      8  C   UNL     1       6.457  -4.326  23.144  0.00  0.00    +0.105 A 
ATOM      9  C   UNL     1       7.522  -4.547  24.023  0.00  0.00    +0.029 A 
ATOM     10  C   UNL     1       8.591  -3.646  24.049  0.00  0.00    +0.015 A 
BRANCH   8  11
ATOM     11  S   UNL     1       5.152  -5.517  23.029  0.00  0.00    +0.056 S 
ATOM     12  O   UNL     1       3.920  -4.836  22.711  0.00  0.00    -0.153 OA
ATOM     13  O   UNL     1       5.263  -6.443  24.132  0.00  0.00    -0.153 OA
BRANCH  11  14
ATOM     14  N   UNL     1       5.581  -6.376  21.656  0.00  0.00    -0.204 NA
ATOM     15  H   UNL     1       6.469  -6.027  21.293  0.00  0.00    +0.144 HD
ATOM     16  H   UNL     1       4.819  -6.345  20.977  0.00  0.00    +0.144 HD
ENDBRANCH  11  14
ENDBRANCH   8  11
ENDBRANCH   3   5
BRANCH   1  17
ATOM     17  C   UNL     1      10.838   0.362  24.196  0.00  0.00    +0.132 C 
BRANCH  17  18
ATOM     18  C   UNL     1      10.351   1.764  23.837  0.00  0.00    +0.178 C 
BRANCH  18  19
ATOM     19  O   UNL     1      10.160   1.849  22.423  0.00  0.00    -0.376 OA
BRANCH  19  20
ATOM     20  C   UNL     1       8.830   2.257  22.102  0.00  0.00    +0.188 C 
BRANCH  20  21
ATOM     21  C   UNL     1       8.132   2.752  23.364  0.00  0.00    +0.188 C 
BRANCH  21  22
ATOM     22  O   UNL     1       7.535   4.024  23.111  0.00  0.00    -0.376 OA
BRANCH  22  23
ATOM     23  C   UNL     1       8.311   5.081  23.689  0.00  0.00    +0.174 C 
BRANCH  23  24
ATOM     24  C   UNL     1       8.269   6.310  22.771  0.00  0.00    +0.105 C 
BRANCH  24  25
ATOM     25  N   UNL     1       7.517   6.040  21.542  0.00  0.00    -0.328 NA
ATOM     26  H   UNL     1       7.852   5.150  21.166  0.00  0.00    +0.118 HD
ATOM     27  H   UNL     1       6.534   5.903  21.772  0.00  0.00    +0.118 HD
ENDBRANCH  24  25
ENDBRANCH  23  24
ENDBRANCH  22  23
ENDBRANCH  21  22
ENDBRANCH  20  21
ENDBRANCH  19  20
ENDBRANCH  18  19
ENDBRANCH  17  18
ENDBRANCH   1  17
TORSDOF 12
ENDMDL
MODEL 8
REMARK VINA RESULT:      -5.0      3.534      7.793
REMARK  Name = 
REMARK  12 active torsions:
REMARK  status: ('A' for Active; 'I' for Inactive)
REMARK    1  A    between atoms: N_1  and  C_2
REMARK    2  A    between atoms: C_2  and  C_3
REMARK    3  A    between atoms: C_3  and  O_4
REMARK    4  A    between atoms: O_4  and  C_5
REMARK    5  A    between atoms: C_5  and  C_6
REMARK    6  A    between atoms: C_6  and  O_7
REMARK    7  A    between atoms: O_7  and  C_8
REMARK    8  A    between atoms: C_8  and  C_9
REMARK    9  A    between atoms: C_9  and  N_10
REMARK   10  A    between atoms: C_11  and  C_13
REMARK   11  A    between atoms: C_16  and  S_19
REMARK   12  A    between atoms: S_19  and  N_20
REMARK                            x       y       z     vdW  Elec       q    Type
REMARK                         _______ _______ _______ _____ _____    ______ ____
ROOT
ATOM      1  N   UNL     1       8.203   1.218  22.675  0.00  0.00    -0.309 N 
ATOM      2  H   UNL     1       7.545   1.163  23.440  0.00  0.00    +0.149 HD
ATOM      3  C   UNL     1       8.811   0.067  22.218  0.00  0.00    +0.244 C 
ATOM      4  O   UNL     1       9.416  -0.006  21.157  0.00  0.00    -0.270 OA
ENDROOT
BRANCH   3   5
ATOM      5  C   UNL     1       8.645  -1.141  23.080  0.00  0.00    +0.037 A 
ATOM      6  C   UNL     1       8.194  -2.363  22.560  0.00  0.00    +0.015 A 
ATOM      7  C   UNL     1       8.121  -3.491  23.379  0.00  0.00    +0.029 A 
ATOM      8  C   UNL     1       8.475  -3.390  24.726  0.00  0.00    +0.105 A 
ATOM      9  C   UNL     1       8.890  -2.168  25.266  0.00  0.00    +0.029 A 
ATOM     10  C   UNL     1       8.966  -1.042  24.442  0.00  0.00    +0.015 A 
BRANCH   8  11
ATOM     11  S   UNL     1       8.478  -4.843  25.738  0.00  0.00    +0.056 S 
ATOM     12  O   UNL     1       7.269  -5.592  25.490  0.00  0.00    -0.153 OA
ATOM     13  O   UNL     1       8.910  -4.488  27.069  0.00  0.00    -0.153 OA
BRANCH  11  14
ATOM     14  N   UNL     1       9.727  -5.735  25.066  0.00  0.00    -0.204 NA
ATOM     15  H   UNL     1      10.461  -5.108  24.735  0.00  0.00    +0.144 HD
ATOM     16  H   UNL     1       9.359  -6.354  24.342  0.00  0.00    +0.144 HD
ENDBRANCH  11  14
ENDBRANCH   8  11
ENDBRANCH   3   5
BRANCH   1  17
ATOM     17  C   UNL     1       8.217   2.446  21.903  0.00  0.00    +0.132 C 
BRANCH  17  18
ATOM     18  C   UNL     1       7.231   3.484  22.436  0.00  0.00    +0.178 C 
BRANCH  18  19
ATOM     19  O   UNL     1       7.950   4.644  22.859  0.00  0.00    -0.376 OA
BRANCH  19  20
ATOM     20  C   UNL     1       8.296   4.566  24.242  0.00  0.00    +0.188 C 
BRANCH  20  21
ATOM     21  C   UNL     1       9.514   5.443  24.511  0.00  0.00    +0.188 C 
BRANCH  21  22
ATOM     22  O   UNL     1      10.403   5.379  23.395  0.00  0.00    -0.376 OA
BRANCH  22  23
ATOM     23  C   UNL     1      11.733   5.752  23.776  0.00  0.00    +0.174 C 
BRANCH  23  24
ATOM     24  C   UNL     1      12.721   4.674  23.313  0.00  0.00    +0.105 C 
BRANCH  24  25
ATOM     25  N   UNL     1      14.060   5.228  23.092  0.00  0.00    -0.328 NA
ATOM     26  H   UNL     1      14.219   5.252  22.082  0.00  0.00    +0.118 HD
ATOM     27  H   UNL     1      14.082   6.195  23.408  0.00  0.00    +0.118 HD
ENDBRANCH  24  25
ENDBRANCH  23  24
ENDBRANCH  22  23
ENDBRANCH  21  22
ENDBRANCH  20  21
ENDBRANCH  19  20
ENDBRANCH  18  19
ENDBRANCH  17  18
ENDBRANCH   1  17
TORSDOF 12
ENDMDL
MODEL 9
REMARK VINA RESULT:      -4.9      3.564      7.688
REMARK  Name = 
REMARK  12 active torsions:
REMARK  status: ('A' for Active; 'I' for Inactive)
REMARK    1  A    between atoms: N_1  and  C_2
REMARK    2  A    between atoms: C_2  and  C_3
REMARK    3  A    between atoms: C_3  and  O_4
REMARK    4  A    between atoms: O_4  and  C_5
REMARK    5  A    between atoms: C_5  and  C_6
REMARK    6  A    between atoms: C_6  and  O_7
REMARK    7  A    between atoms: O_7  and  C_8
REMARK    8  A    between atoms: C_8  and  C_9
REMARK    9  A    between atoms: C_9  and  N_10
REMARK   10  A    between atoms: C_11  and  C_13
REMARK   11  A    between atoms: C_16  and  S_19
REMARK   12  A    between atoms: S_19  and  N_20
REMARK                            x       y       z     vdW  Elec       q    Type
REMARK                         _______ _______ _______ _____ _____    ______ ____
ROOT
ATOM      1  N   UNL     1       8.823  -0.870  22.417  0.00  0.00    -0.309 N 
ATOM      2  H   UNL     1       7.827  -0.789  22.573  0.00  0.00    +0.149 HD
ATOM      3  C   UNL     1       9.517  -1.919  22.984  0.00  0.00    +0.244 C 
ATOM      4  O   UNL     1      10.651  -2.239  22.655  0.00  0.00    -0.270 OA
ENDROOT
BRANCH   3   5
ATOM      5  C   UNL     1       8.775  -2.707  24.013  0.00  0.00    +0.037 A 
ATOM      6  C   UNL     1       7.466  -2.376  24.393  0.00  0.00    +0.015 A 
ATOM      7  C   UNL     1       6.775  -3.178  25.304  0.00  0.00    +0.029 A 
ATOM      8  C   UNL     1       7.405  -4.297  25.855  0.00  0.00    +0.105 A 
ATOM      9  C   UNL     1       8.723  -4.615  25.512  0.00  0.00    +0.029 A 
ATOM     10  C   UNL     1       9.410  -3.812  24.597  0.00  0.00    +0.015 A 
BRANCH   8  11
ATOM     11  S   UNL     1       6.495  -5.367  26.931  0.00  0.00    +0.056 S 
ATOM     12  O   UNL     1       7.387  -5.896  27.935  0.00  0.00    -0.153 OA
ATOM     13  O   UNL     1       5.635  -6.213  26.135  0.00  0.00    -0.153 OA
BRANCH  11  14
ATOM     14  N   UNL     1       5.483  -4.291  27.723  0.00  0.00    -0.204 NA
ATOM     15  H   UNL     1       5.855  -3.344  27.643  0.00  0.00    +0.144 HD
ATOM     16  H   UNL     1       5.341  -4.596  28.686  0.00  0.00    +0.144 HD
ENDBRANCH  11  14
ENDBRANCH   8  11
ENDBRANCH   3   5
BRANCH   1  17
ATOM     17  C   UNL     1       9.391  -0.067  21.351  0.00  0.00    +0.132 C 
BRANCH  17  18
ATOM     18  C   UNL     1       9.690   1.365  21.793  0.00  0.00    +0.178 C 
BRANCH  18  19
ATOM     19  O   UNL     1       8.467   2.097  21.879  0.00  0.00    -0.376 OA
BRANCH  19  20
ATOM     20  C   UNL     1       8.407   2.870  23.077  0.00  0.00    +0.188 C 
BRANCH  20  21
ATOM     21  C   UNL     1       9.781   2.887  23.739  0.00  0.00    +0.188 C 
BRANCH  21  22
ATOM     22  O   UNL     1      10.346   4.195  23.634  0.00  0.00    -0.376 OA
BRANCH  22  23
ATOM     23  C   UNL     1      11.758   4.128  23.400  0.00  0.00    +0.174 C 
BRANCH  23  24
ATOM     24  C   UNL     1      12.302   5.538  23.137  0.00  0.00    +0.105 C 
BRANCH  24  25
ATOM     25  N   UNL     1      12.887   6.125  24.346  0.00  0.00    -0.328 NA
ATOM     26  H   UNL     1      12.135   6.600  24.851  0.00  0.00    +0.118 HD
ATOM     27  H   UNL     1      13.217   5.381  24.957  0.00  0.00    +0.118 HD
ENDBRANCH  24  25
ENDBRANCH  23  24
ENDBRANCH  22  23
ENDBRANCH  21  22
ENDBRANCH  20  21
ENDBRANCH  19  20
ENDBRANCH  18  19
ENDBRANCH  17  18
ENDBRANCH   1  17
TORSDOF 12
ENDMDL
