MODEL 1
REMARK VINA RESULT:      -8.4      0.000      0.000
REMARK  Name = 
REMARK  10 active torsions:
REMARK  status: ('A' for Active; 'I' for Inactive)
REMARK    1  A    between atoms: CA_2  and  N_3
REMARK    2  A    between atoms: CA_2  and  CB_25
REMARK    3  A    between atoms: CA_2  and  C_28
REMARK    4  A    between atoms: C_4  and  C_6
REMARK    5  A    between atoms: C_9  and  C_10
REMARK    6  A    between atoms: C_10  and  C_11
REMARK    7  A    between atoms: C_11  and  C_12
REMARK    8  A    between atoms: CB_25  and  CG1_26
REMARK    9  A    between atoms: CB_25  and  CG2_27
REMARK   10  A    between atoms: C_28  and  O_29
REMARK                            x       y       z     vdW  Elec       q    Type
REMARK                         _______ _______ _______ _____ _____    ______ ____
ROOT
ATOM      1  C   UNK A   0      10.307   1.544  23.306  0.00  0.00    +0.037 A 
ATOM      2  C   UNK A   0      10.467   0.899  24.540  0.00  0.00    +0.013 A 
ATOM      3  C   UNK A   0      10.319  -0.484  24.640  0.00  0.00    +0.004 A 
ATOM      4  C   UNK A   0      10.017  -1.247  23.505  0.00  0.00    -0.047 A 
ATOM      5  C   UNK A   0       9.908  -0.598  22.268  0.00  0.00    +0.004 A 
ATOM      6  C   UNK A   0      10.059   0.784  22.163  0.00  0.00    +0.013 A 
ENDROOT
BRANCH   1   9
ATOM      7  N   VAL A   1      11.510   3.683  23.501  0.00  0.00    -0.298 N 
ATOM      8  H   VAL A   1      12.339   3.180  23.781  0.00  0.00    +0.150 HD
ATOM      9  C   UNK A   0      10.318   3.026  23.306  0.00  0.00    +0.245 C 
ATOM     10  O   UNK A   0       9.277   3.653  23.111  0.00  0.00    -0.270 OA
BRANCH   7  11
ATOM     11  CA  VAL A   1      11.667   5.127  23.290  0.00  0.00    +0.184 C 
BRANCH  11  12
ATOM     12  CB  VAL A   1      11.292   5.977  24.532  0.00  0.00    +0.014 C 
ATOM     13  CG2 VAL A   1      10.010   6.790  24.296  0.00  0.00    +0.009 C 
ATOM     14  CG1 VAL A   1      12.423   6.927  24.933  0.00  0.00    +0.009 C 
ENDBRANCH  11  12
BRANCH  11  15
ATOM     15  C   VAL A   1      13.070   5.435  22.736  0.00  0.00    +0.326 C 
ATOM     16  OXT VAL A   1      13.261   6.212  21.809  0.00  0.00    -0.249 OA
BRANCH  15  17
ATOM     17  O   VAL A   1      14.089   4.808  23.363  0.00  0.00    -0.479 OA
ATOM     18  H   VAL A   1      14.396   5.294  24.170  0.00  0.00    +0.295 HD
ENDBRANCH  15  17
ENDBRANCH  11  15
ENDBRANCH   7  11
ENDBRANCH   1   9
BRANCH   4  19
ATOM     19  C   UNK A   0       9.709  -2.718  23.668  0.00  0.00    +0.040 C 
BRANCH  19  20
ATOM     20  C   UNK A   0       8.796  -3.051  24.850  0.00  0.00    +0.042 C 
BRANCH  20  21
ATOM     21  C   UNK A   0       7.597  -3.838  24.451  0.00  0.00    -0.015 A 
ATOM     22  C   UNK A   0       6.893  -4.798  25.234  0.00  0.00    +0.086 A 
ATOM     23  C   UNK A   0       7.059  -5.350  26.558  0.00  0.00    +0.262 A 
ATOM     24  N   UNK A   0       6.040  -6.219  26.907  0.00  0.00    -0.295 N 
ATOM     25  H   UNK A   0       6.088  -6.590  27.841  0.00  0.00    +0.172 HD
ATOM     26  C   UNK A   0       4.979  -6.540  26.088  0.00  0.00    +0.195 A 
ATOM     27  N   UNK A   0       4.833  -6.079  24.877  0.00  0.00    -0.198 NA
ATOM     28  N   UNK A   0       4.054  -7.392  26.601  0.00  0.00    -0.329 N 
ATOM     29  H   UNK A   0       3.440  -7.768  25.885  0.00  0.00    +0.145 HD
ATOM     30  H   UNK A   0       4.364  -8.082  27.270  0.00  0.00    +0.145 HD
ATOM     31  O   UNK A   0       7.992  -5.092  27.311  0.00  0.00    -0.267 OA
ATOM     32  C   UNK A   0       5.807  -5.219  24.506  0.00  0.00    +0.147 A 
ATOM     33  N   UNK A   0       5.832  -4.585  23.296  0.00  0.00    -0.345 N 
ATOM     34  H   UNK A   0       5.135  -4.710  22.576  0.00  0.00    +0.167 HD
ATOM     35  C   UNK A   0       6.912  -3.742  23.251  0.00  0.00    +0.089 A 
ENDBRANCH  20  21
ENDBRANCH  19  20
ENDBRANCH   4  19
TORSDOF 8
ENDMDL
MODEL 2
REMARK VINA RESULT:      -8.4      1.521      1.966
REMARK  Name = 
REMARK  10 active torsions:
REMARK  status: ('A' for Active; 'I' for Inactive)
REMARK    1  A    between atoms: CA_2  and  N_3
REMARK    2  A    between atoms: CA_2  and  CB_25
REMARK    3  A    between atoms: CA_2  and  C_28
REMARK    4  A    between atoms: C_4  and  C_6
REMARK    5  A    between atoms: C_9  and  C_10
REMARK    6  A    between atoms: C_10  and  C_11
REMARK    7  A    between atoms: C_11  and  C_12
REMARK    8  A    between atoms: CB_25  and  CG1_26
REMARK    9  A    between atoms: CB_25  and  CG2_27
REMARK   10  A    between atoms: C_28  and  O_29
REMARK                            x       y       z     vdW  Elec       q    Type
REMARK                         _______ _______ _______ _____ _____    ______ ____
ROOT
ATOM      1  C   UNK A   0      10.232   1.576  23.266  0.00  0.00    +0.037 A 
ATOM      2  C   UNK A   0      10.389   0.883  24.473  0.00  0.00    +0.013 A 
ATOM      3  C   UNK A   0      10.206  -0.498  24.526  0.00  0.00    +0.004 A 
ATOM      4  C   UNK A   0       9.872  -1.211  23.369  0.00  0.00    -0.047 A 
ATOM      5  C   UNK A   0       9.766  -0.517  22.157  0.00  0.00    +0.004 A 
ATOM      6  C   UNK A   0       9.952   0.864  22.099  0.00  0.00    +0.013 A 
ENDROOT
BRANCH   1   9
ATOM      7  N   VAL A   1      11.501   3.677  23.465  0.00  0.00    -0.298 N 
ATOM      8  H   VAL A   1      12.331   3.144  23.677  0.00  0.00    +0.150 HD
ATOM      9  C   UNK A   0      10.283   3.056  23.317  0.00  0.00    +0.245 C 
ATOM     10  O   UNK A   0       9.249   3.715  23.208  0.00  0.00    -0.270 OA
BRANCH   7  11
ATOM     11  CA  VAL A   1      11.683   5.123  23.297  0.00  0.00    +0.184 C 
BRANCH  11  12
ATOM     12  CB  VAL A   1      11.315   5.943  24.560  0.00  0.00    +0.014 C 
ATOM     13  CG2 VAL A   1      10.035   6.764  24.348  0.00  0.00    +0.009 C 
ATOM     14  CG1 VAL A   1      12.450   6.880  24.980  0.00  0.00    +0.009 C 
ENDBRANCH  11  12
BRANCH  11  15
ATOM     15  C   VAL A   1      13.095   5.423  22.760  0.00  0.00    +0.326 C 
ATOM     16  OXT VAL A   1      13.304   6.211  21.845  0.00  0.00    -0.249 OA
BRANCH  15  17
ATOM     17  O   VAL A   1      14.102   4.775  23.387  0.00  0.00    -0.479 OA
ATOM     18  H   VAL A   1      14.701   4.302  22.754  0.00  0.00    +0.295 HD
ENDBRANCH  15  17
ENDBRANCH  11  15
ENDBRANCH   7  11
ENDBRANCH   1   9
BRANCH   4  19
ATOM     19  C   UNK A   0       9.526  -2.679  23.483  0.00  0.00    +0.040 C 
BRANCH  19  20
ATOM     20  C   UNK A   0       8.131  -3.048  22.974  0.00  0.00    +0.042 C 
BRANCH  20  21
ATOM     21  C   UNK A   0       7.361  -3.875  23.943  0.00  0.00    -0.015 A 
ATOM     22  C   UNK A   0       6.258  -4.732  23.662  0.00  0.00    +0.086 A 
ATOM     23  C   UNK A   0       5.515  -5.079  22.474  0.00  0.00    +0.262 A 
ATOM     24  N   UNK A   0       4.555  -6.049  22.706  0.00  0.00    -0.295 N 
ATOM     25  H   UNK A   0       4.046  -6.358  21.896  0.00  0.00    +0.172 HD
ATOM     26  C   UNK A   0       4.316  -6.626  23.935  0.00  0.00    +0.195 A 
ATOM     27  N   UNK A   0       4.953  -6.299  25.025  0.00  0.00    -0.198 NA
ATOM     28  N   UNK A   0       3.352  -7.581  23.979  0.00  0.00    -0.329 N 
ATOM     29  H   UNK A   0       3.064  -7.792  24.929  0.00  0.00    +0.145 HD
ATOM     30  H   UNK A   0       2.582  -7.507  23.330  0.00  0.00    +0.145 HD
ATOM     31  O   UNK A   0       5.696  -4.583  21.366  0.00  0.00    -0.267 OA
ATOM     32  C   UNK A   0       5.906  -5.359  24.833  0.00  0.00    +0.147 A 
ATOM     33  N   UNK A   0       6.721  -4.897  25.827  0.00  0.00    -0.345 N 
ATOM     34  H   UNK A   0       6.677  -5.209  26.787  0.00  0.00    +0.167 HD
ATOM     35  C   UNK A   0       7.610  -3.998  25.300  0.00  0.00    +0.089 A 
ENDBRANCH  20  21
ENDBRANCH  19  20
ENDBRANCH   4  19
TORSDOF 8
ENDMDL
MODEL 3
REMARK VINA RESULT:      -8.4      1.390      1.480
REMARK  Name = 
REMARK  10 active torsions:
REMARK  status: ('A' for Active; 'I' for Inactive)
REMARK    1  A    between atoms: CA_2  and  N_3
REMARK    2  A    between atoms: CA_2  and  CB_25
REMARK    3  A    between atoms: CA_2  and  C_28
REMARK    4  A    between atoms: C_4  and  C_6
REMARK    5  A    between atoms: C_9  and  C_10
REMARK    6  A    between atoms: C_10  and  C_11
REMARK    7  A    between atoms: C_11  and  C_12
REMARK    8  A    between atoms: CB_25  and  CG1_26
REMARK    9  A    between atoms: CB_25  and  CG2_27
REMARK   10  A    between atoms: C_28  and  O_29
REMARK                            x       y       z     vdW  Elec       q    Type
REMARK                         _______ _______ _______ _____ _____    ______ ____
ROOT
ATOM      1  C   UNK A   0      10.282   1.662  23.255  0.00  0.00    +0.037 A 
ATOM      2  C   UNK A   0      10.457   0.962  24.456  0.00  0.00    +0.013 A 
ATOM      3  C   UNK A   0      10.284  -0.421  24.500  0.00  0.00    +0.004 A 
ATOM      4  C   UNK A   0       9.943  -1.128  23.341  0.00  0.00    -0.047 A 
ATOM      5  C   UNK A   0       9.820  -0.426  22.135  0.00  0.00    +0.004 A 
ATOM      6  C   UNK A   0       9.995   0.957  22.086  0.00  0.00    +0.013 A 
ENDROOT
BRANCH   1   9
ATOM      7  N   VAL A   1      11.537   3.771  23.464  0.00  0.00    -0.298 N 
ATOM      8  H   VAL A   1      12.372   3.242  23.670  0.00  0.00    +0.150 HD
ATOM      9  C   UNK A   0      10.322   3.143  23.317  0.00  0.00    +0.245 C 
ATOM     10  O   UNK A   0       9.284   3.795  23.216  0.00  0.00    -0.270 OA
BRANCH   7  11
ATOM     11  CA  VAL A   1      11.709   5.219  23.306  0.00  0.00    +0.184 C 
BRANCH  11  12
ATOM     12  CB  VAL A   1      11.346   6.028  24.580  0.00  0.00    +0.014 C 
ATOM     13  CG2 VAL A   1      10.053   6.833  24.390  0.00  0.00    +0.009 C 
ATOM     14  CG1 VAL A   1      12.475   6.977  24.990  0.00  0.00    +0.009 C 
ENDBRANCH  11  12
BRANCH  11  15
ATOM     15  C   VAL A   1      13.113   5.533  22.759  0.00  0.00    +0.326 C 
ATOM     16  OXT VAL A   1      13.308   6.328  21.848  0.00  0.00    -0.249 OA
BRANCH  15  17
ATOM     17  O   VAL A   1      14.130   4.888  23.373  0.00  0.00    -0.479 OA
ATOM     18  H   VAL A   1      13.873   4.534  24.262  0.00  0.00    +0.295 HD
ENDBRANCH  15  17
ENDBRANCH  11  15
ENDBRANCH   7  11
ENDBRANCH   1   9
BRANCH   4  19
ATOM     19  C   UNK A   0       9.609  -2.599  23.448  0.00  0.00    +0.040 C 
BRANCH  19  20
ATOM     20  C   UNK A   0       8.202  -2.970  22.976  0.00  0.00    +0.042 C 
BRANCH  20  21
ATOM     21  C   UNK A   0       7.253  -3.191  24.101  0.00  0.00    -0.015 A 
ATOM     22  C   UNK A   0       7.344  -4.173  25.129  0.00  0.00    +0.086 A 
ATOM     23  C   UNK A   0       8.266  -5.240  25.438  0.00  0.00    +0.262 A 
ATOM     24  N   UNK A   0       7.961  -5.884  26.625  0.00  0.00    -0.295 N 
ATOM     25  H   UNK A   0       8.606  -6.602  26.906  0.00  0.00    +0.172 HD
ATOM     26  C   UNK A   0       6.891  -5.561  27.432  0.00  0.00    +0.195 A 
ATOM     27  N   UNK A   0       6.029  -4.624  27.149  0.00  0.00    -0.198 NA
ATOM     28  N   UNK A   0       6.754  -6.281  28.574  0.00  0.00    -0.329 N 
ATOM     29  H   UNK A   0       5.839  -6.161  28.996  0.00  0.00    +0.145 HD
ATOM     30  H   UNK A   0       7.076  -7.237  28.573  0.00  0.00    +0.145 HD
ATOM     31  O   UNK A   0       9.225  -5.559  24.743  0.00  0.00    -0.267 OA
ATOM     32  C   UNK A   0       6.301  -3.967  26.000  0.00  0.00    +0.147 A 
ATOM     33  N   UNK A   0       5.554  -2.924  25.532  0.00  0.00    -0.345 N 
ATOM     34  H   UNK A   0       4.733  -2.561  25.997  0.00  0.00    +0.167 HD
ATOM     35  C   UNK A   0       6.122  -2.442  24.382  0.00  0.00    +0.089 A 
ENDBRANCH  20  21
ENDBRANCH  19  20
ENDBRANCH   4  19
TORSDOF 8
ENDMDL
MODEL 4
REMARK VINA RESULT:      -8.3      1.982      2.499
REMARK  Name = 
REMARK  10 active torsions:
REMARK  status: ('A' for Active; 'I' for Inactive)
REMARK    1  A    between atoms: CA_2  and  N_3
REMARK    2  A    between atoms: CA_2  and  CB_25
REMARK    3  A    between atoms: CA_2  and  C_28
REMARK    4  A    between atoms: C_4  and  C_6
REMARK    5  A    between atoms: C_9  and  C_10
REMARK    6  A    between atoms: C_10  and  C_11
REMARK    7  A    between atoms: C_11  and  C_12
REMARK    8  A    between atoms: CB_25  and  CG1_26
REMARK    9  A    between atoms: CB_25  and  CG2_27
REMARK   10  A    between atoms: C_28  and  O_29
REMARK                            x       y       z     vdW  Elec       q    Type
REMARK                         _______ _______ _______ _____ _____    ______ ____
ROOT
ATOM      1  C   UNK A   0       9.145   1.466  24.666  0.00  0.00    +0.037 A 
ATOM      2  C   UNK A   0       8.373   0.520  25.353  0.00  0.00    +0.013 A 
ATOM      3  C   UNK A   0       8.616  -0.843  25.192  0.00  0.00    +0.004 A 
ATOM      4  C   UNK A   0       9.643  -1.284  24.348  0.00  0.00    -0.047 A 
ATOM      5  C   UNK A   0      10.441  -0.329  23.703  0.00  0.00    +0.004 A 
ATOM      6  C   UNK A   0      10.203   1.036  23.865  0.00  0.00    +0.013 A 
ENDROOT
BRANCH   1   9
ATOM      7  N   VAL A   1       9.174   3.776  23.812  0.00  0.00    -0.298 N 
ATOM      8  H   VAL A   1       9.886   3.510  23.147  0.00  0.00    +0.150 HD
ATOM      9  C   UNK A   0       8.727   2.885  24.759  0.00  0.00    +0.245 C 
ATOM     10  O   UNK A   0       7.972   3.250  25.660  0.00  0.00    -0.270 OA
BRANCH   7  11
ATOM     11  CA  VAL A   1       8.640   5.136  23.682  0.00  0.00    +0.184 C 
BRANCH  11  12
ATOM     12  CB  VAL A   1       9.733   6.235  23.711  0.00  0.00    +0.014 C 
ATOM     13  CG2 VAL A   1      11.143   5.633  23.632  0.00  0.00    +0.009 C 
ATOM     14  CG1 VAL A   1       9.628   7.108  24.964  0.00  0.00    +0.009 C 
ENDBRANCH  11  12
BRANCH  11  15
ATOM     15  C   VAL A   1       7.709   5.227  22.459  0.00  0.00    +0.326 C 
ATOM     16  OXT VAL A   1       6.857   4.383  22.208  0.00  0.00    -0.249 OA
BRANCH  15  17
ATOM     17  O   VAL A   1       7.874   6.325  21.688  0.00  0.00    -0.479 OA
ATOM     18  H   VAL A   1       8.742   6.776  21.850  0.00  0.00    +0.295 HD
ENDBRANCH  15  17
ENDBRANCH  11  15
ENDBRANCH   7  11
ENDBRANCH   1   9
BRANCH   4  19
ATOM     19  C   UNK A   0       9.783  -2.764  24.070  0.00  0.00    +0.040 C 
BRANCH  19  20
ATOM     20  C   UNK A   0       9.109  -3.672  25.100  0.00  0.00    +0.042 C 
BRANCH  20  21
ATOM     21  C   UNK A   0       7.938  -4.406  24.547  0.00  0.00    -0.015 A 
ATOM     22  C   UNK A   0       7.006  -5.211  25.262  0.00  0.00    +0.086 A 
ATOM     23  C   UNK A   0       6.857  -5.615  26.640  0.00  0.00    +0.262 A 
ATOM     24  N   UNK A   0       5.709  -6.357  26.860  0.00  0.00    -0.295 N 
ATOM     25  H   UNK A   0       5.538  -6.618  27.816  0.00  0.00    +0.172 HD
ATOM     26  C   UNK A   0       4.800  -6.690  25.878  0.00  0.00    +0.195 A 
ATOM     27  N   UNK A   0       4.938  -6.364  24.623  0.00  0.00    -0.198 NA
ATOM     28  N   UNK A   0       3.714  -7.403  26.274  0.00  0.00    -0.329 N 
ATOM     29  H   UNK A   0       3.217  -7.812  25.490  0.00  0.00    +0.145 HD
ATOM     30  H   UNK A   0       3.820  -8.031  27.058  0.00  0.00    +0.145 HD
ATOM     31  O   UNK A   0       7.647  -5.342  27.538  0.00  0.00    -0.267 OA
ATOM     32  C   UNK A   0       6.045  -5.630  24.373  0.00  0.00    +0.147 A 
ATOM     33  N   UNK A   0       6.366  -5.147  23.137  0.00  0.00    -0.345 N 
ATOM     34  H   UNK A   0       5.813  -5.302  22.306  0.00  0.00    +0.167 HD
ATOM     35  C   UNK A   0       7.512  -4.401  23.229  0.00  0.00    +0.089 A 
ENDBRANCH  20  21
ENDBRANCH  19  20
ENDBRANCH   4  19
TORSDOF 8
ENDMDL
MODEL 5
REMARK VINA RESULT:      -8.2      2.228      2.959
REMARK  Name = 
REMARK  10 active torsions:
REMARK  status: ('A' for Active; 'I' for Inactive)
REMARK    1  A    between atoms: CA_2  and  N_3
REMARK    2  A    between atoms: CA_2  and  CB_25
REMARK    3  A    between atoms: CA_2  and  C_28
REMARK    4  A    between atoms: C_4  and  C_6
REMARK    5  A    between atoms: C_9  and  C_10
REMARK    6  A    between atoms: C_10  and  C_11
REMARK    7  A    between atoms: C_11  and  C_12
REMARK    8  A    between atoms: CB_25  and  CG1_26
REMARK    9  A    between atoms: CB_25  and  CG2_27
REMARK   10  A    between atoms: C_28  and  O_29
REMARK                            x       y       z     vdW  Elec       q    Type
REMARK                         _______ _______ _______ _____ _____    ______ ____
ROOT
ATOM      1  C   UNK A   0       9.158   1.464  24.395  0.00  0.00    +0.037 A 
ATOM      2  C   UNK A   0       8.906   0.551  25.427  0.00  0.00    +0.013 A 
ATOM      3  C   UNK A   0       9.191  -0.804  25.259  0.00  0.00    +0.004 A 
ATOM      4  C   UNK A   0       9.741  -1.266  24.057  0.00  0.00    -0.047 A 
ATOM      5  C   UNK A   0      10.035  -0.338  23.050  0.00  0.00    +0.004 A 
ATOM      6  C   UNK A   0       9.755   1.019  23.216  0.00  0.00    +0.013 A 
ENDROOT
BRANCH   1   9
ATOM      7  N   VAL A   1       9.127   3.835  23.729  0.00  0.00    -0.298 N 
ATOM      8  H   VAL A   1       9.870   3.649  23.072  0.00  0.00    +0.150 HD
ATOM      9  C   UNK A   0       8.682   2.855  24.585  0.00  0.00    +0.245 C 
ATOM     10  O   UNK A   0       7.884   3.119  25.484  0.00  0.00    -0.270 OA
BRANCH   7  11
ATOM     11  CA  VAL A   1       8.544   5.181  23.688  0.00  0.00    +0.184 C 
BRANCH  11  12
ATOM     12  CB  VAL A   1       9.603   6.313  23.705  0.00  0.00    +0.014 C 
ATOM     13  CG2 VAL A   1      11.022   5.765  23.491  0.00  0.00    +0.009 C 
ATOM     14  CG1 VAL A   1       9.564   7.108  25.013  0.00  0.00    +0.009 C 
ENDBRANCH  11  12
BRANCH  11  15
ATOM     15  C   VAL A   1       7.545   5.293  22.522  0.00  0.00    +0.326 C 
ATOM     16  OXT VAL A   1       6.489   4.671  22.490  0.00  0.00    -0.249 OA
BRANCH  15  17
ATOM     17  O   VAL A   1       7.897   6.151  21.539  0.00  0.00    -0.479 OA
ATOM     18  H   VAL A   1       7.116   6.478  21.023  0.00  0.00    +0.295 HD
ENDBRANCH  15  17
ENDBRANCH  11  15
ENDBRANCH   7  11
ENDBRANCH   1   9
BRANCH   4  19
ATOM     19  C   UNK A   0       9.894  -2.755  23.842  0.00  0.00    +0.040 C 
BRANCH  19  20
ATOM     20  C   UNK A   0       8.576  -3.512  23.664  0.00  0.00    +0.042 C 
BRANCH  20  21
ATOM     21  C   UNK A   0       8.217  -4.337  24.850  0.00  0.00    -0.015 A 
ATOM     22  C   UNK A   0       6.949  -4.914  25.150  0.00  0.00    +0.086 A 
ATOM     23  C   UNK A   0       5.652  -4.906  24.516  0.00  0.00    +0.262 A 
ATOM     24  N   UNK A   0       4.732  -5.707  25.171  0.00  0.00    -0.295 N 
ATOM     25  H   UNK A   0       3.828  -5.772  24.736  0.00  0.00    +0.172 HD
ATOM     26  C   UNK A   0       5.006  -6.433  26.310  0.00  0.00    +0.195 A 
ATOM     27  N   UNK A   0       6.161  -6.422  26.916  0.00  0.00    -0.198 NA
ATOM     28  N   UNK A   0       3.991  -7.186  26.808  0.00  0.00    -0.329 N 
ATOM     29  H   UNK A   0       4.176  -7.501  27.755  0.00  0.00    +0.145 HD
ATOM     30  H   UNK A   0       3.046  -6.860  26.667  0.00  0.00    +0.145 HD
ATOM     31  O   UNK A   0       5.371  -4.270  23.507  0.00  0.00    -0.267 OA
ATOM     32  C   UNK A   0       7.088  -5.657  26.298  0.00  0.00    +0.147 A 
ATOM     33  N   UNK A   0       8.376  -5.532  26.735  0.00  0.00    -0.345 N 
ATOM     34  H   UNK A   0       8.743  -5.992  27.556  0.00  0.00    +0.167 HD
ATOM     35  C   UNK A   0       9.072  -4.736  25.864  0.00  0.00    +0.089 A 
ENDBRANCH  20  21
ENDBRANCH  19  20
ENDBRANCH   4  19
TORSDOF 8
ENDMDL
MODEL 6
REMARK VINA RESULT:      -8.0      3.357      9.107
REMARK  Name = 
REMARK  10 active torsions:
REMARK  status: ('A' for Active; 'I' for Inactive)
REMARK    1  A    between atoms: CA_2  and  N_3
REMARK    2  A    between atoms: CA_2  and  CB_25
REMARK    3  A    between atoms: CA_2  and  C_28
REMARK    4  A    between atoms: C_4  and  C_6
REMARK    5  A    between atoms: C_9  and  C_10
REMARK    6  A    between atoms: C_10  and  C_11
REMARK    7  A    between atoms: C_11  and  C_12
REMARK    8  A    between atoms: CB_25  and  CG1_26
REMARK    9  A    between atoms: CB_25  and  CG2_27
REMARK   10  A    between atoms: C_28  and  O_29
REMARK                            x       y       z     vdW  Elec       q    Type
REMARK                         _______ _______ _______ _____ _____    ______ ____
ROOT
ATOM      1  C   UNK A   0       8.970  -2.663  24.360  0.00  0.00    +0.037 A 
ATOM      2  C   UNK A   0       9.896  -2.266  23.386  0.00  0.00    +0.013 A 
ATOM      3  C   UNK A   0      10.504  -1.013  23.457  0.00  0.00    +0.004 A 
ATOM      4  C   UNK A   0      10.202  -0.140  24.509  0.00  0.00    -0.047 A 
ATOM      5  C   UNK A   0       9.313  -0.566  25.505  0.00  0.00    +0.004 A 
ATOM      6  C   UNK A   0       8.706  -1.820  25.439  0.00  0.00    +0.013 A 
ENDROOT
BRANCH   1   9
ATOM      7  N   VAL A   1       6.923  -3.894  23.761  0.00  0.00    -0.298 N 
ATOM      8  H   VAL A   1       6.408  -3.026  23.779  0.00  0.00    +0.150 HD
ATOM      9  C   UNK A   0       8.246  -3.937  24.132  0.00  0.00    +0.245 C 
ATOM     10  O   UNK A   0       8.832  -5.012  24.254  0.00  0.00    -0.270 OA
BRANCH   7  11
ATOM     11  CA  VAL A   1       6.189  -5.074  23.292  0.00  0.00    +0.184 C 
BRANCH  11  12
ATOM     12  CB  VAL A   1       4.976  -5.443  24.186  0.00  0.00    +0.014 C 
ATOM     13  CG2 VAL A   1       4.023  -4.253  24.366  0.00  0.00    +0.009 C 
ATOM     14  CG1 VAL A   1       5.416  -5.947  25.562  0.00  0.00    +0.009 C 
ENDBRANCH  11  12
BRANCH  11  15
ATOM     15  C   VAL A   1       5.830  -4.922  21.803  0.00  0.00    +0.326 C 
ATOM     16  OXT VAL A   1       5.697  -3.831  21.260  0.00  0.00    -0.249 OA
BRANCH  15  17
ATOM     17  O   VAL A   1       5.698  -6.080  21.118  0.00  0.00    -0.479 OA
ATOM     18  H   VAL A   1       5.485  -5.933  20.161  0.00  0.00    +0.295 HD
ENDBRANCH  15  17
ENDBRANCH  11  15
ENDBRANCH   7  11
ENDBRANCH   1   9
BRANCH   4  19
ATOM     19  C   UNK A   0      10.754   1.268  24.478  0.00  0.00    +0.040 C 
BRANCH  19  20
ATOM     20  C   UNK A   0      10.458   2.040  23.191  0.00  0.00    +0.042 C 
BRANCH  20  21
ATOM     21  C   UNK A   0       9.313   2.981  23.330  0.00  0.00    -0.015 A 
ATOM     22  C   UNK A   0       7.937   2.711  23.079  0.00  0.00    +0.086 A 
ATOM     23  C   UNK A   0       7.193   1.563  22.616  0.00  0.00    +0.262 A 
ATOM     24  N   UNK A   0       5.825   1.777  22.615  0.00  0.00    -0.295 N 
ATOM     25  H   UNK A   0       5.264   0.987  22.347  0.00  0.00    +0.172 HD
ATOM     26  C   UNK A   0       5.222   2.954  23.002  0.00  0.00    +0.195 A 
ATOM     27  N   UNK A   0       5.881   4.012  23.388  0.00  0.00    -0.198 NA
ATOM     28  N   UNK A   0       3.866   2.983  22.962  0.00  0.00    -0.329 N 
ATOM     29  H   UNK A   0       3.499   3.927  23.028  0.00  0.00    +0.145 HD
ATOM     30  H   UNK A   0       3.400   2.416  22.268  0.00  0.00    +0.145 HD
ATOM     31  O   UNK A   0       7.694   0.503  22.259  0.00  0.00    -0.267 OA
ATOM     32  C   UNK A   0       7.221   3.836  23.411  0.00  0.00    +0.147 A 
ATOM     33  N   UNK A   0       8.101   4.797  23.821  0.00  0.00    -0.345 N 
ATOM     34  H   UNK A   0       7.829   5.719  24.132  0.00  0.00    +0.167 HD
ATOM     35  C   UNK A   0       9.373   4.290  23.779  0.00  0.00    +0.089 A 
ENDBRANCH  20  21
ENDBRANCH  19  20
ENDBRANCH   4  19
TORSDOF 8
ENDMDL
MODEL 7
REMARK VINA RESULT:      -8.0      1.654      2.483
REMARK  Name = 
REMARK  10 active torsions:
REMARK  status: ('A' for Active; 'I' for Inactive)
REMARK    1  A    between atoms: CA_2  and  N_3
REMARK    2  A    between atoms: CA_2  and  CB_25
REMARK    3  A    between atoms: CA_2  and  C_28
REMARK    4  A    between atoms: C_4  and  C_6
REMARK    5  A    between atoms: C_9  and  C_10
REMARK    6  A    between atoms: C_10  and  C_11
REMARK    7  A    between atoms: C_11  and  C_12
REMARK    8  A    between atoms: CB_25  and  CG1_26
REMARK    9  A    between atoms: CB_25  and  CG2_27
REMARK   10  A    between atoms: C_28  and  O_29
REMARK                            x       y       z     vdW  Elec       q    Type
REMARK                         _______ _______ _______ _____ _____    ______ ____
ROOT
ATOM      1  C   UNK A   0      10.347   1.983  23.125  0.00  0.00    +0.037 A 
ATOM      2  C   UNK A   0      10.716   1.163  24.200  0.00  0.00    +0.013 A 
ATOM      3  C   UNK A   0      10.548  -0.219  24.125  0.00  0.00    +0.004 A 
ATOM      4  C   UNK A   0      10.017  -0.806  22.970  0.00  0.00    -0.047 A 
ATOM      5  C   UNK A   0       9.698   0.018  21.882  0.00  0.00    +0.004 A 
ATOM      6  C   UNK A   0       9.868   1.401  21.952  0.00  0.00    +0.013 A 
ENDROOT
BRANCH   1   9
ATOM      7  N   VAL A   1       9.227   4.144  23.496  0.00  0.00    -0.298 N 
ATOM      8  H   VAL A   1       8.336   3.699  23.331  0.00  0.00    +0.150 HD
ATOM      9  C   UNK A   0      10.403   3.449  23.336  0.00  0.00    +0.245 C 
ATOM     10  O   UNK A   0      11.488   4.026  23.389  0.00  0.00    -0.270 OA
BRANCH   7  11
ATOM     11  CA  VAL A   1       9.182   5.543  23.936  0.00  0.00    +0.184 C 
BRANCH  11  12
ATOM     12  CB  VAL A   1       8.137   6.398  23.173  0.00  0.00    +0.014 C 
ATOM     13  CG2 VAL A   1       7.175   7.108  24.137  0.00  0.00    +0.009 C 
ATOM     14  CG1 VAL A   1       7.328   5.557  22.183  0.00  0.00    +0.009 C 
ENDBRANCH  11  12
BRANCH  11  15
ATOM     15  C   VAL A   1       9.036   5.615  25.467  0.00  0.00    +0.326 C 
ATOM     16  OXT VAL A   1       9.538   6.507  26.141  0.00  0.00    -0.249 OA
BRANCH  15  17
ATOM     17  O   VAL A   1       8.288   4.637  26.023  0.00  0.00    -0.479 OA
ATOM     18  H   VAL A   1       7.634   4.987  26.681  0.00  0.00    +0.295 HD
ENDBRANCH  15  17
ENDBRANCH  11  15
ENDBRANCH   7  11
ENDBRANCH   1   9
BRANCH   4  19
ATOM     19  C   UNK A   0       9.701  -2.284  22.974  0.00  0.00    +0.040 C 
BRANCH  19  20
ATOM     20  C   UNK A   0       9.139  -2.812  24.296  0.00  0.00    +0.042 C 
BRANCH  20  21
ATOM     21  C   UNK A   0       7.960  -3.702  24.109  0.00  0.00    -0.015 A 
ATOM     22  C   UNK A   0       7.393  -4.597  25.062  0.00  0.00    +0.086 A 
ATOM     23  C   UNK A   0       7.713  -4.976  26.418  0.00  0.00    +0.262 A 
ATOM     24  N   UNK A   0       6.786  -5.848  26.963  0.00  0.00    -0.295 N 
ATOM     25  H   UNK A   0       6.942  -6.101  27.924  0.00  0.00    +0.172 HD
ATOM     26  C   UNK A   0       5.677  -6.321  26.294  0.00  0.00    +0.195 A 
ATOM     27  N   UNK A   0       5.393  -6.017  25.058  0.00  0.00    -0.198 NA
ATOM     28  N   UNK A   0       4.858  -7.152  26.989  0.00  0.00    -0.329 N 
ATOM     29  H   UNK A   0       4.207  -7.642  26.384  0.00  0.00    +0.145 HD
ATOM     30  H   UNK A   0       5.272  -7.738  27.699  0.00  0.00    +0.145 HD
ATOM     31  O   UNK A   0       8.692  -4.581  27.042  0.00  0.00    -0.267 OA
ATOM     32  C   UNK A   0       6.273  -5.158  24.497  0.00  0.00    +0.147 A 
ATOM     33  N   UNK A   0       6.149  -4.674  23.225  0.00  0.00    -0.345 N 
ATOM     34  H   UNK A   0       5.398  -4.921  22.596  0.00  0.00    +0.167 HD
ATOM     35  C   UNK A   0       7.164  -3.788  22.979  0.00  0.00    +0.089 A 
ENDBRANCH  20  21
ENDBRANCH  19  20
ENDBRANCH   4  19
TORSDOF 8
ENDMDL
MODEL 8
REMARK VINA RESULT:      -7.9      1.415      2.244
REMARK  Name = 
REMARK  10 active torsions:
REMARK  status: ('A' for Active; 'I' for Inactive)
REMARK    1  A    between atoms: CA_2  and  N_3
REMARK    2  A    between atoms: CA_2  and  CB_25
REMARK    3  A    between atoms: CA_2  and  C_28
REMARK    4  A    between atoms: C_4  and  C_6
REMARK    5  A    between atoms: C_9  and  C_10
REMARK    6  A    between atoms: C_10  and  C_11
REMARK    7  A    between atoms: C_11  and  C_12
REMARK    8  A    between atoms: CB_25  and  CG1_26
REMARK    9  A    between atoms: CB_25  and  CG2_27
REMARK   10  A    between atoms: C_28  and  O_29
REMARK                            x       y       z     vdW  Elec       q    Type
REMARK                         _______ _______ _______ _____ _____    ______ ____
ROOT
ATOM      1  C   UNK A   0       9.404   1.551  23.549  0.00  0.00    +0.037 A 
ATOM      2  C   UNK A   0       9.307   0.679  22.457  0.00  0.00    +0.013 A 
ATOM      3  C   UNK A   0       9.403  -0.700  22.641  0.00  0.00    +0.004 A 
ATOM      4  C   UNK A   0       9.590  -1.230  23.924  0.00  0.00    -0.047 A 
ATOM      5  C   UNK A   0       9.637  -0.352  25.015  0.00  0.00    +0.004 A 
ATOM      6  C   UNK A   0       9.537   1.027  24.835  0.00  0.00    +0.013 A 
ENDROOT
BRANCH   1   9
ATOM      7  N   VAL A   1      10.361   3.787  23.934  0.00  0.00    -0.298 N 
ATOM      8  H   VAL A   1      10.885   3.418  24.713  0.00  0.00    +0.150 HD
ATOM      9  C   UNK A   0       9.455   3.004  23.258  0.00  0.00    +0.245 C 
ATOM     10  O   UNK A   0       8.710   3.492  22.409  0.00  0.00    -0.270 OA
BRANCH   7  11
ATOM     11  CA  VAL A   1      10.648   5.176  23.558  0.00  0.00    +0.184 C 
BRANCH  11  12
ATOM     12  CB  VAL A   1       9.756   6.212  24.291  0.00  0.00    +0.014 C 
ATOM     13  CG2 VAL A   1       9.101   5.609  25.543  0.00  0.00    +0.009 C 
ATOM     14  CG1 VAL A   1       8.666   6.772  23.375  0.00  0.00    +0.009 C 
ENDBRANCH  11  12
BRANCH  11  15
ATOM     15  C   VAL A   1      12.155   5.463  23.689  0.00  0.00    +0.326 C 
ATOM     16  OXT VAL A   1      13.002   4.887  23.017  0.00  0.00    -0.249 OA
BRANCH  15  17
ATOM     17  O   VAL A   1      12.486   6.421  24.583  0.00  0.00    -0.479 OA
ATOM     18  H   VAL A   1      12.809   6.044  25.441  0.00  0.00    +0.295 HD
ENDBRANCH  15  17
ENDBRANCH  11  15
ENDBRANCH   7  11
ENDBRANCH   1   9
BRANCH   4  19
ATOM     19  C   UNK A   0       9.848  -2.712  24.077  0.00  0.00    +0.040 C 
BRANCH  19  20
ATOM     20  C   UNK A   0       8.635  -3.602  23.795  0.00  0.00    +0.042 C 
BRANCH  20  21
ATOM     21  C   UNK A   0       8.202  -4.384  24.985  0.00  0.00    -0.015 A 
ATOM     22  C   UNK A   0       6.933  -4.993  25.205  0.00  0.00    +0.086 A 
ATOM     23  C   UNK A   0       5.696  -5.061  24.464  0.00  0.00    +0.262 A 
ATOM     24  N   UNK A   0       4.749  -5.864  25.076  0.00  0.00    -0.295 N 
ATOM     25  H   UNK A   0       3.888  -5.982  24.570  0.00  0.00    +0.172 HD
ATOM     26  C   UNK A   0       4.946  -6.526  26.269  0.00  0.00    +0.195 A 
ATOM     27  N   UNK A   0       6.043  -6.446  26.969  0.00  0.00    -0.198 NA
ATOM     28  N   UNK A   0       3.917  -7.293  26.714  0.00  0.00    -0.329 N 
ATOM     29  H   UNK A   0       4.029  -7.557  27.688  0.00  0.00    +0.145 HD
ATOM     30  H   UNK A   0       2.978  -7.008  26.478  0.00  0.00    +0.145 HD
ATOM     31  O   UNK A   0       5.482  -4.483  23.404  0.00  0.00    -0.267 OA
ATOM     32  C   UNK A   0       6.995  -5.676  26.395  0.00  0.00    +0.147 A 
ATOM     33  N   UNK A   0       8.236  -5.485  26.933  0.00  0.00    -0.345 N 
ATOM     34  H   UNK A   0       8.545  -5.892  27.804  0.00  0.00    +0.167 HD
ATOM     35  C   UNK A   0       8.979  -4.705  26.087  0.00  0.00    +0.089 A 
ENDBRANCH  20  21
ENDBRANCH  19  20
ENDBRANCH   4  19
TORSDOF 8
ENDMDL
MODEL 9
REMARK VINA RESULT:      -7.9      2.501      3.483
REMARK  Name = 
REMARK  10 active torsions:
REMARK  status: ('A' for Active; 'I' for Inactive)
REMARK    1  A    between atoms: CA_2  and  N_3
REMARK    2  A    between atoms: CA_2  and  CB_25
REMARK    3  A    between atoms: CA_2  and  C_28
REMARK    4  A    between atoms: C_4  and  C_6
REMARK    5  A    between atoms: C_9  and  C_10
REMARK    6  A    between atoms: C_10  and  C_11
REMARK    7  A    between atoms: C_11  and  C_12
REMARK    8  A    between atoms: CB_25  and  CG1_26
REMARK    9  A    between atoms: CB_25  and  CG2_27
REMARK   10  A    between atoms: C_28  and  O_29
REMARK                            x       y       z     vdW  Elec       q    Type
REMARK                         _______ _______ _______ _____ _____    ______ ____
ROOT
ATOM      1  C   UNK A   0       9.988   2.487  23.326  0.00  0.00    +0.037 A 
ATOM      2  C   UNK A   0      10.428   1.632  24.345  0.00  0.00    +0.013 A 
ATOM      3  C   UNK A   0      10.557   0.264  24.114  0.00  0.00    +0.004 A 
ATOM      4  C   UNK A   0      10.256  -0.273  22.856  0.00  0.00    -0.047 A 
ATOM      5  C   UNK A   0       9.864   0.597  21.830  0.00  0.00    +0.004 A 
ATOM      6  C   UNK A   0       9.738   1.968  22.056  0.00  0.00    +0.013 A 
ENDROOT
BRANCH   1   9
ATOM      7  N   VAL A   1       8.454   4.258  24.084  0.00  0.00    -0.298 N 
ATOM      8  H   VAL A   1       7.682   3.614  23.995  0.00  0.00    +0.150 HD
ATOM      9  C   UNK A   0       9.721   3.899  23.689  0.00  0.00    +0.245 C 
ATOM     10  O   UNK A   0      10.629   4.729  23.657  0.00  0.00    -0.270 OA
BRANCH   7  11
ATOM     11  CA  VAL A   1       8.144   5.563  24.678  0.00  0.00    +0.184 C 
BRANCH  11  12
ATOM     12  CB  VAL A   1       6.765   6.127  24.248  0.00  0.00    +0.014 C 
ATOM     13  CG2 VAL A   1       5.790   5.005  23.862  0.00  0.00    +0.009 C 
ATOM     14  CG1 VAL A   1       6.891   7.107  23.079  0.00  0.00    +0.009 C 
ENDBRANCH  11  12
BRANCH  11  15
ATOM     15  C   VAL A   1       8.338   5.513  26.204  0.00  0.00    +0.326 C 
ATOM     16  OXT VAL A   1       7.768   4.697  26.919  0.00  0.00    -0.249 OA
BRANCH  15  17
ATOM     17  O   VAL A   1       9.206   6.417  26.707  0.00  0.00    -0.479 OA
ATOM     18  H   VAL A   1       9.542   6.163  27.605  0.00  0.00    +0.295 HD
ENDBRANCH  15  17
ENDBRANCH  11  15
ENDBRANCH   7  11
ENDBRANCH   1   9
BRANCH   4  19
ATOM     19  C   UNK A   0      10.253  -1.775  22.678  0.00  0.00    +0.040 C 
BRANCH  19  20
ATOM     20  C   UNK A   0       9.373  -2.533  23.674  0.00  0.00    +0.042 C 
BRANCH  20  21
ATOM     21  C   UNK A   0       7.950  -2.613  23.244  0.00  0.00    -0.015 A 
ATOM     22  C   UNK A   0       7.154  -3.787  23.105  0.00  0.00    +0.086 A 
ATOM     23  C   UNK A   0       7.388  -5.201  23.274  0.00  0.00    +0.262 A 
ATOM     24  N   UNK A   0       6.243  -5.959  23.094  0.00  0.00    -0.295 N 
ATOM     25  H   UNK A   0       6.348  -6.946  23.252  0.00  0.00    +0.172 HD
ATOM     26  C   UNK A   0       5.008  -5.436  22.779  0.00  0.00    +0.195 A 
ATOM     27  N   UNK A   0       4.787  -4.165  22.587  0.00  0.00    -0.198 NA
ATOM     28  N   UNK A   0       3.986  -6.322  22.664  0.00  0.00    -0.329 N 
ATOM     29  H   UNK A   0       3.175  -5.916  22.208  0.00  0.00    +0.145 HD
ATOM     30  H   UNK A   0       4.202  -7.256  22.346  0.00  0.00    +0.145 HD
ATOM     31  O   UNK A   0       8.473  -5.702  23.549  0.00  0.00    -0.267 OA
ATOM     32  C   UNK A   0       5.882  -3.393  22.764  0.00  0.00    +0.147 A 
ATOM     33  N   UNK A   0       5.872  -2.032  22.653  0.00  0.00    -0.345 N 
ATOM     34  H   UNK A   0       5.052  -1.488  22.423  0.00  0.00    +0.167 HD
ATOM     35  C   UNK A   0       7.119  -1.546  22.945  0.00  0.00    +0.089 A 
ENDBRANCH  20  21
ENDBRANCH  19  20
ENDBRANCH   4  19
TORSDOF 8
ENDMDL
