MODEL 1
REMARK VINA RESULT:      -5.2      0.000      0.000
REMARK  Name = 
REMARK  17 active torsions:
REMARK  status: ('A' for Active; 'I' for Inactive)
REMARK    1  A    between atoms: C_1  and  C_2
REMARK    2  A    between atoms: C_2  and  C_3
REMARK    3  A    between atoms: C_3  and  C_4
REMARK    4  A    between atoms: C_4  and  C_5
REMARK    5  A    between atoms: C_5  and  C_6
REMARK    6  A    between atoms: C_6  and  C_7
REMARK    7  A    between atoms: C_7  and  C_8
REMARK    8  A    between atoms: C_8  and  O_10
REMARK    9  A    between atoms: O_10  and  C_11
REMARK   10  A    between atoms: C_11  and  C_13
REMARK   11  A    between atoms: C_11  and  C_17
REMARK   12  A    between atoms: C_13  and  C_14
REMARK   13  A    between atoms: C_14  and  O_15
REMARK   14  A    between atoms: C_17  and  N_18
REMARK   15  A    between atoms: N_18  and  C_19
REMARK   16  A    between atoms: N_18  and  C_20
REMARK   17  A    between atoms: N_18  and  C_21
REMARK                            x       y       z     vdW  Elec       q    Type
REMARK                         _______ _______ _______ _____ _____    ______ ____
ROOT
ATOM      1  C   UNL     1       7.281  -3.987  25.309  0.00  0.00    +0.232 C 
ENDROOT
BRANCH   1   2
ATOM      2  O   UNL     1       8.396  -3.061  25.375  0.00  0.00    -0.455 OA
BRANCH   2   3
ATOM      3  C   UNL     1       9.464  -3.378  24.579  0.00  0.00    +0.308 C 
ATOM      4  O   UNL     1      10.033  -4.459  24.591  0.00  0.00    -0.251 OA
BRANCH   3   5
ATOM      5  C   UNL     1       9.849  -2.218  23.703  0.00  0.00    +0.120 C 
BRANCH   5   6
ATOM      6  C   UNL     1       9.426  -0.884  24.313  0.00  0.00    +0.011 C 
BRANCH   6   7
ATOM      7  C   UNL     1      10.536   0.159  24.164  0.00  0.00    +0.001 C 
BRANCH   7   8
ATOM      8  C   UNL     1      10.005   1.498  23.647  0.00  0.00    +0.000 C 
BRANCH   8   9
ATOM      9  C   UNL     1      10.109   1.580  22.122  0.00  0.00    -0.000 C 
BRANCH   9  11
ATOM     10  C   UNL     1       7.660   2.113  21.870  0.00  0.00    +0.004 C 
ATOM     11  C   UNL     1       8.794   1.192  21.443  0.00  0.00    -0.003 C 
ENDBRANCH   9  11
ENDBRANCH   8   9
ENDBRANCH   7   8
ENDBRANCH   6   7
ENDBRANCH   5   6
ENDBRANCH   3   5
ENDBRANCH   2   3
ENDBRANCH   1   2
BRANCH   1  12
ATOM     12  C   UNL     1       6.114  -3.344  24.511  0.00  0.00    +0.178 C 
BRANCH  12  13
ATOM     13  N   UNL     1       5.686  -4.055  23.195  0.00  0.00    +0.239 N 
ATOM     14  C   UNL     1       4.230  -4.506  23.390  0.00  0.00    +0.192 C 
ATOM     15  C   UNL     1       6.534  -5.288  22.912  0.00  0.00    +0.192 C 
ATOM     16  C   UNL     1       5.724  -3.123  21.990  0.00  0.00    +0.192 C 
ENDBRANCH  12  13
ENDBRANCH   1  12
BRANCH   1  17
ATOM     17  C   UNL     1       6.835  -4.235  26.749  0.00  0.00    +0.170 C 
BRANCH  17  18
ATOM     18  C   UNL     1       7.401  -5.490  27.341  0.00  0.00    +0.308 C 
ATOM     19  O   UNL     1       6.981  -6.044  28.336  0.00  0.00    -0.251 OA
BRANCH  18  20
ATOM     20  O   UNL     1       8.474  -5.884  26.646  0.00  0.00    -0.481 OA
ATOM     21  H   UNL     1       8.601  -6.847  26.770  0.00  0.00    +0.295 HD
ENDBRANCH  18  20
ENDBRANCH  17  18
ENDBRANCH   1  17
TORSDOF 13
ENDMDL
MODEL 2
REMARK VINA RESULT:      -5.1      2.336      3.755
REMARK  Name = 
REMARK  17 active torsions:
REMARK  status: ('A' for Active; 'I' for Inactive)
REMARK    1  A    between atoms: C_1  and  C_2
REMARK    2  A    between atoms: C_2  and  C_3
REMARK    3  A    between atoms: C_3  and  C_4
REMARK    4  A    between atoms: C_4  and  C_5
REMARK    5  A    between atoms: C_5  and  C_6
REMARK    6  A    between atoms: C_6  and  C_7
REMARK    7  A    between atoms: C_7  and  C_8
REMARK    8  A    between atoms: C_8  and  O_10
REMARK    9  A    between atoms: O_10  and  C_11
REMARK   10  A    between atoms: C_11  and  C_13
REMARK   11  A    between atoms: C_11  and  C_17
REMARK   12  A    between atoms: C_13  and  C_14
REMARK   13  A    between atoms: C_14  and  O_15
REMARK   14  A    between atoms: C_17  and  N_18
REMARK   15  A    between atoms: N_18  and  C_19
REMARK   16  A    between atoms: N_18  and  C_20
REMARK   17  A    between atoms: N_18  and  C_21
REMARK                            x       y       z     vdW  Elec       q    Type
REMARK                         _______ _______ _______ _____ _____    ______ ____
ROOT
ATOM      1  C   UNL     1       7.382  -4.553  23.288  0.00  0.00    +0.232 C 
ENDROOT
BRANCH   1   2
ATOM      2  O   UNL     1       8.551  -3.789  22.896  0.00  0.00    -0.455 OA
BRANCH   2   3
ATOM      3  C   UNL     1       8.412  -2.429  22.977  0.00  0.00    +0.308 C 
ATOM      4  O   UNL     1       7.530  -1.794  22.418  0.00  0.00    -0.251 OA
BRANCH   3   5
ATOM      5  C   UNL     1       9.493  -1.823  23.829  0.00  0.00    +0.120 C 
BRANCH   5   6
ATOM      6  C   UNL     1       8.914  -0.967  24.952  0.00  0.00    +0.011 C 
BRANCH   6   7
ATOM      7  C   UNL     1       9.843   0.207  25.274  0.00  0.00    +0.001 C 
BRANCH   7   8
ATOM      8  C   UNL     1      10.790   0.530  24.115  0.00  0.00    +0.000 C 
BRANCH   8   9
ATOM      9  C   UNL     1      10.332   1.782  23.363  0.00  0.00    -0.000 C 
BRANCH   9  11
ATOM     10  C   UNL     1       8.419   1.564  21.739  0.00  0.00    +0.004 C 
ATOM     11  C   UNL     1       9.926   1.462  21.924  0.00  0.00    -0.003 C 
ENDBRANCH   9  11
ENDBRANCH   8   9
ENDBRANCH   7   8
ENDBRANCH   6   7
ENDBRANCH   5   6
ENDBRANCH   3   5
ENDBRANCH   2   3
ENDBRANCH   1   2
BRANCH   1  12
ATOM     12  C   UNL     1       7.662  -5.286  24.628  0.00  0.00    +0.178 C 
BRANCH  12  13
ATOM     13  N   UNL     1       6.684  -5.000  25.804  0.00  0.00    +0.239 N 
ATOM     14  C   UNL     1       5.504  -5.971  25.644  0.00  0.00    +0.192 C 
ATOM     15  C   UNL     1       6.141  -3.577  25.758  0.00  0.00    +0.192 C 
ATOM     16  C   UNL     1       7.317  -5.260  27.165  0.00  0.00    +0.192 C 
ENDBRANCH  12  13
ENDBRANCH   1  12
BRANCH   1  17
ATOM     17  C   UNL     1       7.147  -5.584  22.185  0.00  0.00    +0.170 C 
BRANCH  17  18
ATOM     18  C   UNL     1       6.204  -5.113  21.120  0.00  0.00    +0.308 C 
ATOM     19  O   UNL     1       5.965  -5.706  20.088  0.00  0.00    -0.251 OA
BRANCH  18  20
ATOM     20  O   UNL     1       5.704  -3.915  21.444  0.00  0.00    -0.481 OA
ATOM     21  H   UNL     1       5.430  -3.451  20.626  0.00  0.00    +0.295 HD
ENDBRANCH  18  20
ENDBRANCH  17  18
ENDBRANCH   1  17
TORSDOF 13
ENDMDL
MODEL 3
REMARK VINA RESULT:      -5.1      2.564      4.166
REMARK  Name = 
REMARK  17 active torsions:
REMARK  status: ('A' for Active; 'I' for Inactive)
REMARK    1  A    between atoms: C_1  and  C_2
REMARK    2  A    between atoms: C_2  and  C_3
REMARK    3  A    between atoms: C_3  and  C_4
REMARK    4  A    between atoms: C_4  and  C_5
REMARK    5  A    between atoms: C_5  and  C_6
REMARK    6  A    between atoms: C_6  and  C_7
REMARK    7  A    between atoms: C_7  and  C_8
REMARK    8  A    between atoms: C_8  and  O_10
REMARK    9  A    between atoms: O_10  and  C_11
REMARK   10  A    between atoms: C_11  and  C_13
REMARK   11  A    between atoms: C_11  and  C_17
REMARK   12  A    between atoms: C_13  and  C_14
REMARK   13  A    between atoms: C_14  and  O_15
REMARK   14  A    between atoms: C_17  and  N_18
REMARK   15  A    between atoms: N_18  and  C_19
REMARK   16  A    between atoms: N_18  and  C_20
REMARK   17  A    between atoms: N_18  and  C_21
REMARK                            x       y       z     vdW  Elec       q    Type
REMARK                         _______ _______ _______ _____ _____    ______ ____
ROOT
ATOM      1  C   UNL     1       7.641  -3.887  23.169  0.00  0.00    +0.232 C 
ENDROOT
BRANCH   1   2
ATOM      2  O   UNL     1       8.612  -3.087  22.447  0.00  0.00    -0.455 OA
BRANCH   2   3
ATOM      3  C   UNL     1       8.326  -1.750  22.374  0.00  0.00    +0.308 C 
ATOM      4  O   UNL     1       7.282  -1.248  22.764  0.00  0.00    -0.251 OA
BRANCH   3   5
ATOM      5  C   UNL     1       9.456  -0.988  21.738  0.00  0.00    +0.120 C 
BRANCH   5   6
ATOM      6  C   UNL     1       9.005   0.385  21.245  0.00  0.00    +0.011 C 
BRANCH   6   7
ATOM      7  C   UNL     1       9.855   1.493  21.872  0.00  0.00    +0.001 C 
BRANCH   7   8
ATOM      8  C   UNL     1       9.026   2.422  22.764  0.00  0.00    +0.000 C 
BRANCH   8   9
ATOM      9  C   UNL     1       9.502   2.357  24.218  0.00  0.00    -0.000 C 
BRANCH   9  11
ATOM     10  C   UNL     1      10.245   0.152  25.181  0.00  0.00    +0.004 C 
ATOM     11  C   UNL     1       9.058   1.063  24.903  0.00  0.00    -0.003 C 
ENDBRANCH   9  11
ENDBRANCH   8   9
ENDBRANCH   7   8
ENDBRANCH   6   7
ENDBRANCH   5   6
ENDBRANCH   3   5
ENDBRANCH   2   3
ENDBRANCH   1   2
BRANCH   1  12
ATOM     12  C   UNL     1       8.256  -4.372  24.510  0.00  0.00    +0.178 C 
BRANCH  12  13
ATOM     13  N   UNL     1       7.537  -3.926  25.816  0.00  0.00    +0.239 N 
ATOM     14  C   UNL     1       6.063  -3.688  25.450  0.00  0.00    +0.192 C 
ATOM     15  C   UNL     1       8.108  -2.625  26.365  0.00  0.00    +0.192 C 
ATOM     16  C   UNL     1       7.577  -4.996  26.899  0.00  0.00    +0.192 C 
ENDBRANCH  12  13
ENDBRANCH   1  12
BRANCH   1  17
ATOM     17  C   UNL     1       7.331  -5.095  22.288  0.00  0.00    +0.170 C 
BRANCH  17  18
ATOM     18  C   UNL     1       6.199  -4.863  21.334  0.00  0.00    +0.308 C 
ATOM     19  O   UNL     1       5.877  -5.614  20.436  0.00  0.00    -0.251 OA
BRANCH  18  20
ATOM     20  O   UNL     1       5.626  -3.679  21.579  0.00  0.00    -0.481 OA
ATOM     21  H   UNL     1       5.900  -3.368  22.466  0.00  0.00    +0.295 HD
ENDBRANCH  18  20
ENDBRANCH  17  18
ENDBRANCH   1  17
TORSDOF 13
ENDMDL
MODEL 4
REMARK VINA RESULT:      -5.0      1.396      2.188
REMARK  Name = 
REMARK  17 active torsions:
REMARK  status: ('A' for Active; 'I' for Inactive)
REMARK    1  A    between atoms: C_1  and  C_2
REMARK    2  A    between atoms: C_2  and  C_3
REMARK    3  A    between atoms: C_3  and  C_4
REMARK    4  A    between atoms: C_4  and  C_5
REMARK    5  A    between atoms: C_5  and  C_6
REMARK    6  A    between atoms: C_6  and  C_7
REMARK    7  A    between atoms: C_7  and  C_8
REMARK    8  A    between atoms: C_8  and  O_10
REMARK    9  A    between atoms: O_10  and  C_11
REMARK   10  A    between atoms: C_11  and  C_13
REMARK   11  A    between atoms: C_11  and  C_17
REMARK   12  A    between atoms: C_13  and  C_14
REMARK   13  A    between atoms: C_14  and  O_15
REMARK   14  A    between atoms: C_17  and  N_18
REMARK   15  A    between atoms: N_18  and  C_19
REMARK   16  A    between atoms: N_18  and  C_20
REMARK   17  A    between atoms: N_18  and  C_21
REMARK                            x       y       z     vdW  Elec       q    Type
REMARK                         _______ _______ _______ _____ _____    ______ ____
ROOT
ATOM      1  C   UNL     1       7.998  -4.280  24.164  0.00  0.00    +0.232 C 
ENDROOT
BRANCH   1   2
ATOM      2  O   UNL     1       8.070  -3.042  24.917  0.00  0.00    -0.455 OA
BRANCH   2   3
ATOM      3  C   UNL     1       8.903  -2.090  24.393  0.00  0.00    +0.308 C 
ATOM      4  O   UNL     1       9.499  -1.256  25.058  0.00  0.00    -0.251 OA
BRANCH   3   5
ATOM      5  C   UNL     1       8.974  -2.198  22.894  0.00  0.00    +0.120 C 
BRANCH   5   6
ATOM      6  C   UNL     1      10.040  -1.273  22.311  0.00  0.00    +0.011 C 
BRANCH   6   7
ATOM      7  C   UNL     1       9.418  -0.283  21.323  0.00  0.00    +0.001 C 
BRANCH   7   8
ATOM      8  C   UNL     1       9.007   1.027  22.000  0.00  0.00    +0.000 C 
BRANCH   8   9
ATOM      9  C   UNL     1      10.211   1.954  22.184  0.00  0.00    -0.000 C 
BRANCH   9  11
ATOM     10  C   UNL     1       9.204   2.136  24.485  0.00  0.00    +0.004 C 
ATOM     11  C   UNL     1      10.478   2.249  23.661  0.00  0.00    -0.003 C 
ENDBRANCH   9  11
ENDBRANCH   8   9
ENDBRANCH   7   8
ENDBRANCH   6   7
ENDBRANCH   5   6
ENDBRANCH   3   5
ENDBRANCH   2   3
ENDBRANCH   1   2
BRANCH   1  12
ATOM     12  C   UNL     1       6.526  -4.769  24.100  0.00  0.00    +0.178 C 
BRANCH  12  13
ATOM     13  N   UNL     1       5.848  -4.779  22.699  0.00  0.00    +0.239 N 
ATOM     14  C   UNL     1       6.870  -5.373  21.718  0.00  0.00    +0.192 C 
ATOM     15  C   UNL     1       5.495  -3.374  22.228  0.00  0.00    +0.192 C 
ATOM     16  C   UNL     1       4.604  -5.657  22.659  0.00  0.00    +0.192 C 
ENDBRANCH  12  13
ENDBRANCH   1  12
BRANCH   1  17
ATOM     17  C   UNL     1       8.839  -5.302  24.927  0.00  0.00    +0.170 C 
BRANCH  17  18
ATOM     18  C   UNL     1       8.575  -5.310  26.402  0.00  0.00    +0.308 C 
ATOM     19  O   UNL     1       7.620  -5.834  26.937  0.00  0.00    -0.251 OA
BRANCH  18  20
ATOM     20  O   UNL     1       9.516  -4.607  27.042  0.00  0.00    -0.481 OA
ATOM     21  H   UNL     1       9.442  -4.773  28.004  0.00  0.00    +0.295 HD
ENDBRANCH  18  20
ENDBRANCH  17  18
ENDBRANCH   1  17
TORSDOF 13
ENDMDL
MODEL 5
REMARK VINA RESULT:      -4.9      2.181      3.577
REMARK  Name = 
REMARK  17 active torsions:
REMARK  status: ('A' for Active; 'I' for Inactive)
REMARK    1  A    between atoms: C_1  and  C_2
REMARK    2  A    between atoms: C_2  and  C_3
REMARK    3  A    between atoms: C_3  and  C_4
REMARK    4  A    between atoms: C_4  and  C_5
REMARK    5  A    between atoms: C_5  and  C_6
REMARK    6  A    between atoms: C_6  and  C_7
REMARK    7  A    between atoms: C_7  and  C_8
REMARK    8  A    between atoms: C_8  and  O_10
REMARK    9  A    between atoms: O_10  and  C_11
REMARK   10  A    between atoms: C_11  and  C_13
REMARK   11  A    between atoms: C_11  and  C_17
REMARK   12  A    between atoms: C_13  and  C_14
REMARK   13  A    between atoms: C_14  and  O_15
REMARK   14  A    between atoms: C_17  and  N_18
REMARK   15  A    between atoms: N_18  and  C_19
REMARK   16  A    between atoms: N_18  and  C_20
REMARK   17  A    between atoms: N_18  and  C_21
REMARK                            x       y       z     vdW  Elec       q    Type
REMARK                         _______ _______ _______ _____ _____    ______ ____
ROOT
ATOM      1  C   UNL     1       8.157  -3.289  23.902  0.00  0.00    +0.232 C 
ENDROOT
BRANCH   1   2
ATOM      2  O   UNL     1       9.587  -3.105  23.743  0.00  0.00    -0.455 OA
BRANCH   2   3
ATOM      3  C   UNL     1       9.967  -1.876  23.274  0.00  0.00    +0.308 C 
ATOM      4  O   UNL     1      10.688  -1.703  22.303  0.00  0.00    -0.251 OA
BRANCH   3   5
ATOM      5  C   UNL     1       9.394  -0.772  24.121  0.00  0.00    +0.120 C 
BRANCH   5   6
ATOM      6  C   UNL     1      10.490   0.076  24.761  0.00  0.00    +0.011 C 
BRANCH   6   7
ATOM      7  C   UNL     1      10.582   1.446  24.085  0.00  0.00    +0.001 C 
BRANCH   7   8
ATOM      8  C   UNL     1       9.356   2.316  24.374  0.00  0.00    +0.000 C 
BRANCH   8   9
ATOM      9  C   UNL     1       8.919   3.084  23.123  0.00  0.00    -0.000 C 
BRANCH   9  11
ATOM     10  C   UNL     1       7.117   1.548  22.265  0.00  0.00    +0.004 C 
ATOM     11  C   UNL     1       8.494   2.138  21.999  0.00  0.00    -0.003 C 
ENDBRANCH   9  11
ENDBRANCH   8   9
ENDBRANCH   7   8
ENDBRANCH   6   7
ENDBRANCH   5   6
ENDBRANCH   3   5
ENDBRANCH   2   3
ENDBRANCH   1   2
BRANCH   1  12
ATOM     12  C   UNL     1       7.884  -4.532  24.791  0.00  0.00    +0.178 C 
BRANCH  12  13
ATOM     13  N   UNL     1       6.933  -4.333  26.006  0.00  0.00    +0.239 N 
ATOM     14  C   UNL     1       5.513  -4.654  25.513  0.00  0.00    +0.192 C 
ATOM     15  C   UNL     1       6.948  -2.896  26.511  0.00  0.00    +0.192 C 
ATOM     16  C   UNL     1       7.249  -5.281  27.156  0.00  0.00    +0.192 C 
ENDBRANCH  12  13
ENDBRANCH   1  12
BRANCH   1  17
ATOM     17  C   UNL     1       7.592  -3.533  22.503  0.00  0.00    +0.170 C 
BRANCH  17  18
ATOM     18  C   UNL     1       6.233  -2.936  22.296  0.00  0.00    +0.308 C 
ATOM     19  O   UNL     1       5.388  -3.370  21.541  0.00  0.00    -0.251 OA
BRANCH  18  20
ATOM     20  O   UNL     1       6.103  -1.821  23.024  0.00  0.00    -0.481 OA
ATOM     21  H   UNL     1       6.585  -1.092  22.583  0.00  0.00    +0.295 HD
ENDBRANCH  18  20
ENDBRANCH  17  18
ENDBRANCH   1  17
TORSDOF 13
ENDMDL
MODEL 6
REMARK VINA RESULT:      -4.8      1.806      2.842
REMARK  Name = 
REMARK  17 active torsions:
REMARK  status: ('A' for Active; 'I' for Inactive)
REMARK    1  A    between atoms: C_1  and  C_2
REMARK    2  A    between atoms: C_2  and  C_3
REMARK    3  A    between atoms: C_3  and  C_4
REMARK    4  A    between atoms: C_4  and  C_5
REMARK    5  A    between atoms: C_5  and  C_6
REMARK    6  A    between atoms: C_6  and  C_7
REMARK    7  A    between atoms: C_7  and  C_8
REMARK    8  A    between atoms: C_8  and  O_10
REMARK    9  A    between atoms: O_10  and  C_11
REMARK   10  A    between atoms: C_11  and  C_13
REMARK   11  A    between atoms: C_11  and  C_17
REMARK   12  A    between atoms: C_13  and  C_14
REMARK   13  A    between atoms: C_14  and  O_15
REMARK   14  A    between atoms: C_17  and  N_18
REMARK   15  A    between atoms: N_18  and  C_19
REMARK   16  A    between atoms: N_18  and  C_20
REMARK   17  A    between atoms: N_18  and  C_21
REMARK                            x       y       z     vdW  Elec       q    Type
REMARK                         _______ _______ _______ _____ _____    ______ ____
ROOT
ATOM      1  C   UNL     1       6.699  -4.000  24.533  0.00  0.00    +0.232 C 
ENDROOT
BRANCH   1   2
ATOM      2  O   UNL     1       6.330  -2.619  24.285  0.00  0.00    -0.455 OA
BRANCH   2   3
ATOM      3  C   UNL     1       6.472  -2.202  22.988  0.00  0.00    +0.308 C 
ATOM      4  O   UNL     1       5.782  -2.596  22.061  0.00  0.00    -0.251 OA
BRANCH   3   5
ATOM      5  C   UNL     1       7.596  -1.211  22.858  0.00  0.00    +0.120 C 
BRANCH   5   6
ATOM      6  C   UNL     1       8.791  -1.807  22.120  0.00  0.00    +0.011 C 
BRANCH   6   7
ATOM      7  C   UNL     1       9.814  -0.721  21.776  0.00  0.00    +0.001 C 
BRANCH   7   8
ATOM      8  C   UNL     1       9.154   0.641  21.540  0.00  0.00    +0.000 C 
BRANCH   8   9
ATOM      9  C   UNL     1      10.023   1.776  22.089  0.00  0.00    -0.000 C 
BRANCH   9  11
ATOM     10  C   UNL     1       9.168   1.865  24.456  0.00  0.00    +0.004 C 
ATOM     11  C   UNL     1      10.365   1.566  23.565  0.00  0.00    -0.003 C 
ENDBRANCH   9  11
ENDBRANCH   8   9
ENDBRANCH   7   8
ENDBRANCH   6   7
ENDBRANCH   5   6
ENDBRANCH   3   5
ENDBRANCH   2   3
ENDBRANCH   1   2
BRANCH   1  12
ATOM     12  C   UNL     1       5.469  -4.784  25.064  0.00  0.00    +0.178 C 
BRANCH  12  13
ATOM     13  N   UNL     1       4.714  -5.684  24.044  0.00  0.00    +0.239 N 
ATOM     14  C   UNL     1       5.710  -6.007  22.918  0.00  0.00    +0.192 C 
ATOM     15  C   UNL     1       3.517  -4.969  23.431  0.00  0.00    +0.192 C 
ATOM     16  C   UNL     1       4.261  -7.004  24.654  0.00  0.00    +0.192 C 
ENDBRANCH  12  13
ENDBRANCH   1  12
BRANCH   1  17
ATOM     17  C   UNL     1       7.786  -3.974  25.607  0.00  0.00    +0.170 C 
BRANCH  17  18
ATOM     18  C   UNL     1       8.670  -5.184  25.590  0.00  0.00    +0.308 C 
ATOM     19  O   UNL     1       9.444  -5.470  24.700  0.00  0.00    -0.251 OA
BRANCH  18  20
ATOM     20  O   UNL     1       8.443  -5.935  26.674  0.00  0.00    -0.481 OA
ATOM     21  H   UNL     1       8.349  -5.351  27.454  0.00  0.00    +0.295 HD
ENDBRANCH  18  20
ENDBRANCH  17  18
ENDBRANCH   1  17
TORSDOF 13
ENDMDL
MODEL 7
REMARK VINA RESULT:      -4.8      2.098      5.436
REMARK  Name = 
REMARK  17 active torsions:
REMARK  status: ('A' for Active; 'I' for Inactive)
REMARK    1  A    between atoms: C_1  and  C_2
REMARK    2  A    between atoms: C_2  and  C_3
REMARK    3  A    between atoms: C_3  and  C_4
REMARK    4  A    between atoms: C_4  and  C_5
REMARK    5  A    between atoms: C_5  and  C_6
REMARK    6  A    between atoms: C_6  and  C_7
REMARK    7  A    between atoms: C_7  and  C_8
REMARK    8  A    between atoms: C_8  and  O_10
REMARK    9  A    between atoms: O_10  and  C_11
REMARK   10  A    between atoms: C_11  and  C_13
REMARK   11  A    between atoms: C_11  and  C_17
REMARK   12  A    between atoms: C_13  and  C_14
REMARK   13  A    between atoms: C_14  and  O_15
REMARK   14  A    between atoms: C_17  and  N_18
REMARK   15  A    between atoms: N_18  and  C_19
REMARK   16  A    between atoms: N_18  and  C_20
REMARK   17  A    between atoms: N_18  and  C_21
REMARK                            x       y       z     vdW  Elec       q    Type
REMARK                         _______ _______ _______ _____ _____    ______ ____
ROOT
ATOM      1  C   UNL     1       8.569  -3.250  24.346  0.00  0.00    +0.232 C 
ENDROOT
BRANCH   1   2
ATOM      2  O   UNL     1       8.441  -4.407  23.481  0.00  0.00    -0.455 OA
BRANCH   2   3
ATOM      3  C   UNL     1       7.474  -4.308  22.516  0.00  0.00    +0.308 C 
ATOM      4  O   UNL     1       6.958  -3.257  22.166  0.00  0.00    -0.251 OA
BRANCH   3   5
ATOM      5  C   UNL     1       7.124  -5.661  21.959  0.00  0.00    +0.120 C 
BRANCH   5   6
ATOM      6  C   UNL     1       5.636  -5.966  22.109  0.00  0.00    +0.011 C 
BRANCH   6   7
ATOM      7  C   UNL     1       5.292  -6.290  23.565  0.00  0.00    +0.001 C 
BRANCH   7   8
ATOM      8  C   UNL     1       3.965  -5.663  23.999  0.00  0.00    +0.000 C 
BRANCH   8   9
ATOM      9  C   UNL     1       4.179  -4.639  25.117  0.00  0.00    -0.000 C 
BRANCH   9  11
ATOM     10  C   UNL     1       5.231  -2.384  25.503  0.00  0.00    +0.004 C 
ATOM     11  C   UNL     1       4.385  -3.229  24.562  0.00  0.00    -0.003 C 
ENDBRANCH   9  11
ENDBRANCH   8   9
ENDBRANCH   7   8
ENDBRANCH   6   7
ENDBRANCH   5   6
ENDBRANCH   3   5
ENDBRANCH   2   3
ENDBRANCH   1   2
BRANCH   1  12
ATOM     12  C   UNL     1       9.808  -2.415  23.925  0.00  0.00    +0.178 C 
BRANCH  12  13
ATOM     13  N   UNL     1       9.545  -0.961  23.438  0.00  0.00    +0.239 N 
ATOM     14  C   UNL     1       9.661  -0.981  21.905  0.00  0.00    +0.192 C 
ATOM     15  C   UNL     1      10.579   0.017  23.981  0.00  0.00    +0.192 C 
ATOM     16  C   UNL     1       8.146  -0.471  23.790  0.00  0.00    +0.192 C 
ENDBRANCH  12  13
ENDBRANCH   1  12
BRANCH   1  17
ATOM     17  C   UNL     1       8.776  -3.786  25.761  0.00  0.00    +0.170 C 
BRANCH  17  18
ATOM     18  C   UNL     1       8.557  -5.265  25.877  0.00  0.00    +0.308 C 
ATOM     19  O   UNL     1       7.551  -5.789  26.309  0.00  0.00    -0.251 OA
BRANCH  18  20
ATOM     20  O   UNL     1       9.652  -5.925  25.485  0.00  0.00    -0.481 OA
ATOM     21  H   UNL     1       9.473  -6.364  24.628  0.00  0.00    +0.295 HD
ENDBRANCH  18  20
ENDBRANCH  17  18
ENDBRANCH   1  17
TORSDOF 13
ENDMDL
MODEL 8
REMARK VINA RESULT:      -4.7      1.605      2.482
REMARK  Name = 
REMARK  17 active torsions:
REMARK  status: ('A' for Active; 'I' for Inactive)
REMARK    1  A    between atoms: C_1  and  C_2
REMARK    2  A    between atoms: C_2  and  C_3
REMARK    3  A    between atoms: C_3  and  C_4
REMARK    4  A    between atoms: C_4  and  C_5
REMARK    5  A    between atoms: C_5  and  C_6
REMARK    6  A    between atoms: C_6  and  C_7
REMARK    7  A    between atoms: C_7  and  C_8
REMARK    8  A    between atoms: C_8  and  O_10
REMARK    9  A    between atoms: O_10  and  C_11
REMARK   10  A    between atoms: C_11  and  C_13
REMARK   11  A    between atoms: C_11  and  C_17
REMARK   12  A    between atoms: C_13  and  C_14
REMARK   13  A    between atoms: C_14  and  O_15
REMARK   14  A    between atoms: C_17  and  N_18
REMARK   15  A    between atoms: N_18  and  C_19
REMARK   16  A    between atoms: N_18  and  C_20
REMARK   17  A    between atoms: N_18  and  C_21
REMARK                            x       y       z     vdW  Elec       q    Type
REMARK                         _______ _______ _______ _____ _____    ______ ____
ROOT
ATOM      1  C   UNL     1       8.295  -3.655  23.799  0.00  0.00    +0.232 C 
ENDROOT
BRANCH   1   2
ATOM      2  O   UNL     1       9.657  -3.208  24.023  0.00  0.00    -0.455 OA
BRANCH   2   3
ATOM      3  C   UNL     1       9.863  -1.864  23.860  0.00  0.00    +0.308 C 
ATOM      4  O   UNL     1       9.891  -1.057  24.777  0.00  0.00    -0.251 OA
BRANCH   3   5
ATOM      5  C   UNL     1      10.034  -1.514  22.407  0.00  0.00    +0.120 C 
BRANCH   5   6
ATOM      6  C   UNL     1       8.874  -0.669  21.890  0.00  0.00    +0.011 C 
BRANCH   6   7
ATOM      7  C   UNL     1       9.376   0.676  21.359  0.00  0.00    +0.001 C 
BRANCH   7   8
ATOM      8  C   UNL     1      10.031   1.522  22.454  0.00  0.00    +0.000 C 
BRANCH   8   9
ATOM      9  C   UNL     1       9.106   2.657  22.901  0.00  0.00    -0.000 C 
BRANCH   9  11
ATOM     10  C   UNL     1       7.122   4.061  22.241  0.00  0.00    +0.004 C 
ATOM     11  C   UNL     1       7.854   2.744  22.027  0.00  0.00    -0.003 C 
ENDBRANCH   9  11
ENDBRANCH   8   9
ENDBRANCH   7   8
ENDBRANCH   6   7
ENDBRANCH   5   6
ENDBRANCH   3   5
ENDBRANCH   2   3
ENDBRANCH   1   2
BRANCH   1  12
ATOM     12  C   UNL     1       7.345  -2.964  24.815  0.00  0.00    +0.178 C 
BRANCH  12  13
ATOM     13  N   UNL     1       6.070  -2.285  24.236  0.00  0.00    +0.239 N 
ATOM     14  C   UNL     1       6.005  -2.662  22.748  0.00  0.00    +0.192 C 
ATOM     15  C   UNL     1       6.138  -0.766  24.340  0.00  0.00    +0.192 C 
ATOM     16  C   UNL     1       4.792  -2.784  24.896  0.00  0.00    +0.192 C 
ENDBRANCH  12  13
ENDBRANCH   1  12
BRANCH   1  17
ATOM     17  C   UNL     1       8.287  -5.163  24.042  0.00  0.00    +0.170 C 
BRANCH  17  18
ATOM     18  C   UNL     1       8.860  -5.557  25.370  0.00  0.00    +0.308 C 
ATOM     19  O   UNL     1       8.213  -5.756  26.377  0.00  0.00    -0.251 OA
BRANCH  18  20
ATOM     20  O   UNL     1      10.195  -5.603  25.300  0.00  0.00    -0.481 OA
ATOM     21  H   UNL     1      10.457  -6.011  24.449  0.00  0.00    +0.295 HD
ENDBRANCH  18  20
ENDBRANCH  17  18
ENDBRANCH   1  17
TORSDOF 13
ENDMDL
MODEL 9
REMARK VINA RESULT:      -4.7      2.457      3.223
REMARK  Name = 
REMARK  17 active torsions:
REMARK  status: ('A' for Active; 'I' for Inactive)
REMARK    1  A    between atoms: C_1  and  C_2
REMARK    2  A    between atoms: C_2  and  C_3
REMARK    3  A    between atoms: C_3  and  C_4
REMARK    4  A    between atoms: C_4  and  C_5
REMARK    5  A    between atoms: C_5  and  C_6
REMARK    6  A    between atoms: C_6  and  C_7
REMARK    7  A    between atoms: C_7  and  C_8
REMARK    8  A    between atoms: C_8  and  O_10
REMARK    9  A    between atoms: O_10  and  C_11
REMARK   10  A    between atoms: C_11  and  C_13
REMARK   11  A    between atoms: C_11  and  C_17
REMARK   12  A    between atoms: C_13  and  C_14
REMARK   13  A    between atoms: C_14  and  O_15
REMARK   14  A    between atoms: C_17  and  N_18
REMARK   15  A    between atoms: N_18  and  C_19
REMARK   16  A    between atoms: N_18  and  C_20
REMARK   17  A    between atoms: N_18  and  C_21
REMARK                            x       y       z     vdW  Elec       q    Type
REMARK                         _______ _______ _______ _____ _____    ______ ____
ROOT
ATOM      1  C   UNL     1       7.198  -2.473  23.868  0.00  0.00    +0.232 C 
ENDROOT
BRANCH   1   2
ATOM      2  O   UNL     1       8.153  -1.454  23.474  0.00  0.00    -0.455 OA
BRANCH   2   3
ATOM      3  C   UNL     1       9.438  -1.666  23.898  0.00  0.00    +0.308 C 
ATOM      4  O   UNL     1      10.184  -2.514  23.432  0.00  0.00    -0.251 OA
BRANCH   3   5
ATOM      5  C   UNL     1       9.799  -0.731  25.019  0.00  0.00    +0.120 C 
BRANCH   5   6
ATOM      6  C   UNL     1       9.444   0.715  24.684  0.00  0.00    +0.011 C 
BRANCH   6   7
ATOM      7  C   UNL     1      10.649   1.448  24.089  0.00  0.00    +0.001 C 
BRANCH   7   8
ATOM      8  C   UNL     1      10.281   2.241  22.832  0.00  0.00    +0.000 C 
BRANCH   8   9
ATOM      9  C   UNL     1       9.626   1.337  21.783  0.00  0.00    -0.000 C 
BRANCH   9  11
ATOM     10  C   UNL     1       7.827   3.044  22.225  0.00  0.00    +0.004 C 
ATOM     11  C   UNL     1       8.184   1.757  21.495  0.00  0.00    -0.003 C 
ENDBRANCH   9  11
ENDBRANCH   8   9
ENDBRANCH   7   8
ENDBRANCH   6   7
ENDBRANCH   5   6
ENDBRANCH   3   5
ENDBRANCH   2   3
ENDBRANCH   1   2
BRANCH   1  12
ATOM     12  C   UNL     1       7.016  -3.495  22.714  0.00  0.00    +0.178 C 
BRANCH  12  13
ATOM     13  N   UNL     1       7.009  -5.002  23.103  0.00  0.00    +0.239 N 
ATOM     14  C   UNL     1       8.165  -5.207  24.095  0.00  0.00    +0.192 C 
ATOM     15  C   UNL     1       7.252  -5.901  21.897  0.00  0.00    +0.192 C 
ATOM     16  C   UNL     1       5.721  -5.419  23.799  0.00  0.00    +0.192 C 
ENDBRANCH  12  13
ENDBRANCH   1  12
BRANCH   1  17
ATOM     17  C   UNL     1       5.874  -1.753  24.120  0.00  0.00    +0.170 C 
BRANCH  17  18
ATOM     18  C   UNL     1       6.037  -0.425  24.798  0.00  0.00    +0.308 C 
ATOM     19  O   UNL     1       6.230  -0.268  25.986  0.00  0.00    -0.251 OA
BRANCH  18  20
ATOM     20  O   UNL     1       5.883   0.565  23.913  0.00  0.00    -0.481 OA
ATOM     21  H   UNL     1       4.961   0.894  23.957  0.00  0.00    +0.295 HD
ENDBRANCH  18  20
ENDBRANCH  17  18
ENDBRANCH   1  17
TORSDOF 13
ENDMDL
