MODEL 1
REMARK VINA RESULT:      -4.1      0.000      0.000
REMARK  Name = 
REMARK  8 active torsions:
REMARK  status: ('A' for Active; 'I' for Inactive)
REMARK    1  A    between atoms: N_1  and  C_2
REMARK    2  A    between atoms: C_2  and  C_3
REMARK    3  A    between atoms: C_3  and  C_4
REMARK    4  A    between atoms: C_4  and  C_5
REMARK    5  A    between atoms: C_5  and  N_6
REMARK    6  A    between atoms: C_5  and  C_7
REMARK    7  A    between atoms: C_5  and  C_10
REMARK    8  A    between atoms: C_10  and  O_11
REMARK                            x       y       z     vdW  Elec       q    Type
REMARK                         _______ _______ _______ _____ _____    ______ ____
ROOT
ATOM      1  C   UNL     1      10.057   1.645  23.619  0.00  0.00    +0.175 C 
ENDROOT
BRANCH   1   2
ATOM      2  C   UNL     1      10.781   0.479  24.318  0.00  0.00    +0.372 C 
ATOM      3  F   UNL     1      10.202   0.170  25.504  0.00  0.00    -0.207 F 
ATOM      4  F   UNL     1      12.062   0.851  24.611  0.00  0.00    -0.207 F 
ENDBRANCH   1   2
BRANCH   1   5
ATOM      5  N   UNL     1      10.913   2.904  23.544  0.00  0.00    -0.311 NA
ATOM      6  H   UNL     1      10.782   3.427  24.418  0.00  0.00    +0.119 HD
ATOM      7  H   UNL     1      11.891   2.595  23.581  0.00  0.00    +0.119 HD
ENDBRANCH   1   5
BRANCH   1   8
ATOM      8  C   UNL     1       9.836   1.159  22.174  0.00  0.00    +0.331 C 
ATOM      9  O   UNL     1       9.950   0.012  21.778  0.00  0.00    -0.249 OA
BRANCH   8  10
ATOM     10  O   UNL     1       9.494   2.188  21.352  0.00  0.00    -0.479 OA
ATOM     11  H   UNL     1      10.332   2.515  20.939  0.00  0.00    +0.295 HD
ENDBRANCH   8  10
ENDBRANCH   1   8
BRANCH   1  12
ATOM     12  C   UNL     1       8.694   1.986  24.259  0.00  0.00    +0.040 C 
BRANCH  12  13
ATOM     13  C   UNL     1       8.543   3.437  24.749  0.00  0.00    +0.017 C 
BRANCH  13  14
ATOM     14  C   UNL     1       7.625   4.274  23.855  0.00  0.00    +0.078 C 
BRANCH  14  15
ATOM     15  N   UNL     1       8.297   4.669  22.627  0.00  0.00    -0.330 NA
ATOM     16  H   UNL     1       9.209   4.215  22.565  0.00  0.00    +0.118 HD
ATOM     17  H   UNL     1       7.764   4.351  21.819  0.00  0.00    +0.118 HD
ENDBRANCH  14  15
ENDBRANCH  13  14
ENDBRANCH  12  13
ENDBRANCH   1  12
TORSDOF 8
ENDMDL
MODEL 2
REMARK VINA RESULT:      -4.0      2.593      3.804
REMARK  Name = 
REMARK  8 active torsions:
REMARK  status: ('A' for Active; 'I' for Inactive)
REMARK    1  A    between atoms: N_1  and  C_2
REMARK    2  A    between atoms: C_2  and  C_3
REMARK    3  A    between atoms: C_3  and  C_4
REMARK    4  A    between atoms: C_4  and  C_5
REMARK    5  A    between atoms: C_5  and  N_6
REMARK    6  A    between atoms: C_5  and  C_7
REMARK    7  A    between atoms: C_5  and  C_10
REMARK    8  A    between atoms: C_10  and  O_11
REMARK                            x       y       z     vdW  Elec       q    Type
REMARK                         _______ _______ _______ _____ _____    ______ ____
ROOT
ATOM      1  C   UNL     1       9.417   0.922  23.395  0.00  0.00    +0.175 C 
ENDROOT
BRANCH   1   2
ATOM      2  C   UNL     1       9.853   2.344  23.794  0.00  0.00    +0.372 C 
ATOM      3  F   UNL     1      11.189   2.416  24.009  0.00  0.00    -0.207 F 
ATOM      4  F   UNL     1       9.263   2.684  24.977  0.00  0.00    -0.207 F 
ENDBRANCH   1   2
BRANCH   1   5
ATOM      5  N   UNL     1       7.951   0.648  23.713  0.00  0.00    -0.311 NA
ATOM      6  H   UNL     1       7.417   1.496  23.491  0.00  0.00    +0.119 HD
ATOM      7  H   UNL     1       7.627  -0.041  23.025  0.00  0.00    +0.119 HD
ENDBRANCH   1   5
BRANCH   1   8
ATOM      8  C   UNL     1       9.565   0.882  21.863  0.00  0.00    +0.331 C 
ATOM      9  O   UNL     1       9.479  -0.109  21.159  0.00  0.00    -0.249 OA
BRANCH   8  10
ATOM     10  O   UNL     1       9.819   2.121  21.358  0.00  0.00    -0.479 OA
ATOM     11  H   UNL     1       9.260   2.757  21.869  0.00  0.00    +0.295 HD
ENDBRANCH   8  10
ENDBRANCH   1   8
BRANCH   1  12
ATOM     12  C   UNL     1      10.295  -0.182  24.024  0.00  0.00    +0.040 C 
BRANCH  12  13
ATOM     13  C   UNL     1       9.524  -1.364  24.639  0.00  0.00    +0.017 C 
BRANCH  13  14
ATOM     14  C   UNL     1       9.507  -2.598  23.732  0.00  0.00    +0.078 C 
BRANCH  14  15
ATOM     15  N   UNL     1       8.458  -2.503  22.728  0.00  0.00    -0.330 NA
ATOM     16  H   UNL     1       7.945  -1.628  22.838  0.00  0.00    +0.118 HD
ATOM     17  H   UNL     1       8.869  -2.477  21.796  0.00  0.00    +0.118 HD
ENDBRANCH  14  15
ENDBRANCH  13  14
ENDBRANCH  12  13
ENDBRANCH   1  12
TORSDOF 8
ENDMDL
MODEL 3
REMARK VINA RESULT:      -4.0      1.766      2.002
REMARK  Name = 
REMARK  8 active torsions:
REMARK  status: ('A' for Active; 'I' for Inactive)
REMARK    1  A    between atoms: N_1  and  C_2
REMARK    2  A    between atoms: C_2  and  C_3
REMARK    3  A    between atoms: C_3  and  C_4
REMARK    4  A    between atoms: C_4  and  C_5
REMARK    5  A    between atoms: C_5  and  N_6
REMARK    6  A    between atoms: C_5  and  C_7
REMARK    7  A    between atoms: C_5  and  C_10
REMARK    8  A    between atoms: C_10  and  O_11
REMARK                            x       y       z     vdW  Elec       q    Type
REMARK                         _______ _______ _______ _____ _____    ______ ____
ROOT
ATOM      1  C   UNL     1       9.533   1.296  22.739  0.00  0.00    +0.175 C 
ENDROOT
BRANCH   1   2
ATOM      2  C   UNL     1      10.205   1.693  24.067  0.00  0.00    +0.372 C 
ATOM      3  F   UNL     1       9.348   2.357  24.881  0.00  0.00    -0.207 F 
ATOM      4  F   UNL     1      11.230   2.558  23.815  0.00  0.00    -0.207 F 
ENDBRANCH   1   2
BRANCH   1   5
ATOM      5  N   UNL     1      10.043   2.113  21.558  0.00  0.00    -0.311 NA
ATOM      6  H   UNL     1      10.215   1.468  20.778  0.00  0.00    +0.119 HD
ATOM      7  H   UNL     1       9.254   2.688  21.238  0.00  0.00    +0.119 HD
ENDBRANCH   1   5
BRANCH   1   8
ATOM      8  C   UNL     1       9.965  -0.164  22.503  0.00  0.00    +0.331 C 
ATOM      9  O   UNL     1      10.439  -0.915  23.337  0.00  0.00    -0.249 OA
BRANCH   8  10
ATOM     10  O   UNL     1       9.761  -0.538  21.210  0.00  0.00    -0.479 OA
ATOM     11  H   UNL     1      10.201  -1.417  21.095  0.00  0.00    +0.295 HD
ENDBRANCH   8  10
ENDBRANCH   1   8
BRANCH   1  12
ATOM     12  C   UNL     1       7.991   1.372  22.791  0.00  0.00    +0.040 C 
BRANCH  12  13
ATOM     13  C   UNL     1       7.351   2.384  21.824  0.00  0.00    +0.017 C 
BRANCH  13  14
ATOM     14  C   UNL     1       7.022   3.720  22.494  0.00  0.00    +0.078 C 
BRANCH  14  15
ATOM     15  N   UNL     1       8.168   4.615  22.484  0.00  0.00    -0.330 NA
ATOM     16  H   UNL     1       8.422   4.848  21.523  0.00  0.00    +0.118 HD
ATOM     17  H   UNL     1       7.928   5.495  22.937  0.00  0.00    +0.118 HD
ENDBRANCH  14  15
ENDBRANCH  13  14
ENDBRANCH  12  13
ENDBRANCH   1  12
TORSDOF 8
ENDMDL
MODEL 4
REMARK VINA RESULT:      -4.0      2.953      3.674
REMARK  Name = 
REMARK  8 active torsions:
REMARK  status: ('A' for Active; 'I' for Inactive)
REMARK    1  A    between atoms: N_1  and  C_2
REMARK    2  A    between atoms: C_2  and  C_3
REMARK    3  A    between atoms: C_3  and  C_4
REMARK    4  A    between atoms: C_4  and  C_5
REMARK    5  A    between atoms: C_5  and  N_6
REMARK    6  A    between atoms: C_5  and  C_7
REMARK    7  A    between atoms: C_5  and  C_10
REMARK    8  A    between atoms: C_10  and  O_11
REMARK                            x       y       z     vdW  Elec       q    Type
REMARK                         _______ _______ _______ _____ _____    ______ ____
ROOT
ATOM      1  C   UNL     1       9.642  -1.271  23.238  0.00  0.00    +0.175 C 
ENDROOT
BRANCH   1   2
ATOM      2  C   UNL     1      10.216  -0.443  24.402  0.00  0.00    +0.372 C 
ATOM      3  F   UNL     1       9.303   0.431  24.891  0.00  0.00    -0.207 F 
ATOM      4  F   UNL     1      11.257   0.315  23.950  0.00  0.00    -0.207 F 
ENDBRANCH   1   2
BRANCH   1   5
ATOM      5  N   UNL     1      10.713  -1.701  22.242  0.00  0.00    -0.311 NA
ATOM      6  H   UNL     1      11.390  -0.934  22.156  0.00  0.00    +0.119 HD
ATOM      7  H   UNL     1      11.244  -2.456  22.691  0.00  0.00    +0.119 HD
ENDBRANCH   1   5
BRANCH   1   8
ATOM      8  C   UNL     1       9.097  -2.551  23.899  0.00  0.00    +0.331 C 
ATOM      9  O   UNL     1       7.937  -2.759  24.209  0.00  0.00    -0.249 OA
BRANCH   8  10
ATOM     10  O   UNL     1      10.089  -3.458  24.115  0.00  0.00    -0.479 OA
ATOM     11  H   UNL     1       9.983  -3.779  25.046  0.00  0.00    +0.295 HD
ENDBRANCH   8  10
ENDBRANCH   1   8
BRANCH   1  12
ATOM     12  C   UNL     1       8.498  -0.554  22.487  0.00  0.00    +0.040 C 
BRANCH  12  13
ATOM     13  C   UNL     1       8.946   0.406  21.370  0.00  0.00    +0.017 C 
BRANCH  13  14
ATOM     14  C   UNL     1       8.931   1.873  21.806  0.00  0.00    +0.078 C 
BRANCH  14  15
ATOM     15  N   UNL     1      10.272   2.438  21.813  0.00  0.00    -0.330 NA
ATOM     16  H   UNL     1      10.238   3.425  21.559  0.00  0.00    +0.118 HD
ATOM     17  H   UNL     1      10.662   2.398  22.753  0.00  0.00    +0.118 HD
ENDBRANCH  14  15
ENDBRANCH  13  14
ENDBRANCH  12  13
ENDBRANCH   1  12
TORSDOF 8
ENDMDL
MODEL 5
REMARK VINA RESULT:      -3.9      3.813      5.275
REMARK  Name = 
REMARK  8 active torsions:
REMARK  status: ('A' for Active; 'I' for Inactive)
REMARK    1  A    between atoms: N_1  and  C_2
REMARK    2  A    between atoms: C_2  and  C_3
REMARK    3  A    between atoms: C_3  and  C_4
REMARK    4  A    between atoms: C_4  and  C_5
REMARK    5  A    between atoms: C_5  and  N_6
REMARK    6  A    between atoms: C_5  and  C_7
REMARK    7  A    between atoms: C_5  and  C_10
REMARK    8  A    between atoms: C_10  and  O_11
REMARK                            x       y       z     vdW  Elec       q    Type
REMARK                         _______ _______ _______ _____ _____    ______ ____
ROOT
ATOM      1  C   UNL     1       9.350  -1.131  23.634  0.00  0.00    +0.175 C 
ENDROOT
BRANCH   1   2
ATOM      2  C   UNL     1       9.807  -0.080  24.663  0.00  0.00    +0.372 C 
ATOM      3  F   UNL     1      11.149   0.111  24.620  0.00  0.00    -0.207 F 
ATOM      4  F   UNL     1       9.531  -0.528  25.922  0.00  0.00    -0.207 F 
ENDBRANCH   1   2
BRANCH   1   5
ATOM      5  N   UNL     1       7.833  -1.246  23.549  0.00  0.00    -0.311 NA
ATOM      6  H   UNL     1       7.534  -0.827  22.661  0.00  0.00    +0.119 HD
ATOM      7  H   UNL     1       7.621  -2.245  23.440  0.00  0.00    +0.119 HD
ENDBRANCH   1   5
BRANCH   1   8
ATOM      8  C   UNL     1       9.842  -0.591  22.278  0.00  0.00    +0.331 C 
ATOM      9  O   UNL     1       9.804   0.571  21.912  0.00  0.00    -0.249 OA
BRANCH   8  10
ATOM     10  O   UNL     1      10.337  -1.591  21.497  0.00  0.00    -0.479 OA
ATOM     11  H   UNL     1      10.454  -1.212  20.590  0.00  0.00    +0.295 HD
ENDBRANCH   8  10
ENDBRANCH   1   8
BRANCH   1  12
ATOM     12  C   UNL     1       9.960  -2.529  23.881  0.00  0.00    +0.040 C 
BRANCH  12  13
ATOM     13  C   UNL     1       8.946  -3.637  24.216  0.00  0.00    +0.017 C 
BRANCH  13  14
ATOM     14  C   UNL     1       9.278  -4.374  25.516  0.00  0.00    +0.078 C 
BRANCH  14  15
ATOM     15  N   UNL     1      10.098  -5.549  25.265  0.00  0.00    -0.330 NA
ATOM     16  H   UNL     1       9.867  -6.286  25.932  0.00  0.00    +0.118 HD
ATOM     17  H   UNL     1       9.893  -5.926  24.341  0.00  0.00    +0.118 HD
ENDBRANCH  14  15
ENDBRANCH  13  14
ENDBRANCH  12  13
ENDBRANCH   1  12
TORSDOF 8
ENDMDL
MODEL 6
REMARK VINA RESULT:      -3.9      3.035      4.117
REMARK  Name = 
REMARK  8 active torsions:
REMARK  status: ('A' for Active; 'I' for Inactive)
REMARK    1  A    between atoms: N_1  and  C_2
REMARK    2  A    between atoms: C_2  and  C_3
REMARK    3  A    between atoms: C_3  and  C_4
REMARK    4  A    between atoms: C_4  and  C_5
REMARK    5  A    between atoms: C_5  and  N_6
REMARK    6  A    between atoms: C_5  and  C_7
REMARK    7  A    between atoms: C_5  and  C_10
REMARK    8  A    between atoms: C_10  and  O_11
REMARK                            x       y       z     vdW  Elec       q    Type
REMARK                         _______ _______ _______ _____ _____    ______ ____
ROOT
ATOM      1  C   UNL     1       9.051   2.107  22.755  0.00  0.00    +0.175 C 
ENDROOT
BRANCH   1   2
ATOM      2  C   UNL     1       7.705   1.802  22.071  0.00  0.00    +0.372 C 
ATOM      3  F   UNL     1       7.155   0.655  22.540  0.00  0.00    -0.207 F 
ATOM      4  F   UNL     1       7.910   1.602  20.736  0.00  0.00    -0.207 F 
ENDBRANCH   1   2
BRANCH   1   5
ATOM      5  N   UNL     1      10.198   2.235  21.758  0.00  0.00    -0.311 NA
ATOM      6  H   UNL     1      10.064   1.523  21.030  0.00  0.00    +0.119 HD
ATOM      7  H   UNL     1      10.060   3.126  21.267  0.00  0.00    +0.119 HD
ENDBRANCH   1   5
BRANCH   1   8
ATOM      8  C   UNL     1       8.856   3.491  23.403  0.00  0.00    +0.331 C 
ATOM      9  O   UNL     1       9.129   3.789  24.552  0.00  0.00    -0.249 OA
BRANCH   8  10
ATOM     10  O   UNL     1       8.318   4.379  22.522  0.00  0.00    -0.479 OA
ATOM     11  H   UNL     1       8.456   5.280  22.906  0.00  0.00    +0.295 HD
ENDBRANCH   8  10
ENDBRANCH   1   8
BRANCH   1  12
ATOM     12  C   UNL     1       9.427   1.079  23.844  0.00  0.00    +0.040 C 
BRANCH  12  13
ATOM     13  C   UNL     1      10.539   0.088  23.456  0.00  0.00    +0.017 C 
BRANCH  13  14
ATOM     14  C   UNL     1       9.998  -1.188  22.807  0.00  0.00    +0.078 C 
BRANCH  14  15
ATOM     15  N   UNL     1       9.891  -1.045  21.363  0.00  0.00    -0.330 NA
ATOM     16  H   UNL     1      10.817  -0.924  20.953  0.00  0.00    +0.118 HD
ATOM     17  H   UNL     1       9.506  -1.895  20.956  0.00  0.00    +0.118 HD
ENDBRANCH  14  15
ENDBRANCH  13  14
ENDBRANCH  12  13
ENDBRANCH   1  12
TORSDOF 8
ENDMDL
MODEL 7
REMARK VINA RESULT:      -3.9      3.246      4.112
REMARK  Name = 
REMARK  8 active torsions:
REMARK  status: ('A' for Active; 'I' for Inactive)
REMARK    1  A    between atoms: N_1  and  C_2
REMARK    2  A    between atoms: C_2  and  C_3
REMARK    3  A    between atoms: C_3  and  C_4
REMARK    4  A    between atoms: C_4  and  C_5
REMARK    5  A    between atoms: C_5  and  N_6
REMARK    6  A    between atoms: C_5  and  C_7
REMARK    7  A    between atoms: C_5  and  C_10
REMARK    8  A    between atoms: C_10  and  O_11
REMARK                            x       y       z     vdW  Elec       q    Type
REMARK                         _______ _______ _______ _____ _____    ______ ____
ROOT
ATOM      1  C   UNL     1       9.332  -0.153  23.008  0.00  0.00    +0.175 C 
ENDROOT
BRANCH   1   2
ATOM      2  C   UNL     1       9.804   0.699  21.815  0.00  0.00    +0.372 C 
ATOM      3  F   UNL     1      10.363   1.865  22.224  0.00  0.00    -0.207 F 
ATOM      4  F   UNL     1       8.728   1.046  21.051  0.00  0.00    -0.207 F 
ENDBRANCH   1   2
BRANCH   1   5
ATOM      5  N   UNL     1       7.820  -0.346  23.027  0.00  0.00    -0.311 NA
ATOM      6  H   UNL     1       7.563  -0.741  23.939  0.00  0.00    +0.119 HD
ATOM      7  H   UNL     1       7.406   0.594  23.034  0.00  0.00    +0.119 HD
ENDBRANCH   1   5
BRANCH   1   8
ATOM      8  C   UNL     1       9.964  -1.538  22.775  0.00  0.00    +0.331 C 
ATOM      9  O   UNL     1      10.127  -2.403  23.618  0.00  0.00    -0.249 OA
BRANCH   8  10
ATOM     10  O   UNL     1      10.345  -1.696  21.477  0.00  0.00    -0.479 OA
ATOM     11  H   UNL     1       9.514  -1.732  20.940  0.00  0.00    +0.295 HD
ENDBRANCH   8  10
ENDBRANCH   1   8
BRANCH   1  12
ATOM     12  C   UNL     1       9.797   0.401  24.373  0.00  0.00    +0.040 C 
BRANCH  12  13
ATOM     13  C   UNL     1       8.717   0.441  25.468  0.00  0.00    +0.017 C 
BRANCH  13  14
ATOM     14  C   UNL     1       8.830  -0.722  26.457  0.00  0.00    +0.078 C 
BRANCH  14  15
ATOM     15  N   UNL     1       8.179  -1.918  25.946  0.00  0.00    -0.330 NA
ATOM     16  H   UNL     1       8.429  -2.725  26.518  0.00  0.00    +0.118 HD
ATOM     17  H   UNL     1       7.167  -1.821  26.016  0.00  0.00    +0.118 HD
ENDBRANCH  14  15
ENDBRANCH  13  14
ENDBRANCH  12  13
ENDBRANCH   1  12
TORSDOF 8
ENDMDL
MODEL 8
REMARK VINA RESULT:      -3.9      2.555      3.089
REMARK  Name = 
REMARK  8 active torsions:
REMARK  status: ('A' for Active; 'I' for Inactive)
REMARK    1  A    between atoms: N_1  and  C_2
REMARK    2  A    between atoms: C_2  and  C_3
REMARK    3  A    between atoms: C_3  and  C_4
REMARK    4  A    between atoms: C_4  and  C_5
REMARK    5  A    between atoms: C_5  and  N_6
REMARK    6  A    between atoms: C_5  and  C_7
REMARK    7  A    between atoms: C_5  and  C_10
REMARK    8  A    between atoms: C_10  and  O_11
REMARK                            x       y       z     vdW  Elec       q    Type
REMARK                         _______ _______ _______ _____ _____    ______ ____
ROOT
ATOM      1  C   UNL     1       9.198   0.131  22.962  0.00  0.00    +0.175 C 
ENDROOT
BRANCH   1   2
ATOM      2  C   UNL     1       9.482   0.711  21.564  0.00  0.00    +0.372 C 
ATOM      3  F   UNL     1      10.441   1.668  21.606  0.00  0.00    -0.207 F 
ATOM      4  F   UNL     1       8.358   1.325  21.092  0.00  0.00    -0.207 F 
ENDBRANCH   1   2
BRANCH   1   5
ATOM      5  N   UNL     1       7.711  -0.100  23.209  0.00  0.00    -0.311 NA
ATOM      6  H   UNL     1       7.420   0.515  23.978  0.00  0.00    +0.119 HD
ATOM      7  H   UNL     1       7.218   0.271  22.389  0.00  0.00    +0.119 HD
ENDBRANCH   1   5
BRANCH   1   8
ATOM      8  C   UNL     1       9.878  -1.251  22.958  0.00  0.00    +0.331 C 
ATOM      9  O   UNL     1      10.035  -1.976  23.925  0.00  0.00    -0.249 OA
BRANCH   8  10
ATOM     10  O   UNL     1      10.309  -1.587  21.711  0.00  0.00    -0.479 OA
ATOM     11  H   UNL     1       9.624  -1.260  21.075  0.00  0.00    +0.295 HD
ENDBRANCH   8  10
ENDBRANCH   1   8
BRANCH   1  12
ATOM     12  C   UNL     1       9.783   0.987  24.107  0.00  0.00    +0.040 C 
BRANCH  12  13
ATOM     13  C   UNL     1       8.886   2.142  24.587  0.00  0.00    +0.017 C 
BRANCH  13  14
ATOM     14  C   UNL     1       9.378   3.512  24.114  0.00  0.00    +0.078 C 
BRANCH  14  15
ATOM     15  N   UNL     1       8.619   3.980  22.965  0.00  0.00    -0.330 NA
ATOM     16  H   UNL     1       7.714   4.342  23.267  0.00  0.00    +0.118 HD
ATOM     17  H   UNL     1       9.104   4.758  22.521  0.00  0.00    +0.118 HD
ENDBRANCH  14  15
ENDBRANCH  13  14
ENDBRANCH  12  13
ENDBRANCH   1  12
TORSDOF 8
ENDMDL
MODEL 9
REMARK VINA RESULT:      -3.9      5.452      6.506
REMARK  Name = 
REMARK  8 active torsions:
REMARK  status: ('A' for Active; 'I' for Inactive)
REMARK    1  A    between atoms: N_1  and  C_2
REMARK    2  A    between atoms: C_2  and  C_3
REMARK    3  A    between atoms: C_3  and  C_4
REMARK    4  A    between atoms: C_4  and  C_5
REMARK    5  A    between atoms: C_5  and  N_6
REMARK    6  A    between atoms: C_5  and  C_7
REMARK    7  A    between atoms: C_5  and  C_10
REMARK    8  A    between atoms: C_10  and  O_11
REMARK                            x       y       z     vdW  Elec       q    Type
REMARK                         _______ _______ _______ _____ _____    ______ ____
ROOT
ATOM      1  C   UNL     1       8.522  -3.833  24.563  0.00  0.00    +0.175 C 
ENDROOT
BRANCH   1   2
ATOM      2  C   UNL     1       7.669  -4.421  23.423  0.00  0.00    +0.372 C 
ATOM      3  F   UNL     1       8.093  -5.659  23.070  0.00  0.00    -0.207 F 
ATOM      4  F   UNL     1       7.804  -3.645  22.309  0.00  0.00    -0.207 F 
ENDBRANCH   1   2
BRANCH   1   5
ATOM      5  N   UNL     1       7.706  -2.969  25.518  0.00  0.00    -0.311 NA
ATOM      6  H   UNL     1       7.740  -3.407  26.446  0.00  0.00    +0.119 HD
ATOM      7  H   UNL     1       8.227  -2.092  25.635  0.00  0.00    +0.119 HD
ENDBRANCH   1   5
BRANCH   1   8
ATOM      8  C   UNL     1       9.009  -5.058  25.360  0.00  0.00    +0.331 C 
ATOM      9  O   UNL     1       8.334  -5.737  26.114  0.00  0.00    -0.249 OA
BRANCH   8  10
ATOM     10  O   UNL     1      10.328  -5.306  25.129  0.00  0.00    -0.479 OA
ATOM     11  H   UNL     1      10.786  -5.246  26.004  0.00  0.00    +0.295 HD
ENDBRANCH   8  10
ENDBRANCH   1   8
BRANCH   1  12
ATOM     12  C   UNL     1       9.742  -3.031  24.058  0.00  0.00    +0.040 C 
BRANCH  12  13
ATOM     13  C   UNL     1       9.627  -1.503  24.197  0.00  0.00    +0.017 C 
BRANCH  13  14
ATOM     14  C   UNL     1      10.222  -0.751  23.003  0.00  0.00    +0.078 C 
BRANCH  14  15
ATOM     15  N   UNL     1      10.239  -1.582  21.809  0.00  0.00    -0.330 NA
ATOM     16  H   UNL     1       9.570  -2.346  21.903  0.00  0.00    +0.118 HD
ATOM     17  H   UNL     1       9.940  -1.038  21.002  0.00  0.00    +0.118 HD
ENDBRANCH  14  15
ENDBRANCH  13  14
ENDBRANCH  12  13
ENDBRANCH   1  12
TORSDOF 8
ENDMDL
