MODEL 1
REMARK VINA RESULT:      -6.6      0.000      0.000
REMARK  Name = 
REMARK  5 active torsions:
REMARK  status: ('A' for Active; 'I' for Inactive)
REMARK    1  A    between atoms: C_1  and  C_2
REMARK    2  A    between atoms: C_2  and  O_4
REMARK    3  A    between atoms: O_4  and  C_5
REMARK    4  A    between atoms: C_10  and  C_11
REMARK    5  A    between atoms: C_17  and  N_19
REMARK                            x       y       z     vdW  Elec       q    Type
REMARK                         _______ _______ _______ _____ _____    ______ ____
ROOT
ATOM      1  C   UNL     1       8.564  -2.990  23.854  0.00  0.00    +0.253 C 
ATOM      2  N   UNL     1       8.106  -1.693  23.906  0.00  0.00    -0.260 N 
ATOM      3  H   UNL     1       7.146  -1.479  23.688  0.00  0.00    +0.157 HD
ATOM      4  C   UNL     1       8.965  -0.644  24.097  0.00  0.00    +0.171 A 
ATOM      5  S   UNL     1       8.273   0.897  23.832  0.00  0.00    +0.022 S 
ATOM      6  C   UNL     1       9.814   1.586  24.065  0.00  0.00    +0.332 A 
ATOM      7  C   UNL     1      10.735   0.625  24.407  0.00  0.00    +0.205 A 
ATOM      8  N   UNL     1      10.232  -0.660  24.431  0.00  0.00    -0.226 NA
ATOM      9  O   UNL     1       9.740  -3.327  23.966  0.00  0.00    -0.270 OA
ENDROOT
BRANCH   1  11
ATOM     10  C   UNL     1       6.665  -4.626  24.513  0.00  0.00    +0.144 A 
ATOM     11  C   UNL     1       7.554  -4.066  23.579  0.00  0.00    +0.079 A 
ATOM     12  C   UNL     1       7.516  -4.544  22.253  0.00  0.00    +0.017 A 
ATOM     13  C   UNL     1       6.625  -5.545  21.866  0.00  0.00    +0.001 A 
ATOM     14  C   UNL     1       5.737  -6.073  22.795  0.00  0.00    +0.004 A 
ATOM     15  C   UNL     1       5.742  -5.603  24.109  0.00  0.00    +0.047 A 
BRANCH  10  16
ATOM     16  O   UNL     1       6.666  -4.156  25.849  0.00  0.00    -0.425 OA
BRANCH  16  18
ATOM     17  C   UNL     1       6.588  -5.550  27.759  0.00  0.00    +0.136 C 
ATOM     18  C   UNL     1       7.465  -4.757  26.836  0.00  0.00    +0.309 C 
ATOM     19  O   UNL     1       8.675  -4.641  26.975  0.00  0.00    -0.251 OA
ENDBRANCH  16  18
ENDBRANCH  10  16
ENDBRANCH   1  11
BRANCH   6  20
ATOM     20  N   UNL     1      10.057   2.983  23.897  0.00  0.00    +0.089 N 
ATOM     21  O   UNL     1      11.145   3.329  23.421  0.00  0.00    +0.042 OA
ATOM     22  O   UNL     1       9.153   3.743  24.258  0.00  0.00    -0.576 OA
ENDBRANCH   6  20
TORSDOF 4
ENDMDL
MODEL 2
REMARK VINA RESULT:      -6.5      3.004      6.785
REMARK  Name = 
REMARK  5 active torsions:
REMARK  status: ('A' for Active; 'I' for Inactive)
REMARK    1  A    between atoms: C_1  and  C_2
REMARK    2  A    between atoms: C_2  and  O_4
REMARK    3  A    between atoms: O_4  and  C_5
REMARK    4  A    between atoms: C_10  and  C_11
REMARK    5  A    between atoms: C_17  and  N_19
REMARK                            x       y       z     vdW  Elec       q    Type
REMARK                         _______ _______ _______ _____ _____    ______ ____
ROOT
ATOM      1  C   UNL     1       8.916  -1.763  22.721  0.00  0.00    +0.253 C 
ATOM      2  N   UNL     1       7.559  -1.968  22.830  0.00  0.00    -0.260 N 
ATOM      3  H   UNL     1       6.949  -1.221  23.119  0.00  0.00    +0.157 HD
ATOM      4  C   UNL     1       7.018  -3.221  22.705  0.00  0.00    +0.171 A 
ATOM      5  S   UNL     1       5.376  -3.334  23.166  0.00  0.00    +0.022 S 
ATOM      6  C   UNL     1       5.465  -5.018  22.926  0.00  0.00    +0.332 A 
ATOM      7  C   UNL     1       6.696  -5.380  22.437  0.00  0.00    +0.205 A 
ATOM      8  N   UNL     1       7.585  -4.333  22.305  0.00  0.00    -0.226 NA
ATOM      9  O   UNL     1       9.747  -2.643  22.513  0.00  0.00    -0.270 OA
ENDROOT
BRANCH   1  11
ATOM     10  C   UNL     1       9.824   0.192  24.160  0.00  0.00    +0.144 A 
ATOM     11  C   UNL     1       9.419  -0.365  22.934  0.00  0.00    +0.079 A 
ATOM     12  C   UNL     1       9.477   0.446  21.782  0.00  0.00    +0.017 A 
ATOM     13  C   UNL     1       9.922   1.766  21.844  0.00  0.00    +0.001 A 
ATOM     14  C   UNL     1      10.341   2.295  23.058  0.00  0.00    +0.004 A 
ATOM     15  C   UNL     1      10.312   1.507  24.209  0.00  0.00    +0.047 A 
BRANCH  10  16
ATOM     16  O   UNL     1       9.793  -0.602  25.332  0.00  0.00    -0.425 OA
BRANCH  16  18
ATOM     17  C   UNL     1       8.339  -2.147  26.379  0.00  0.00    +0.136 C 
ATOM     18  C   UNL     1       8.635  -0.699  26.121  0.00  0.00    +0.309 C 
ATOM     19  O   UNL     1       7.936   0.223  26.518  0.00  0.00    -0.251 OA
ENDBRANCH  16  18
ENDBRANCH  10  16
ENDBRANCH   1  11
BRANCH   6  20
ATOM     20  N   UNL     1       4.373  -5.888  23.227  0.00  0.00    +0.089 N 
ATOM     21  O   UNL     1       3.290  -5.673  22.670  0.00  0.00    +0.042 OA
ATOM     22  O   UNL     1       4.599  -6.788  24.042  0.00  0.00    -0.576 OA
ENDBRANCH   6  20
TORSDOF 4
ENDMDL
MODEL 3
REMARK VINA RESULT:      -6.5      2.938      8.203
REMARK  Name = 
REMARK  5 active torsions:
REMARK  status: ('A' for Active; 'I' for Inactive)
REMARK    1  A    between atoms: C_1  and  C_2
REMARK    2  A    between atoms: C_2  and  O_4
REMARK    3  A    between atoms: O_4  and  C_5
REMARK    4  A    between atoms: C_10  and  C_11
REMARK    5  A    between atoms: C_17  and  N_19
REMARK                            x       y       z     vdW  Elec       q    Type
REMARK                         _______ _______ _______ _____ _____    ______ ____
ROOT
ATOM      1  C   UNL     1      10.114   2.154  23.035  0.00  0.00    +0.253 C 
ATOM      2  N   UNL     1       9.657   1.313  24.023  0.00  0.00    -0.260 N 
ATOM      3  H   UNL     1       9.573   1.637  24.974  0.00  0.00    +0.157 HD
ATOM      4  C   UNL     1       9.455  -0.020  23.784  0.00  0.00    +0.171 A 
ATOM      5  S   UNL     1       9.181  -0.960  25.186  0.00  0.00    +0.022 S 
ATOM      6  C   UNL     1       9.193  -2.354  24.207  0.00  0.00    +0.332 A 
ATOM      7  C   UNL     1       9.320  -2.021  22.880  0.00  0.00    +0.205 A 
ATOM      8  N   UNL     1       9.463  -0.669  22.645  0.00  0.00    -0.226 NA
ATOM      9  O   UNL     1      10.381   1.812  21.886  0.00  0.00    -0.270 OA
ENDROOT
BRANCH   1  11
ATOM     10  C   UNL     1       9.387   4.527  23.783  0.00  0.00    +0.144 A 
ATOM     11  C   UNL     1      10.364   3.586  23.411  0.00  0.00    +0.079 A 
ATOM     12  C   UNL     1      11.711   4.001  23.375  0.00  0.00    +0.017 A 
ATOM     13  C   UNL     1      12.078   5.308  23.699  0.00  0.00    +0.001 A 
ATOM     14  C   UNL     1      11.104   6.220  24.087  0.00  0.00    +0.004 A 
ATOM     15  C   UNL     1       9.767   5.828  24.148  0.00  0.00    +0.047 A 
BRANCH  10  16
ATOM     16  O   UNL     1       8.028   4.136  23.844  0.00  0.00    -0.425 OA
BRANCH  16  18
ATOM     17  C   UNL     1       6.635   2.999  22.307  0.00  0.00    +0.136 C 
ATOM     18  C   UNL     1       7.160   4.330  22.756  0.00  0.00    +0.309 C 
ATOM     19  O   UNL     1       6.886   5.392  22.215  0.00  0.00    -0.251 OA
ENDBRANCH  16  18
ENDBRANCH  10  16
ENDBRANCH   1  11
BRANCH   6  20
ATOM     20  N   UNL     1       9.096  -3.669  24.755  0.00  0.00    +0.089 N 
ATOM     21  O   UNL     1      10.065  -4.426  24.621  0.00  0.00    +0.042 OA
ATOM     22  O   UNL     1       8.030  -3.953  25.312  0.00  0.00    -0.576 OA
ENDBRANCH   6  20
TORSDOF 4
ENDMDL
MODEL 4
REMARK VINA RESULT:      -6.4      1.977      3.382
REMARK  Name = 
REMARK  5 active torsions:
REMARK  status: ('A' for Active; 'I' for Inactive)
REMARK    1  A    between atoms: C_1  and  C_2
REMARK    2  A    between atoms: C_2  and  O_4
REMARK    3  A    between atoms: O_4  and  C_5
REMARK    4  A    between atoms: C_10  and  C_11
REMARK    5  A    between atoms: C_17  and  N_19
REMARK                            x       y       z     vdW  Elec       q    Type
REMARK                         _______ _______ _______ _____ _____    ______ ____
ROOT
ATOM      1  C   UNL     1       8.019  -4.259  24.814  0.00  0.00    +0.253 C 
ATOM      2  N   UNL     1       8.085  -2.907  25.058  0.00  0.00    -0.260 N 
ATOM      3  H   UNL     1       7.407  -2.459  25.653  0.00  0.00    +0.157 HD
ATOM      4  C   UNL     1       8.967  -2.105  24.382  0.00  0.00    +0.171 A 
ATOM      5  S   UNL     1       8.704  -0.428  24.589  0.00  0.00    +0.022 S 
ATOM      6  C   UNL     1       9.933  -0.135  23.445  0.00  0.00    +0.332 A 
ATOM      7  C   UNL     1      10.518  -1.310  23.041  0.00  0.00    +0.205 A 
ATOM      8  N   UNL     1       9.958  -2.443  23.595  0.00  0.00    -0.226 NA
ATOM      9  O   UNL     1       8.711  -4.863  23.998  0.00  0.00    -0.270 OA
ENDROOT
BRANCH   1  11
ATOM     10  C   UNL     1       5.846  -5.659  25.000  0.00  0.00    +0.144 A 
ATOM     11  C   UNL     1       6.978  -5.042  25.560  0.00  0.00    +0.079 A 
ATOM     12  C   UNL     1       7.177  -5.151  26.952  0.00  0.00    +0.017 A 
ATOM     13  C   UNL     1       6.280  -5.849  27.762  0.00  0.00    +0.001 A 
ATOM     14  C   UNL     1       5.178  -6.473  27.190  0.00  0.00    +0.004 A 
ATOM     15  C   UNL     1       4.971  -6.396  25.813  0.00  0.00    +0.047 A 
BRANCH  10  16
ATOM     16  O   UNL     1       5.627  -5.582  23.603  0.00  0.00    -0.425 OA
BRANCH  16  18
ATOM     17  C   UNL     1       5.272  -3.436  22.675  0.00  0.00    +0.136 C 
ATOM     18  C   UNL     1       4.642  -4.741  23.060  0.00  0.00    +0.309 C 
ATOM     19  O   UNL     1       3.449  -4.986  22.943  0.00  0.00    -0.251 OA
ENDBRANCH  16  18
ENDBRANCH  10  16
ENDBRANCH   1  11
BRANCH   6  20
ATOM     20  N   UNL     1      10.254   1.182  22.994  0.00  0.00    +0.089 N 
ATOM     21  O   UNL     1      10.656   1.999  23.831  0.00  0.00    +0.042 OA
ATOM     22  O   UNL     1      10.086   1.404  21.791  0.00  0.00    -0.576 OA
ENDBRANCH   6  20
TORSDOF 4
ENDMDL
MODEL 5
REMARK VINA RESULT:      -6.4      1.976      2.454
REMARK  Name = 
REMARK  5 active torsions:
REMARK  status: ('A' for Active; 'I' for Inactive)
REMARK    1  A    between atoms: C_1  and  C_2
REMARK    2  A    between atoms: C_2  and  O_4
REMARK    3  A    between atoms: O_4  and  C_5
REMARK    4  A    between atoms: C_10  and  C_11
REMARK    5  A    between atoms: C_17  and  N_19
REMARK                            x       y       z     vdW  Elec       q    Type
REMARK                         _______ _______ _______ _____ _____    ______ ____
ROOT
ATOM      1  C   UNL     1       6.837  -3.907  23.015  0.00  0.00    +0.253 C 
ATOM      2  N   UNL     1       6.974  -2.615  23.468  0.00  0.00    -0.260 N 
ATOM      3  H   UNL     1       6.361  -2.253  24.181  0.00  0.00    +0.157 HD
ATOM      4  C   UNL     1       7.833  -1.736  22.861  0.00  0.00    +0.171 A 
ATOM      5  S   UNL     1       7.652  -0.110  23.356  0.00  0.00    +0.022 S 
ATOM      6  C   UNL     1       8.800   0.335  22.179  0.00  0.00    +0.332 A 
ATOM      7  C   UNL     1       9.307  -0.772  21.544  0.00  0.00    +0.205 A 
ATOM      8  N   UNL     1       8.747  -1.966  21.951  0.00  0.00    -0.226 NA
ATOM      9  O   UNL     1       7.441  -4.386  22.059  0.00  0.00    -0.270 OA
ENDROOT
BRANCH   1  11
ATOM     10  C   UNL     1       5.752  -5.020  25.089  0.00  0.00    +0.144 A 
ATOM     11  C   UNL     1       5.826  -4.774  23.706  0.00  0.00    +0.079 A 
ATOM     12  C   UNL     1       4.875  -5.392  22.867  0.00  0.00    +0.017 A 
ATOM     13  C   UNL     1       3.883  -6.226  23.383  0.00  0.00    +0.001 A 
ATOM     14  C   UNL     1       3.809  -6.441  24.754  0.00  0.00    +0.004 A 
ATOM     15  C   UNL     1       4.726  -5.826  25.606  0.00  0.00    +0.047 A 
BRANCH  10  16
ATOM     16  O   UNL     1       6.682  -4.402  25.959  0.00  0.00    -0.425 OA
BRANCH  16  18
ATOM     17  C   UNL     1       8.942  -5.083  25.809  0.00  0.00    +0.136 C 
ATOM     18  C   UNL     1       7.678  -5.144  26.614  0.00  0.00    +0.309 C 
ATOM     19  O   UNL     1       7.559  -5.781  27.651  0.00  0.00    -0.251 OA
ENDBRANCH  16  18
ENDBRANCH  10  16
ENDBRANCH   1  11
BRANCH   6  20
ATOM     20  N   UNL     1       9.137   1.699  21.922  0.00  0.00    +0.089 N 
ATOM     21  O   UNL     1       8.219   2.480  21.644  0.00  0.00    +0.042 OA
ATOM     22  O   UNL     1      10.337   1.988  21.985  0.00  0.00    -0.576 OA
ENDBRANCH   6  20
TORSDOF 4
ENDMDL
MODEL 6
REMARK VINA RESULT:      -6.3      1.836      2.393
REMARK  Name = 
REMARK  5 active torsions:
REMARK  status: ('A' for Active; 'I' for Inactive)
REMARK    1  A    between atoms: C_1  and  C_2
REMARK    2  A    between atoms: C_2  and  O_4
REMARK    3  A    between atoms: O_4  and  C_5
REMARK    4  A    between atoms: C_10  and  C_11
REMARK    5  A    between atoms: C_17  and  N_19
REMARK                            x       y       z     vdW  Elec       q    Type
REMARK                         _______ _______ _______ _____ _____    ______ ____
ROOT
ATOM      1  C   UNL     1       6.844  -2.005  23.007  0.00  0.00    +0.253 C 
ATOM      2  N   UNL     1       7.952  -1.273  22.647  0.00  0.00    -0.260 N 
ATOM      3  H   UNL     1       8.751  -1.724  22.229  0.00  0.00    +0.157 HD
ATOM      4  C   UNL     1       8.072   0.049  22.986  0.00  0.00    +0.171 A 
ATOM      5  S   UNL     1       9.627   0.710  22.726  0.00  0.00    +0.022 S 
ATOM      6  C   UNL     1       9.093   2.153  23.458  0.00  0.00    +0.332 A 
ATOM      7  C   UNL     1       7.759   2.077  23.777  0.00  0.00    +0.205 A 
ATOM      8  N   UNL     1       7.176   0.859  23.493  0.00  0.00    -0.226 NA
ATOM      9  O   UNL     1       5.889  -1.569  23.645  0.00  0.00    -0.270 OA
ENDROOT
BRANCH   1  11
ATOM     10  C   UNL     1       7.414  -4.504  23.386  0.00  0.00    +0.144 A 
ATOM     11  C   UNL     1       6.833  -3.461  22.644  0.00  0.00    +0.079 A 
ATOM     12  C   UNL     1       6.175  -3.785  21.439  0.00  0.00    +0.017 A 
ATOM     13  C   UNL     1       6.096  -5.102  20.986  0.00  0.00    +0.001 A 
ATOM     14  C   UNL     1       6.655  -6.125  21.742  0.00  0.00    +0.004 A 
ATOM     15  C   UNL     1       7.295  -5.832  22.946  0.00  0.00    +0.047 A 
BRANCH  10  16
ATOM     16  O   UNL     1       8.067  -4.213  24.608  0.00  0.00    -0.425 OA
BRANCH  16  18
ATOM     17  C   UNL     1      10.035  -5.059  25.612  0.00  0.00    +0.136 C 
ATOM     18  C   UNL     1       9.460  -4.042  24.672  0.00  0.00    +0.309 C 
ATOM     19  O   UNL     1      10.123  -3.189  24.099  0.00  0.00    -0.251 OA
ENDBRANCH  16  18
ENDBRANCH  10  16
ENDBRANCH   1  11
BRANCH   6  20
ATOM     20  N   UNL     1       9.969   3.255  23.695  0.00  0.00    +0.089 N 
ATOM     21  O   UNL     1       9.474   4.310  24.110  0.00  0.00    +0.042 OA
ATOM     22  O   UNL     1      11.165   3.067  23.449  0.00  0.00    -0.576 OA
ENDBRANCH   6  20
TORSDOF 4
ENDMDL
MODEL 7
REMARK VINA RESULT:      -6.3      2.869      7.218
REMARK  Name = 
REMARK  5 active torsions:
REMARK  status: ('A' for Active; 'I' for Inactive)
REMARK    1  A    between atoms: C_1  and  C_2
REMARK    2  A    between atoms: C_2  and  O_4
REMARK    3  A    between atoms: O_4  and  C_5
REMARK    4  A    between atoms: C_10  and  C_11
REMARK    5  A    between atoms: C_17  and  N_19
REMARK                            x       y       z     vdW  Elec       q    Type
REMARK                         _______ _______ _______ _____ _____    ______ ____
ROOT
ATOM      1  C   UNL     1       8.756  -0.672  25.672  0.00  0.00    +0.253 C 
ATOM      2  N   UNL     1       8.102  -1.623  24.923  0.00  0.00    -0.260 N 
ATOM      3  H   UNL     1       7.759  -1.404  24.001  0.00  0.00    +0.157 HD
ATOM      4  C   UNL     1       7.757  -2.835  25.460  0.00  0.00    +0.171 A 
ATOM      5  S   UNL     1       6.694  -3.763  24.493  0.00  0.00    +0.022 S 
ATOM      6  C   UNL     1       6.606  -4.904  25.755  0.00  0.00    +0.332 A 
ATOM      7  C   UNL     1       7.441  -4.559  26.789  0.00  0.00    +0.205 A 
ATOM      8  N   UNL     1       8.109  -3.365  26.605  0.00  0.00    -0.226 NA
ATOM      9  O   UNL     1       9.082  -0.803  26.849  0.00  0.00    -0.270 OA
ENDROOT
BRANCH   1  11
ATOM     10  C   UNL     1      10.012   0.895  24.033  0.00  0.00    +0.144 A 
ATOM     11  C   UNL     1       9.036   0.648  25.014  0.00  0.00    +0.079 A 
ATOM     12  C   UNL     1       8.232   1.726  25.441  0.00  0.00    +0.017 A 
ATOM     13  C   UNL     1       8.393   3.007  24.911  0.00  0.00    +0.001 A 
ATOM     14  C   UNL     1       9.347   3.230  23.925  0.00  0.00    +0.004 A 
ATOM     15  C   UNL     1      10.140   2.175  23.473  0.00  0.00    +0.047 A 
BRANCH  10  16
ATOM     16  O   UNL     1      10.824  -0.170  23.571  0.00  0.00    -0.425 OA
BRANCH  16  18
ATOM     17  C   UNL     1       9.649  -0.461  21.538  0.00  0.00    +0.136 C 
ATOM     18  C   UNL     1      10.323  -1.144  22.691  0.00  0.00    +0.309 C 
ATOM     19  O   UNL     1      10.376  -2.358  22.831  0.00  0.00    -0.251 OA
ENDBRANCH  16  18
ENDBRANCH  10  16
ENDBRANCH   1  11
BRANCH   6  20
ATOM     20  N   UNL     1       5.744  -6.042  25.693  0.00  0.00    +0.089 N 
ATOM     21  O   UNL     1       5.150  -6.262  24.631  0.00  0.00    +0.042 OA
ATOM     22  O   UNL     1       5.649  -6.714  26.726  0.00  0.00    -0.576 OA
ENDBRANCH   6  20
TORSDOF 4
ENDMDL
MODEL 8
REMARK VINA RESULT:      -6.2      2.013      3.400
REMARK  Name = 
REMARK  5 active torsions:
REMARK  status: ('A' for Active; 'I' for Inactive)
REMARK    1  A    between atoms: C_1  and  C_2
REMARK    2  A    between atoms: C_2  and  O_4
REMARK    3  A    between atoms: O_4  and  C_5
REMARK    4  A    between atoms: C_10  and  C_11
REMARK    5  A    between atoms: C_17  and  N_19
REMARK                            x       y       z     vdW  Elec       q    Type
REMARK                         _______ _______ _______ _____ _____    ______ ____
ROOT
ATOM      1  C   UNL     1       8.061  -1.376  24.044  0.00  0.00    +0.253 C 
ATOM      2  N   UNL     1       9.238  -0.664  24.081  0.00  0.00    -0.260 N 
ATOM      3  H   UNL     1      10.060  -1.054  24.514  0.00  0.00    +0.157 HD
ATOM      4  C   UNL     1       9.290   0.644  23.679  0.00  0.00    +0.171 A 
ATOM      5  S   UNL     1      10.745   1.451  24.074  0.00  0.00    +0.022 S 
ATOM      6  C   UNL     1      10.061   2.893  23.477  0.00  0.00    +0.332 A 
ATOM      7  C   UNL     1       8.816   2.663  22.945  0.00  0.00    +0.205 A 
ATOM      8  N   UNL     1       8.382   1.357  23.059  0.00  0.00    -0.226 NA
ATOM      9  O   UNL     1       6.980  -0.931  23.666  0.00  0.00    -0.270 OA
ENDROOT
BRANCH   1  11
ATOM     10  C   UNL     1       7.819  -3.947  23.822  0.00  0.00    +0.144 A 
ATOM     11  C   UNL     1       8.092  -2.784  24.563  0.00  0.00    +0.079 A 
ATOM     12  C   UNL     1       8.425  -2.925  25.927  0.00  0.00    +0.017 A 
ATOM     13  C   UNL     1       8.485  -4.179  26.534  0.00  0.00    +0.001 A 
ATOM     14  C   UNL     1       8.236  -5.321  25.783  0.00  0.00    +0.004 A 
ATOM     15  C   UNL     1       7.923  -5.209  24.428  0.00  0.00    +0.047 A 
BRANCH  10  16
ATOM     16  O   UNL     1       7.497  -3.840  22.447  0.00  0.00    -0.425 OA
BRANCH  16  18
ATOM     17  C   UNL     1       6.579  -5.666  21.257  0.00  0.00    +0.136 C 
ATOM     18  C   UNL     1       6.297  -4.357  21.933  0.00  0.00    +0.309 C 
ATOM     19  O   UNL     1       5.192  -3.834  21.976  0.00  0.00    -0.251 OA
ENDBRANCH  16  18
ENDBRANCH  10  16
ENDBRANCH   1  11
BRANCH   6  20
ATOM     20  N   UNL     1      10.737   4.148  23.564  0.00  0.00    +0.089 N 
ATOM     21  O   UNL     1      11.956   4.166  23.357  0.00  0.00    +0.042 OA
ATOM     22  O   UNL     1      10.041   5.126  23.857  0.00  0.00    -0.576 OA
ENDBRANCH   6  20
TORSDOF 4
ENDMDL
MODEL 9
REMARK VINA RESULT:      -6.1      4.295      7.582
REMARK  Name = 
REMARK  5 active torsions:
REMARK  status: ('A' for Active; 'I' for Inactive)
REMARK    1  A    between atoms: C_1  and  C_2
REMARK    2  A    between atoms: C_2  and  O_4
REMARK    3  A    between atoms: O_4  and  C_5
REMARK    4  A    between atoms: C_10  and  C_11
REMARK    5  A    between atoms: C_17  and  N_19
REMARK                            x       y       z     vdW  Elec       q    Type
REMARK                         _______ _______ _______ _____ _____    ______ ____
ROOT
ATOM      1  C   UNL     1       5.916  -3.413  22.925  0.00  0.00    +0.253 C 
ATOM      2  N   UNL     1       5.477  -4.209  23.958  0.00  0.00    -0.260 N 
ATOM      3  H   UNL     1       6.032  -4.321  24.791  0.00  0.00    +0.157 HD
ATOM      4  C   UNL     1       4.362  -4.994  23.825  0.00  0.00    +0.171 A 
ATOM      5  S   UNL     1       4.140  -6.131  25.082  0.00  0.00    +0.022 S 
ATOM      6  C   UNL     1       2.813  -6.764  24.222  0.00  0.00    +0.332 A 
ATOM      7  C   UNL     1       2.569  -6.032  23.086  0.00  0.00    +0.205 A 
ATOM      8  N   UNL     1       3.465  -5.005  22.870  0.00  0.00    -0.226 NA
ATOM      9  O   UNL     1       5.380  -3.329  21.823  0.00  0.00    -0.270 OA
ENDROOT
BRANCH   1  11
ATOM     10  C   UNL     1       8.414  -3.165  23.569  0.00  0.00    +0.144 A 
ATOM     11  C   UNL     1       7.182  -2.638  23.145  0.00  0.00    +0.079 A 
ATOM     12  C   UNL     1       7.100  -1.251  22.899  0.00  0.00    +0.017 A 
ATOM     13  C   UNL     1       8.204  -0.416  23.069  0.00  0.00    +0.001 A 
ATOM     14  C   UNL     1       9.421  -0.955  23.467  0.00  0.00    +0.004 A 
ATOM     15  C   UNL     1       9.533  -2.327  23.698  0.00  0.00    +0.047 A 
BRANCH  10  16
ATOM     16  O   UNL     1       8.534  -4.556  23.808  0.00  0.00    -0.425 OA
BRANCH  16  18
ATOM     17  C   UNL     1       9.967  -5.208  25.573  0.00  0.00    +0.136 C 
ATOM     18  C   UNL     1       8.546  -5.077  25.113  0.00  0.00    +0.309 C 
ATOM     19  O   UNL     1       7.577  -5.416  25.778  0.00  0.00    -0.251 OA
ENDBRANCH  16  18
ENDBRANCH  10  16
ENDBRANCH   1  11
BRANCH   6  20
ATOM     20  N   UNL     1       2.099  -7.918  24.668  0.00  0.00    +0.089 N 
ATOM     21  O   UNL     1       2.740  -8.958  24.861  0.00  0.00    +0.042 OA
ATOM     22  O   UNL     1       0.879  -7.786  24.811  0.00  0.00    -0.576 OA
ENDBRANCH   6  20
TORSDOF 4
ENDMDL
