MODEL 1
REMARK VINA RESULT:      -5.0      0.000      0.000
REMARK  Name = 
REMARK  15 active torsions:
REMARK  status: ('A' for Active; 'I' for Inactive)
REMARK    1  A    between atoms: C_1  and  O_2
REMARK    2  A    between atoms: O_2  and  C_3
REMARK    3  A    between atoms: C_3  and  C_4
REMARK    4  A    between atoms: C_3  and  C_5
REMARK    5  A    between atoms: C_3  and  C_6
REMARK    6  A    between atoms: C_6  and  C_7
REMARK    7  A    between atoms: C_7  and  C_8
REMARK    8  A    between atoms: C_8  and  C_9
REMARK    9  A    between atoms: C_9  and  C_10
REMARK   10  A    between atoms: C_9  and  C_12
REMARK   11  A    between atoms: C_12  and  C_13
REMARK   12  A    between atoms: C_14  and  C_15
REMARK   13  A    between atoms: C_15  and  C_16
REMARK   14  A    between atoms: C_17  and  C_18
REMARK   15  A    between atoms: C_18  and  O_19
REMARK                            x       y       z     vdW  Elec       q    Type
REMARK                         _______ _______ _______ _____ _____    ______ ____
ROOT
ATOM      1  C   UNL     1      10.014   0.712  22.156  0.00  0.00    -0.010 C 
ATOM      2  C   UNL     1       8.928   1.796  22.184  0.00  0.00    +0.008 C 
ENDROOT
BRANCH   1   3
ATOM      3  C   UNL     1      10.512   0.430  23.584  0.00  0.00    +0.003 C 
BRANCH   3   4
ATOM      4  C   UNL     1       9.585   0.940  24.693  0.00  0.00    +0.003 C 
BRANCH   4   5
ATOM      5  C   UNL     1       9.108  -0.082  25.739  0.00  0.00    +0.034 C 
BRANCH   5   6
ATOM      6  C   UNL     1       7.594  -0.182  26.072  0.00  0.00    +0.064 C 
ATOM      7  C   UNL     1       7.173   0.729  27.231  0.00  0.00    +0.041 C 
ATOM      8  C   UNL     1       6.773   0.131  24.812  0.00  0.00    +0.041 C 
BRANCH   6  10
ATOM      9  C   UNL     1       6.098  -2.082  26.476  0.00  0.00    +0.194 C 
ATOM     10  O   UNL     1       7.422  -1.566  26.458  0.00  0.00    -0.377 OA
ENDBRANCH   6  10
ENDBRANCH   5   6
ENDBRANCH   4   5
ENDBRANCH   3   4
ENDBRANCH   1   3
BRANCH   1  11
ATOM     11  C   UNL     1       9.544  -0.599  21.498  0.00  0.00    +0.030 C 
BRANCH  11  12
ATOM     12  C   UNL     1       9.538  -1.745  22.463  0.00  0.00    -0.026 C 
ATOM     13  C   UNL     1       8.413  -2.376  22.828  0.00  0.00    -0.001 C 
BRANCH  13  14
ATOM     14  C   UNL     1       8.354  -3.564  23.668  0.00  0.00    -0.044 C 
ATOM     15  C   UNL     1       9.289  -3.680  24.635  0.00  0.00    +0.094 C 
ATOM     16  C   UNL     1       7.184  -4.488  23.459  0.00  0.00    +0.044 C 
BRANCH  15  17
ATOM     17  C   UNL     1       9.481  -4.692  25.690  0.00  0.00    +0.330 C 
ATOM     18  O   UNL     1       9.103  -4.490  26.835  0.00  0.00    -0.246 OA
BRANCH  17  19
ATOM     19  O   UNL     1      10.141  -5.802  25.330  0.00  0.00    -0.478 OA
ATOM     20  H   UNL     1      11.061  -5.836  25.637  0.00  0.00    +0.295 HD
ENDBRANCH  17  19
ENDBRANCH  15  17
ENDBRANCH  13  14
ENDBRANCH  11  12
ENDBRANCH   1  11
TORSDOF 10
ENDMDL
MODEL 2
REMARK VINA RESULT:      -4.9      2.388      3.393
REMARK  Name = 
REMARK  15 active torsions:
REMARK  status: ('A' for Active; 'I' for Inactive)
REMARK    1  A    between atoms: C_1  and  O_2
REMARK    2  A    between atoms: O_2  and  C_3
REMARK    3  A    between atoms: C_3  and  C_4
REMARK    4  A    between atoms: C_3  and  C_5
REMARK    5  A    between atoms: C_3  and  C_6
REMARK    6  A    between atoms: C_6  and  C_7
REMARK    7  A    between atoms: C_7  and  C_8
REMARK    8  A    between atoms: C_8  and  C_9
REMARK    9  A    between atoms: C_9  and  C_10
REMARK   10  A    between atoms: C_9  and  C_12
REMARK   11  A    between atoms: C_12  and  C_13
REMARK   12  A    between atoms: C_14  and  C_15
REMARK   13  A    between atoms: C_15  and  C_16
REMARK   14  A    between atoms: C_17  and  C_18
REMARK   15  A    between atoms: C_18  and  O_19
REMARK                            x       y       z     vdW  Elec       q    Type
REMARK                         _______ _______ _______ _____ _____    ______ ____
ROOT
ATOM      1  C   UNL     1      10.223   2.218  23.434  0.00  0.00    -0.010 C 
ATOM      2  C   UNL     1      11.172   3.423  23.358  0.00  0.00    +0.008 C 
ENDROOT
BRANCH   1   3
ATOM      3  C   UNL     1       9.958   1.668  22.021  0.00  0.00    +0.003 C 
BRANCH   3   4
ATOM      4  C   UNL     1       8.498   1.768  21.564  0.00  0.00    +0.003 C 
BRANCH   4   5
ATOM      5  C   UNL     1       7.604   2.794  22.280  0.00  0.00    +0.034 C 
BRANCH   5   6
ATOM      6  C   UNL     1       6.572   2.303  23.333  0.00  0.00    +0.064 C 
ATOM      7  C   UNL     1       6.601   0.784  23.538  0.00  0.00    +0.041 C 
ATOM      8  C   UNL     1       6.815   3.033  24.663  0.00  0.00    +0.041 C 
BRANCH   6  10
ATOM      9  C   UNL     1       4.925   4.058  22.868  0.00  0.00    +0.194 C 
ATOM     10  O   UNL     1       5.298   2.691  22.767  0.00  0.00    -0.377 OA
ENDBRANCH   6  10
ENDBRANCH   5   6
ENDBRANCH   4   5
ENDBRANCH   3   4
ENDBRANCH   1   3
BRANCH   1  11
ATOM     11  C   UNL     1      10.748   1.091  24.343  0.00  0.00    +0.030 C 
BRANCH  11  12
ATOM     12  C   UNL     1      10.401  -0.267  23.817  0.00  0.00    -0.026 C 
ATOM     13  C   UNL     1       9.613  -1.121  24.485  0.00  0.00    -0.001 C 
BRANCH  13  14
ATOM     14  C   UNL     1       9.146  -2.404  23.976  0.00  0.00    -0.044 C 
ATOM     15  C   UNL     1       9.198  -3.455  24.823  0.00  0.00    +0.094 C 
ATOM     16  C   UNL     1       8.536  -2.411  22.601  0.00  0.00    +0.044 C 
BRANCH  15  17
ATOM     17  C   UNL     1       8.751  -4.852  24.671  0.00  0.00    +0.330 C 
ATOM     18  O   UNL     1       7.563  -5.134  24.632  0.00  0.00    -0.246 OA
BRANCH  17  19
ATOM     19  O   UNL     1       9.718  -5.782  24.642  0.00  0.00    -0.478 OA
ATOM     20  H   UNL     1       9.525  -6.538  24.065  0.00  0.00    +0.295 HD
ENDBRANCH  17  19
ENDBRANCH  15  17
ENDBRANCH  13  14
ENDBRANCH  11  12
ENDBRANCH   1  11
TORSDOF 10
ENDMDL
MODEL 3
REMARK VINA RESULT:      -4.8      4.373      6.920
REMARK  Name = 
REMARK  15 active torsions:
REMARK  status: ('A' for Active; 'I' for Inactive)
REMARK    1  A    between atoms: C_1  and  O_2
REMARK    2  A    between atoms: O_2  and  C_3
REMARK    3  A    between atoms: C_3  and  C_4
REMARK    4  A    between atoms: C_3  and  C_5
REMARK    5  A    between atoms: C_3  and  C_6
REMARK    6  A    between atoms: C_6  and  C_7
REMARK    7  A    between atoms: C_7  and  C_8
REMARK    8  A    between atoms: C_8  and  C_9
REMARK    9  A    between atoms: C_9  and  C_10
REMARK   10  A    between atoms: C_9  and  C_12
REMARK   11  A    between atoms: C_12  and  C_13
REMARK   12  A    between atoms: C_14  and  C_15
REMARK   13  A    between atoms: C_15  and  C_16
REMARK   14  A    between atoms: C_17  and  C_18
REMARK   15  A    between atoms: C_18  and  O_19
REMARK                            x       y       z     vdW  Elec       q    Type
REMARK                         _______ _______ _______ _____ _____    ______ ____
ROOT
ATOM      1  C   UNL     1       9.022   0.428  22.979  0.00  0.00    -0.010 C 
ATOM      2  C   UNL     1       9.424   0.493  21.499  0.00  0.00    +0.008 C 
ENDROOT
BRANCH   1   3
ATOM      3  C   UNL     1      10.118  -0.285  23.790  0.00  0.00    +0.003 C 
BRANCH   3   4
ATOM      4  C   UNL     1       9.750  -1.700  24.251  0.00  0.00    +0.003 C 
BRANCH   4   5
ATOM      5  C   UNL     1       9.102  -2.632  23.214  0.00  0.00    +0.034 C 
BRANCH   5   6
ATOM      6  C   UNL     1       7.660  -3.157  23.458  0.00  0.00    +0.064 C 
ATOM      7  C   UNL     1       7.617  -4.648  23.812  0.00  0.00    +0.041 C 
ATOM      8  C   UNL     1       6.992  -2.320  24.558  0.00  0.00    +0.041 C 
BRANCH   6  10
ATOM      9  C   UNL     1       5.595  -3.134  22.138  0.00  0.00    +0.194 C 
ATOM     10  O   UNL     1       7.002  -2.943  22.187  0.00  0.00    -0.377 OA
ENDBRANCH   6  10
ENDBRANCH   5   6
ENDBRANCH   4   5
ENDBRANCH   3   4
ENDBRANCH   1   3
BRANCH   1  11
ATOM     11  C   UNL     1       8.736   1.813  23.590  0.00  0.00    +0.030 C 
BRANCH  11  12
ATOM     12  C   UNL     1       9.862   2.774  23.361  0.00  0.00    -0.026 C 
ATOM     13  C   UNL     1       9.840   4.034  23.819  0.00  0.00    -0.001 C 
BRANCH  13  14
ATOM     14  C   UNL     1      10.947   4.977  23.730  0.00  0.00    -0.044 C 
ATOM     15  C   UNL     1      12.024   4.593  23.013  0.00  0.00    +0.094 C 
ATOM     16  C   UNL     1      10.734   6.336  24.341  0.00  0.00    +0.044 C 
BRANCH  15  17
ATOM     17  C   UNL     1      13.266   5.307  22.660  0.00  0.00    +0.330 C 
ATOM     18  O   UNL     1      13.275   6.162  21.787  0.00  0.00    -0.246 OA
BRANCH  17  19
ATOM     19  O   UNL     1      14.374   4.919  23.306  0.00  0.00    -0.478 OA
ATOM     20  H   UNL     1      14.759   5.600  23.881  0.00  0.00    +0.295 HD
ENDBRANCH  17  19
ENDBRANCH  15  17
ENDBRANCH  13  14
ENDBRANCH  11  12
ENDBRANCH   1  11
TORSDOF 10
ENDMDL
MODEL 4
REMARK VINA RESULT:      -4.7      2.880      6.159
REMARK  Name = 
REMARK  15 active torsions:
REMARK  status: ('A' for Active; 'I' for Inactive)
REMARK    1  A    between atoms: C_1  and  O_2
REMARK    2  A    between atoms: O_2  and  C_3
REMARK    3  A    between atoms: C_3  and  C_4
REMARK    4  A    between atoms: C_3  and  C_5
REMARK    5  A    between atoms: C_3  and  C_6
REMARK    6  A    between atoms: C_6  and  C_7
REMARK    7  A    between atoms: C_7  and  C_8
REMARK    8  A    between atoms: C_8  and  C_9
REMARK    9  A    between atoms: C_9  and  C_10
REMARK   10  A    between atoms: C_9  and  C_12
REMARK   11  A    between atoms: C_12  and  C_13
REMARK   12  A    between atoms: C_14  and  C_15
REMARK   13  A    between atoms: C_15  and  C_16
REMARK   14  A    between atoms: C_17  and  C_18
REMARK   15  A    between atoms: C_18  and  O_19
REMARK                            x       y       z     vdW  Elec       q    Type
REMARK                         _______ _______ _______ _____ _____    ______ ____
ROOT
ATOM      1  C   UNL     1       8.780  -3.866  26.313  0.00  0.00    -0.010 C 
ATOM      2  C   UNL     1       7.917  -4.982  26.918  0.00  0.00    +0.008 C 
ENDROOT
BRANCH   1   3
ATOM      3  C   UNL     1       9.276  -4.282  24.917  0.00  0.00    +0.003 C 
BRANCH   3   4
ATOM      4  C   UNL     1       8.312  -5.190  24.145  0.00  0.00    +0.003 C 
BRANCH   4   5
ATOM      5  C   UNL     1       7.471  -4.542  23.033  0.00  0.00    +0.034 C 
BRANCH   5   6
ATOM      6  C   UNL     1       5.925  -4.487  23.179  0.00  0.00    +0.064 C 
ATOM      7  C   UNL     1       5.404  -5.327  24.352  0.00  0.00    +0.041 C 
ATOM      8  C   UNL     1       5.477  -3.025  23.319  0.00  0.00    +0.041 C 
BRANCH   6  10
ATOM      9  C   UNL     1       6.405  -5.642  21.071  0.00  0.00    +0.194 C 
ATOM     10  O   UNL     1       5.446  -5.047  21.934  0.00  0.00    -0.377 OA
ENDBRANCH   6  10
ENDBRANCH   5   6
ENDBRANCH   4   5
ENDBRANCH   3   4
ENDBRANCH   1   3
BRANCH   1  11
ATOM     11  C   UNL     1       8.047  -2.514  26.226  0.00  0.00    +0.030 C 
BRANCH  11  12
ATOM     12  C   UNL     1       8.607  -1.636  25.149  0.00  0.00    -0.026 C 
ATOM     13  C   UNL     1       8.811  -0.322  25.320  0.00  0.00    -0.001 C 
BRANCH  13  14
ATOM     14  C   UNL     1       9.457   0.559  24.357  0.00  0.00    -0.044 C 
ATOM     15  C   UNL     1       8.654   1.228  23.503  0.00  0.00    +0.094 C 
ATOM     16  C   UNL     1      10.946   0.733  24.486  0.00  0.00    +0.044 C 
BRANCH  15  17
ATOM     17  C   UNL     1       8.954   2.237  22.469  0.00  0.00    +0.330 C 
ATOM     18  O   UNL     1       8.432   3.341  22.494  0.00  0.00    -0.246 OA
BRANCH  17  19
ATOM     19  O   UNL     1       9.777   1.846  21.485  0.00  0.00    -0.478 OA
ATOM     20  H   UNL     1       9.862   2.486  20.760  0.00  0.00    +0.295 HD
ENDBRANCH  17  19
ENDBRANCH  15  17
ENDBRANCH  13  14
ENDBRANCH  11  12
ENDBRANCH   1  11
TORSDOF 10
ENDMDL
MODEL 5
REMARK VINA RESULT:      -4.7      4.118      6.952
REMARK  Name = 
REMARK  15 active torsions:
REMARK  status: ('A' for Active; 'I' for Inactive)
REMARK    1  A    between atoms: C_1  and  O_2
REMARK    2  A    between atoms: O_2  and  C_3
REMARK    3  A    between atoms: C_3  and  C_4
REMARK    4  A    between atoms: C_3  and  C_5
REMARK    5  A    between atoms: C_3  and  C_6
REMARK    6  A    between atoms: C_6  and  C_7
REMARK    7  A    between atoms: C_7  and  C_8
REMARK    8  A    between atoms: C_8  and  C_9
REMARK    9  A    between atoms: C_9  and  C_10
REMARK   10  A    between atoms: C_9  and  C_12
REMARK   11  A    between atoms: C_12  and  C_13
REMARK   12  A    between atoms: C_14  and  C_15
REMARK   13  A    between atoms: C_15  and  C_16
REMARK   14  A    between atoms: C_17  and  C_18
REMARK   15  A    between atoms: C_18  and  O_19
REMARK                            x       y       z     vdW  Elec       q    Type
REMARK                         _______ _______ _______ _____ _____    ______ ____
ROOT
ATOM      1  C   UNL     1       9.129  -0.312  23.211  0.00  0.00    -0.010 C 
ATOM      2  C   UNL     1       9.835  -0.620  21.883  0.00  0.00    +0.008 C 
ENDROOT
BRANCH   1   3
ATOM      3  C   UNL     1       8.280  -1.519  23.647  0.00  0.00    +0.003 C 
BRANCH   3   4
ATOM      4  C   UNL     1       7.387  -2.100  22.545  0.00  0.00    +0.003 C 
BRANCH   4   5
ATOM      5  C   UNL     1       6.086  -2.791  22.984  0.00  0.00    +0.034 C 
BRANCH   5   6
ATOM      6  C   UNL     1       6.012  -4.343  22.991  0.00  0.00    +0.064 C 
ATOM      7  C   UNL     1       7.372  -5.007  23.236  0.00  0.00    +0.041 C 
ATOM      8  C   UNL     1       4.989  -4.801  24.041  0.00  0.00    +0.041 C 
BRANCH   6  10
ATOM      9  C   UNL     1       6.246  -5.685  20.952  0.00  0.00    +0.194 C 
ATOM     10  O   UNL     1       5.550  -4.667  21.658  0.00  0.00    -0.377 OA
ENDBRANCH   6  10
ENDBRANCH   5   6
ENDBRANCH   4   5
ENDBRANCH   3   4
ENDBRANCH   1   3
BRANCH   1  11
ATOM     11  C   UNL     1      10.104   0.077  24.339  0.00  0.00    +0.030 C 
BRANCH  11  12
ATOM     12  C   UNL     1      10.710   1.429  24.120  0.00  0.00    -0.026 C 
ATOM     13  C   UNL     1       9.977   2.507  23.808  0.00  0.00    -0.001 C 
BRANCH  13  14
ATOM     14  C   UNL     1      10.489   3.866  23.698  0.00  0.00    -0.044 C 
ATOM     15  C   UNL     1      11.797   4.006  23.394  0.00  0.00    +0.094 C 
ATOM     16  C   UNL     1       9.487   4.983  23.810  0.00  0.00    +0.044 C 
BRANCH  15  17
ATOM     17  C   UNL     1      12.617   5.205  23.137  0.00  0.00    +0.330 C 
ATOM     18  O   UNL     1      12.997   5.480  22.009  0.00  0.00    -0.246 OA
BRANCH  17  19
ATOM     19  O   UNL     1      12.961   5.926  24.214  0.00  0.00    -0.478 OA
ATOM     20  H   UNL     1      12.306   5.907  24.931  0.00  0.00    +0.295 HD
ENDBRANCH  17  19
ENDBRANCH  15  17
ENDBRANCH  13  14
ENDBRANCH  11  12
ENDBRANCH   1  11
TORSDOF 10
ENDMDL
MODEL 6
REMARK VINA RESULT:      -4.7      2.391      4.386
REMARK  Name = 
REMARK  15 active torsions:
REMARK  status: ('A' for Active; 'I' for Inactive)
REMARK    1  A    between atoms: C_1  and  O_2
REMARK    2  A    between atoms: O_2  and  C_3
REMARK    3  A    between atoms: C_3  and  C_4
REMARK    4  A    between atoms: C_3  and  C_5
REMARK    5  A    between atoms: C_3  and  C_6
REMARK    6  A    between atoms: C_6  and  C_7
REMARK    7  A    between atoms: C_7  and  C_8
REMARK    8  A    between atoms: C_8  and  C_9
REMARK    9  A    between atoms: C_9  and  C_10
REMARK   10  A    between atoms: C_9  and  C_12
REMARK   11  A    between atoms: C_12  and  C_13
REMARK   12  A    between atoms: C_14  and  C_15
REMARK   13  A    between atoms: C_15  and  C_16
REMARK   14  A    between atoms: C_17  and  C_18
REMARK   15  A    between atoms: C_18  and  O_19
REMARK                            x       y       z     vdW  Elec       q    Type
REMARK                         _______ _______ _______ _____ _____    ______ ____
ROOT
ATOM      1  C   UNL     1       9.249  -0.716  23.965  0.00  0.00    -0.010 C 
ATOM      2  C   UNL     1      10.450   0.090  23.451  0.00  0.00    +0.008 C 
ENDROOT
BRANCH   1   3
ATOM      3  C   UNL     1       9.316  -2.157  23.428  0.00  0.00    +0.003 C 
BRANCH   3   4
ATOM      4  C   UNL     1       8.312  -2.467  22.312  0.00  0.00    +0.003 C 
BRANCH   4   5
ATOM      5  C   UNL     1       6.828  -2.562  22.705  0.00  0.00    +0.034 C 
BRANCH   5   6
ATOM      6  C   UNL     1       6.138  -3.953  22.747  0.00  0.00    +0.064 C 
ATOM      7  C   UNL     1       7.030  -5.047  23.346  0.00  0.00    +0.041 C 
ATOM      8  C   UNL     1       4.818  -3.845  23.524  0.00  0.00    +0.041 C 
BRANCH   6  10
ATOM      9  C   UNL     1       6.172  -5.562  20.897  0.00  0.00    +0.194 C 
ATOM     10  O   UNL     1       5.883  -4.247  21.353  0.00  0.00    -0.377 OA
ENDBRANCH   6  10
ENDBRANCH   5   6
ENDBRANCH   4   5
ENDBRANCH   3   4
ENDBRANCH   1   3
BRANCH   1  11
ATOM     11  C   UNL     1       9.144  -0.735  25.501  0.00  0.00    +0.030 C 
BRANCH  11  12
ATOM     12  C   UNL     1       8.490  -1.984  26.007  0.00  0.00    -0.026 C 
ATOM     13  C   UNL     1       7.210  -2.020  26.403  0.00  0.00    -0.001 C 
BRANCH  13  14
ATOM     14  C   UNL     1       6.487  -3.222  26.794  0.00  0.00    -0.044 C 
ATOM     15  C   UNL     1       7.166  -4.388  26.750  0.00  0.00    +0.094 C 
ATOM     16  C   UNL     1       5.092  -3.035  27.327  0.00  0.00    +0.044 C 
BRANCH  15  17
ATOM     17  C   UNL     1       6.779  -5.758  27.137  0.00  0.00    +0.330 C 
ATOM     18  O   UNL     1       5.918  -6.368  26.521  0.00  0.00    -0.246 OA
BRANCH  17  19
ATOM     19  O   UNL     1       7.381  -6.256  28.227  0.00  0.00    -0.478 OA
ATOM     20  H   UNL     1       7.000  -5.951  29.066  0.00  0.00    +0.295 HD
ENDBRANCH  17  19
ENDBRANCH  15  17
ENDBRANCH  13  14
ENDBRANCH  11  12
ENDBRANCH   1  11
TORSDOF 10
ENDMDL
MODEL 7
REMARK VINA RESULT:      -4.7      2.711      4.372
REMARK  Name = 
REMARK  15 active torsions:
REMARK  status: ('A' for Active; 'I' for Inactive)
REMARK    1  A    between atoms: C_1  and  O_2
REMARK    2  A    between atoms: O_2  and  C_3
REMARK    3  A    between atoms: C_3  and  C_4
REMARK    4  A    between atoms: C_3  and  C_5
REMARK    5  A    between atoms: C_3  and  C_6
REMARK    6  A    between atoms: C_6  and  C_7
REMARK    7  A    between atoms: C_7  and  C_8
REMARK    8  A    between atoms: C_8  and  C_9
REMARK    9  A    between atoms: C_9  and  C_10
REMARK   10  A    between atoms: C_9  and  C_12
REMARK   11  A    between atoms: C_12  and  C_13
REMARK   12  A    between atoms: C_14  and  C_15
REMARK   13  A    between atoms: C_15  and  C_16
REMARK   14  A    between atoms: C_17  and  C_18
REMARK   15  A    between atoms: C_18  and  O_19
REMARK                            x       y       z     vdW  Elec       q    Type
REMARK                         _______ _______ _______ _____ _____    ______ ____
ROOT
ATOM      1  C   UNL     1       8.566  -1.365  25.133  0.00  0.00    -0.010 C 
ATOM      2  C   UNL     1       7.712  -1.805  26.331  0.00  0.00    +0.008 C 
ENDROOT
BRANCH   1   3
ATOM      3  C   UNL     1       9.664  -0.393  25.599  0.00  0.00    +0.003 C 
BRANCH   3   4
ATOM      4  C   UNL     1       9.759   0.900  24.779  0.00  0.00    +0.003 C 
BRANCH   4   5
ATOM      5  C   UNL     1       8.517   1.317  23.974  0.00  0.00    +0.034 C 
BRANCH   5   6
ATOM      6  C   UNL     1       8.617   1.444  22.429  0.00  0.00    +0.064 C 
ATOM      7  C   UNL     1       7.554   2.374  21.834  0.00  0.00    +0.041 C 
ATOM      8  C   UNL     1      10.027   1.919  22.047  0.00  0.00    +0.041 C 
BRANCH   6  10
ATOM      9  C   UNL     1       9.493  -0.587  21.373  0.00  0.00    +0.194 C 
ATOM     10  O   UNL     1       8.394   0.093  21.962  0.00  0.00    -0.377 OA
ENDBRANCH   6  10
ENDBRANCH   5   6
ENDBRANCH   4   5
ENDBRANCH   3   4
ENDBRANCH   1   3
BRANCH   1  11
ATOM     11  C   UNL     1       9.200  -2.546  24.375  0.00  0.00    +0.030 C 
BRANCH  11  12
ATOM     12  C   UNL     1       8.189  -3.314  23.580  0.00  0.00    -0.026 C 
ATOM     13  C   UNL     1       7.929  -4.611  23.802  0.00  0.00    -0.001 C 
BRANCH  13  14
ATOM     14  C   UNL     1       6.882  -5.380  23.145  0.00  0.00    -0.044 C 
ATOM     15  C   UNL     1       5.710  -5.508  23.803  0.00  0.00    +0.094 C 
ATOM     16  C   UNL     1       7.161  -5.854  21.744  0.00  0.00    +0.044 C 
BRANCH  15  17
ATOM     17  C   UNL     1       4.437  -6.143  23.414  0.00  0.00    +0.330 C 
ATOM     18  O   UNL     1       3.574  -5.514  22.820  0.00  0.00    -0.246 OA
BRANCH  17  19
ATOM     19  O   UNL     1       4.269  -7.416  23.802  0.00  0.00    -0.478 OA
ATOM     20  H   UNL     1       5.048  -7.808  24.228  0.00  0.00    +0.295 HD
ENDBRANCH  17  19
ENDBRANCH  15  17
ENDBRANCH  13  14
ENDBRANCH  11  12
ENDBRANCH   1  11
TORSDOF 10
ENDMDL
MODEL 8
REMARK VINA RESULT:      -4.7      3.044      4.497
REMARK  Name = 
REMARK  15 active torsions:
REMARK  status: ('A' for Active; 'I' for Inactive)
REMARK    1  A    between atoms: C_1  and  O_2
REMARK    2  A    between atoms: O_2  and  C_3
REMARK    3  A    between atoms: C_3  and  C_4
REMARK    4  A    between atoms: C_3  and  C_5
REMARK    5  A    between atoms: C_3  and  C_6
REMARK    6  A    between atoms: C_6  and  C_7
REMARK    7  A    between atoms: C_7  and  C_8
REMARK    8  A    between atoms: C_8  and  C_9
REMARK    9  A    between atoms: C_9  and  C_10
REMARK   10  A    between atoms: C_9  and  C_12
REMARK   11  A    between atoms: C_12  and  C_13
REMARK   12  A    between atoms: C_14  and  C_15
REMARK   13  A    between atoms: C_15  and  C_16
REMARK   14  A    between atoms: C_17  and  C_18
REMARK   15  A    between atoms: C_18  and  O_19
REMARK                            x       y       z     vdW  Elec       q    Type
REMARK                         _______ _______ _______ _____ _____    ______ ____
ROOT
ATOM      1  C   UNL     1       9.701  -2.070  23.961  0.00  0.00    -0.010 C 
ATOM      2  C   UNL     1       9.377  -1.860  22.475  0.00  0.00    +0.008 C 
ENDROOT
BRANCH   1   3
ATOM      3  C   UNL     1       9.042  -0.964  24.804  0.00  0.00    +0.003 C 
BRANCH   3   4
ATOM      4  C   UNL     1       9.764   0.387  24.757  0.00  0.00    +0.003 C 
BRANCH   4   5
ATOM      5  C   UNL     1       8.923   1.624  24.400  0.00  0.00    +0.034 C 
BRANCH   5   6
ATOM      6  C   UNL     1       8.822   2.074  22.916  0.00  0.00    +0.064 C 
ATOM      7  C   UNL     1      10.080   1.747  22.103  0.00  0.00    +0.041 C 
ATOM      8  C   UNL     1       7.581   1.437  22.274  0.00  0.00    +0.041 C 
BRANCH   6  10
ATOM      9  C   UNL     1       7.357   4.038  22.844  0.00  0.00    +0.194 C 
ATOM     10  O   UNL     1       8.665   3.510  23.007  0.00  0.00    -0.377 OA
ENDBRANCH   6  10
ENDBRANCH   5   6
ENDBRANCH   4   5
ENDBRANCH   3   4
ENDBRANCH   1   3
BRANCH   1  11
ATOM     11  C   UNL     1       9.272  -3.453  24.484  0.00  0.00    +0.030 C 
BRANCH  11  12
ATOM     12  C   UNL     1       7.968  -3.899  23.896  0.00  0.00    -0.026 C 
ATOM     13  C   UNL     1       7.854  -5.004  23.145  0.00  0.00    -0.001 C 
BRANCH  13  14
ATOM     14  C   UNL     1       6.601  -5.552  22.644  0.00  0.00    -0.044 C 
ATOM     15  C   UNL     1       5.600  -5.708  23.536  0.00  0.00    +0.094 C 
ATOM     16  C   UNL     1       6.501  -5.775  21.159  0.00  0.00    +0.044 C 
BRANCH  15  17
ATOM     17  C   UNL     1       4.205  -6.156  23.367  0.00  0.00    +0.330 C 
ATOM     18  O   UNL     1       3.356  -5.414  22.895  0.00  0.00    -0.246 OA
BRANCH  17  19
ATOM     19  O   UNL     1       3.922  -7.388  23.815  0.00  0.00    -0.478 OA
ATOM     20  H   UNL     1       3.071  -7.458  24.278  0.00  0.00    +0.295 HD
ENDBRANCH  17  19
ENDBRANCH  15  17
ENDBRANCH  13  14
ENDBRANCH  11  12
ENDBRANCH   1  11
TORSDOF 10
ENDMDL
MODEL 9
REMARK VINA RESULT:      -4.7      2.753      5.192
REMARK  Name = 
REMARK  15 active torsions:
REMARK  status: ('A' for Active; 'I' for Inactive)
REMARK    1  A    between atoms: C_1  and  O_2
REMARK    2  A    between atoms: O_2  and  C_3
REMARK    3  A    between atoms: C_3  and  C_4
REMARK    4  A    between atoms: C_3  and  C_5
REMARK    5  A    between atoms: C_3  and  C_6
REMARK    6  A    between atoms: C_6  and  C_7
REMARK    7  A    between atoms: C_7  and  C_8
REMARK    8  A    between atoms: C_8  and  C_9
REMARK    9  A    between atoms: C_9  and  C_10
REMARK   10  A    between atoms: C_9  and  C_12
REMARK   11  A    between atoms: C_12  and  C_13
REMARK   12  A    between atoms: C_14  and  C_15
REMARK   13  A    between atoms: C_15  and  C_16
REMARK   14  A    between atoms: C_17  and  C_18
REMARK   15  A    between atoms: C_18  and  O_19
REMARK                            x       y       z     vdW  Elec       q    Type
REMARK                         _______ _______ _______ _____ _____    ______ ____
ROOT
ATOM      1  C   UNL     1       6.014  -4.807  22.249  0.00  0.00    -0.010 C 
ATOM      2  C   UNL     1       6.258  -5.642  20.984  0.00  0.00    +0.008 C 
ENDROOT
BRANCH   1   3
ATOM      3  C   UNL     1       5.728  -3.345  21.866  0.00  0.00    +0.003 C 
BRANCH   3   4
ATOM      4  C   UNL     1       6.585  -2.313  22.608  0.00  0.00    +0.003 C 
BRANCH   4   5
ATOM      5  C   UNL     1       8.103  -2.559  22.653  0.00  0.00    +0.034 C 
BRANCH   5   6
ATOM      6  C   UNL     1       9.034  -1.471  23.255  0.00  0.00    +0.064 C 
ATOM      7  C   UNL     1       9.011  -1.444  24.788  0.00  0.00    +0.041 C 
ATOM      8  C   UNL     1      10.465  -1.682  22.739  0.00  0.00    +0.041 C 
BRANCH   6  10
ATOM      9  C   UNL     1       9.136   0.355  21.624  0.00  0.00    +0.194 C 
ATOM     10  O   UNL     1       8.487  -0.234  22.741  0.00  0.00    -0.377 OA
ENDBRANCH   6  10
ENDBRANCH   5   6
ENDBRANCH   4   5
ENDBRANCH   3   4
ENDBRANCH   1   3
BRANCH   1  11
ATOM     11  C   UNL     1       4.869  -5.353  23.123  0.00  0.00    +0.030 C 
BRANCH  11  12
ATOM     12  C   UNL     1       5.314  -5.636  24.525  0.00  0.00    -0.026 C 
ATOM     13  C   UNL     1       6.454  -5.148  25.033  0.00  0.00    -0.001 C 
BRANCH  13  14
ATOM     14  C   UNL     1       6.883  -5.291  26.418  0.00  0.00    -0.044 C 
ATOM     15  C   UNL     1       5.995  -5.825  27.283  0.00  0.00    +0.094 C 
ATOM     16  C   UNL     1       8.315  -4.947  26.726  0.00  0.00    +0.044 C 
BRANCH  15  17
ATOM     17  C   UNL     1       6.114  -6.175  28.711  0.00  0.00    +0.330 C 
ATOM     18  O   UNL     1       6.036  -5.319  29.580  0.00  0.00    -0.246 OA
BRANCH  17  19
ATOM     19  O   UNL     1       6.371  -7.463  28.984  0.00  0.00    -0.478 OA
ATOM     20  H   UNL     1       5.584  -8.033  28.988  0.00  0.00    +0.295 HD
ENDBRANCH  17  19
ENDBRANCH  15  17
ENDBRANCH  13  14
ENDBRANCH  11  12
ENDBRANCH   1  11
TORSDOF 10
ENDMDL
