MODEL 1
REMARK VINA RESULT:      -6.3      0.000      0.000
REMARK  Name = 
REMARK  13 active torsions:
REMARK  status: ('A' for Active; 'I' for Inactive)
REMARK    1  A    between atoms: C_1  and  O_2
REMARK    2  A    between atoms: O_2  and  C_3
REMARK    3  A    between atoms: C_6  and  C_8
REMARK    4  A    between atoms: C_8  and  O_9
REMARK    5  A    between atoms: C_10  and  O_12
REMARK    6  A    between atoms: C_13  and  O_15
REMARK    7  A    between atoms: C_16  and  S_18
REMARK    8  A    between atoms: S_18  and  C_19
REMARK    9  A    between atoms: C_22  and  C_24
REMARK   10  A    between atoms: C_24  and  O_25
REMARK   11  A    between atoms: C_26  and  O_28
REMARK   12  A    between atoms: C_29  and  O_31
REMARK   13  A    between atoms: C_32  and  O_34
REMARK                            x       y       z     vdW  Elec       q    Type
REMARK                         _______ _______ _______ _____ _____    ______ ____
ROOT
ATOM      1  S   UNL     1       9.731  -2.797  24.314  0.00  0.00    -0.116 S 
ENDROOT
BRANCH   1   3
ATOM      2  C   UNL     1       8.059  -0.502  24.331  0.00  0.00    +0.266 C 
ATOM      3  C   UNL     1       9.525  -0.961  24.502  0.00  0.00    +0.136 C 
ATOM      4  C   UNL     1      10.428  -0.200  23.509  0.00  0.00    +0.163 C 
ATOM      5  C   UNL     1       9.889  -0.240  22.068  0.00  0.00    +0.175 C 
ATOM      6  C   UNL     1       8.376   0.081  21.991  0.00  0.00    +0.178 C 
ATOM      7  O   UNL     1       7.589  -0.590  22.986  0.00  0.00    -0.342 OA
BRANCH   2   9
ATOM      8  C   UNL     1       7.533   0.803  26.268  0.00  0.00    +0.197 C 
ATOM      9  O   UNL     1       7.887   0.798  24.895  0.00  0.00    -0.353 OA
ENDBRANCH   2   9
BRANCH   4  10
ATOM     10  O   UNL     1      10.585   1.155  23.968  0.00  0.00    -0.388 OA
ATOM     11  H   UNL     1      10.043   1.292  24.764  0.00  0.00    +0.210 HD
ENDBRANCH   4  10
BRANCH   5  12
ATOM     12  O   UNL     1      10.193  -1.517  21.485  0.00  0.00    -0.387 OA
ATOM     13  H   UNL     1      11.153  -1.675  21.512  0.00  0.00    +0.210 HD
ENDBRANCH   5  12
BRANCH   6  14
ATOM     14  C   UNL     1       8.066   1.582  21.926  0.00  0.00    +0.190 C 
BRANCH  14  15
ATOM     15  O   UNL     1       9.193   2.331  21.485  0.00  0.00    -0.392 OA
ATOM     16  H   UNL     1       9.562   2.797  22.261  0.00  0.00    +0.210 HD
ENDBRANCH  14  15
ENDBRANCH   6  14
ENDBRANCH   1   3
BRANCH   1  17
ATOM     17  C   UNL     1       8.007  -3.393  24.493  0.00  0.00    +0.207 C 
ATOM     18  C   UNL     1       7.585  -4.176  23.224  0.00  0.00    +0.184 C 
ATOM     19  C   UNL     1       6.196  -4.800  23.444  0.00  0.00    +0.177 C 
ATOM     20  C   UNL     1       6.154  -5.595  24.749  0.00  0.00    +0.176 C 
ATOM     21  C   UNL     1       6.584  -4.695  25.914  0.00  0.00    +0.176 C 
ATOM     22  O   UNL     1       7.901  -4.172  25.684  0.00  0.00    -0.355 OA
BRANCH  18  23
ATOM     23  O   UNL     1       7.560  -3.312  22.073  0.00  0.00    -0.386 OA
ATOM     24  H   UNL     1       8.414  -2.858  21.991  0.00  0.00    +0.210 HD
ENDBRANCH  18  23
BRANCH  19  25
ATOM     25  O   UNL     1       5.843  -5.654  22.353  0.00  0.00    -0.386 OA
ATOM     26  H   UNL     1       6.672  -5.905  21.905  0.00  0.00    +0.210 HD
ENDBRANCH  19  25
BRANCH  20  27
ATOM     27  O   UNL     1       4.832  -6.124  24.926  0.00  0.00    -0.386 OA
ATOM     28  H   UNL     1       4.663  -6.251  25.875  0.00  0.00    +0.210 HD
ENDBRANCH  20  27
BRANCH  21  29
ATOM     29  C   UNL     1       6.614  -5.469  27.236  0.00  0.00    +0.190 C 
BRANCH  29  30
ATOM     30  O   UNL     1       7.943  -5.923  27.485  0.00  0.00    -0.392 OA
ATOM     31  H   UNL     1       8.254  -6.320  26.649  0.00  0.00    +0.210 HD
ENDBRANCH  29  30
ENDBRANCH  21  29
ENDBRANCH   1  17
TORSDOF 12
ENDMDL
MODEL 2
REMARK VINA RESULT:      -6.2      1.819      3.343
REMARK  Name = 
REMARK  13 active torsions:
REMARK  status: ('A' for Active; 'I' for Inactive)
REMARK    1  A    between atoms: C_1  and  O_2
REMARK    2  A    between atoms: O_2  and  C_3
REMARK    3  A    between atoms: C_6  and  C_8
REMARK    4  A    between atoms: C_8  and  O_9
REMARK    5  A    between atoms: C_10  and  O_12
REMARK    6  A    between atoms: C_13  and  O_15
REMARK    7  A    between atoms: C_16  and  S_18
REMARK    8  A    between atoms: S_18  and  C_19
REMARK    9  A    between atoms: C_22  and  C_24
REMARK   10  A    between atoms: C_24  and  O_25
REMARK   11  A    between atoms: C_26  and  O_28
REMARK   12  A    between atoms: C_29  and  O_31
REMARK   13  A    between atoms: C_32  and  O_34
REMARK                            x       y       z     vdW  Elec       q    Type
REMARK                         _______ _______ _______ _____ _____    ______ ____
ROOT
ATOM      1  S   UNL     1       7.496  -4.561  23.074  0.00  0.00    -0.116 S 
ENDROOT
BRANCH   1   3
ATOM      2  C   UNL     1       8.677  -2.049  22.480  0.00  0.00    +0.266 C 
ATOM      3  C   UNL     1       7.435  -2.706  23.123  0.00  0.00    +0.136 C 
ATOM      4  C   UNL     1       7.268  -2.198  24.571  0.00  0.00    +0.163 C 
ATOM      5  C   UNL     1       8.567  -2.302  25.389  0.00  0.00    +0.175 C 
ATOM      6  C   UNL     1       9.798  -1.764  24.620  0.00  0.00    +0.178 C 
ATOM      7  O   UNL     1       9.867  -2.202  23.255  0.00  0.00    -0.342 OA
BRANCH   2   9
ATOM      8  C   UNL     1       9.327  -0.085  21.274  0.00  0.00    +0.197 C 
ATOM      9  O   UNL     1       8.395  -0.687  22.158  0.00  0.00    -0.353 OA
ENDBRANCH   2   9
BRANCH   4  10
ATOM     10  O   UNL     1       6.785  -0.843  24.534  0.00  0.00    -0.388 OA
ATOM     11  H   UNL     1       6.043  -0.780  23.907  0.00  0.00    +0.210 HD
ENDBRANCH   4  10
BRANCH   5  12
ATOM     12  O   UNL     1       8.753  -3.664  25.807  0.00  0.00    -0.387 OA
ATOM     13  H   UNL     1       8.941  -3.697  26.761  0.00  0.00    +0.210 HD
ENDBRANCH   5  12
BRANCH   6  14
ATOM     14  C   UNL     1       9.993  -0.249  24.750  0.00  0.00    +0.190 C 
BRANCH  14  15
ATOM     15  O   UNL     1       9.328   0.268  25.897  0.00  0.00    -0.392 OA
ATOM     16  H   UNL     1       9.295  -0.443  26.567  0.00  0.00    +0.210 HD
ENDBRANCH  14  15
ENDBRANCH   6  14
ENDBRANCH   1   3
BRANCH   1  17
ATOM     17  C   UNL     1       6.086  -5.015  24.155  0.00  0.00    +0.207 C 
ATOM     18  C   UNL     1       5.318  -6.214  23.544  0.00  0.00    +0.184 C 
ATOM     19  C   UNL     1       4.233  -6.684  24.528  0.00  0.00    +0.177 C 
ATOM     20  C   UNL     1       4.822  -6.924  25.918  0.00  0.00    +0.176 C 
ATOM     21  C   UNL     1       5.539  -5.657  26.398  0.00  0.00    +0.176 C 
ATOM     22  O   UNL     1       6.570  -5.283  25.470  0.00  0.00    -0.355 OA
BRANCH  18  23
ATOM     23  O   UNL     1       4.719  -5.852  22.286  0.00  0.00    -0.386 OA
ATOM     24  H   UNL     1       4.246  -6.616  21.922  0.00  0.00    +0.210 HD
ENDBRANCH  18  23
BRANCH  19  25
ATOM     25  O   UNL     1       3.607  -7.883  24.062  0.00  0.00    -0.386 OA
ATOM     26  H   UNL     1       2.769  -7.978  24.552  0.00  0.00    +0.210 HD
ENDBRANCH  19  25
BRANCH  20  27
ATOM     27  O   UNL     1       3.767  -7.323  26.805  0.00  0.00    -0.386 OA
ATOM     28  H   UNL     1       3.939  -6.960  27.690  0.00  0.00    +0.210 HD
ENDBRANCH  20  27
BRANCH  21  29
ATOM     29  C   UNL     1       6.197  -5.871  27.765  0.00  0.00    +0.190 C 
BRANCH  29  30
ATOM     30  O   UNL     1       7.616  -5.848  27.612  0.00  0.00    -0.392 OA
ATOM     31  H   UNL     1       7.831  -6.563  26.984  0.00  0.00    +0.210 HD
ENDBRANCH  29  30
ENDBRANCH  21  29
ENDBRANCH   1  17
TORSDOF 12
ENDMDL
MODEL 3
REMARK VINA RESULT:      -6.2      1.492      1.655
REMARK  Name = 
REMARK  13 active torsions:
REMARK  status: ('A' for Active; 'I' for Inactive)
REMARK    1  A    between atoms: C_1  and  O_2
REMARK    2  A    between atoms: O_2  and  C_3
REMARK    3  A    between atoms: C_6  and  C_8
REMARK    4  A    between atoms: C_8  and  O_9
REMARK    5  A    between atoms: C_10  and  O_12
REMARK    6  A    between atoms: C_13  and  O_15
REMARK    7  A    between atoms: C_16  and  S_18
REMARK    8  A    between atoms: S_18  and  C_19
REMARK    9  A    between atoms: C_22  and  C_24
REMARK   10  A    between atoms: C_24  and  O_25
REMARK   11  A    between atoms: C_26  and  O_28
REMARK   12  A    between atoms: C_29  and  O_31
REMARK   13  A    between atoms: C_32  and  O_34
REMARK                            x       y       z     vdW  Elec       q    Type
REMARK                         _______ _______ _______ _____ _____    ______ ____
ROOT
ATOM      1  S   UNL     1       7.407  -2.672  22.566  0.00  0.00    -0.116 S 
ENDROOT
BRANCH   1   3
ATOM      2  C   UNL     1       7.461   0.122  23.069  0.00  0.00    +0.266 C 
ATOM      3  C   UNL     1       7.962  -1.237  23.606  0.00  0.00    +0.136 C 
ATOM      4  C   UNL     1       9.499  -1.212  23.734  0.00  0.00    +0.163 C 
ATOM      5  C   UNL     1      10.192  -0.713  22.453  0.00  0.00    +0.175 C 
ATOM      6  C   UNL     1       9.538   0.570  21.885  0.00  0.00    +0.178 C 
ATOM      7  O   UNL     1       8.104   0.528  21.860  0.00  0.00    -0.342 OA
BRANCH   2   9
ATOM      8  C   UNL     1       6.412   1.972  24.170  0.00  0.00    +0.197 C 
ATOM      9  O   UNL     1       7.536   1.110  24.096  0.00  0.00    -0.353 OA
ENDBRANCH   2   9
BRANCH   4  10
ATOM     10  O   UNL     1       9.857  -0.400  24.867  0.00  0.00    -0.388 OA
ATOM     11  H   UNL     1      10.128  -0.975  25.605  0.00  0.00    +0.210 HD
ENDBRANCH   4  10
BRANCH   5  12
ATOM     12  O   UNL     1      10.213  -1.774  21.485  0.00  0.00    -0.387 OA
ATOM     13  H   UNL     1      11.057  -2.256  21.538  0.00  0.00    +0.210 HD
ENDBRANCH   5  12
BRANCH   6  14
ATOM     14  C   UNL     1      10.066   1.864  22.517  0.00  0.00    +0.190 C 
BRANCH  14  15
ATOM     15  O   UNL     1       9.213   2.969  22.235  0.00  0.00    -0.392 OA
ATOM     16  H   UNL     1       8.482   2.953  22.884  0.00  0.00    +0.210 HD
ENDBRANCH  14  15
ENDBRANCH   6  14
ENDBRANCH   1   3
BRANCH   1  17
ATOM     17  C   UNL     1       6.395  -3.633  23.755  0.00  0.00    +0.207 C 
ATOM     18  C   UNL     1       5.924  -4.955  23.097  0.00  0.00    +0.184 C 
ATOM     19  C   UNL     1       5.206  -5.822  24.146  0.00  0.00    +0.177 C 
ATOM     20  C   UNL     1       6.063  -5.984  25.402  0.00  0.00    +0.176 C 
ATOM     21  C   UNL     1       6.445  -4.603  25.945  0.00  0.00    +0.176 C 
ATOM     22  O   UNL     1       7.150  -3.848  24.947  0.00  0.00    -0.355 OA
BRANCH  18  23
ATOM     23  O   UNL     1       5.043  -4.691  21.990  0.00  0.00    -0.386 OA
ATOM     24  H   UNL     1       4.402  -4.009  22.243  0.00  0.00    +0.210 HD
ENDBRANCH  18  23
BRANCH  19  25
ATOM     25  O   UNL     1       4.893  -7.112  23.613  0.00  0.00    -0.386 OA
ATOM     26  H   UNL     1       4.534  -6.972  22.717  0.00  0.00    +0.210 HD
ENDBRANCH  19  25
BRANCH  20  27
ATOM     27  O   UNL     1       5.337  -6.767  26.360  0.00  0.00    -0.386 OA
ATOM     28  H   UNL     1       4.396  -6.773  26.119  0.00  0.00    +0.210 HD
ENDBRANCH  20  27
BRANCH  21  29
ATOM     29  C   UNL     1       7.356  -4.717  27.172  0.00  0.00    +0.190 C 
BRANCH  29  30
ATOM     30  O   UNL     1       7.943  -6.017  27.202  0.00  0.00    -0.392 OA
ATOM     31  H   UNL     1       7.898  -6.355  26.288  0.00  0.00    +0.210 HD
ENDBRANCH  29  30
ENDBRANCH  21  29
ENDBRANCH   1  17
TORSDOF 12
ENDMDL
MODEL 4
REMARK VINA RESULT:      -6.0      1.410      2.319
REMARK  Name = 
REMARK  13 active torsions:
REMARK  status: ('A' for Active; 'I' for Inactive)
REMARK    1  A    between atoms: C_1  and  O_2
REMARK    2  A    between atoms: O_2  and  C_3
REMARK    3  A    between atoms: C_6  and  C_8
REMARK    4  A    between atoms: C_8  and  O_9
REMARK    5  A    between atoms: C_10  and  O_12
REMARK    6  A    between atoms: C_13  and  O_15
REMARK    7  A    between atoms: C_16  and  S_18
REMARK    8  A    between atoms: S_18  and  C_19
REMARK    9  A    between atoms: C_22  and  C_24
REMARK   10  A    between atoms: C_24  and  O_25
REMARK   11  A    between atoms: C_26  and  O_28
REMARK   12  A    between atoms: C_29  and  O_31
REMARK   13  A    between atoms: C_32  and  O_34
REMARK                            x       y       z     vdW  Elec       q    Type
REMARK                         _______ _______ _______ _____ _____    ______ ____
ROOT
ATOM      1  S   UNL     1       7.933  -2.764  22.582  0.00  0.00    -0.116 S 
ENDROOT
BRANCH   1   3
ATOM      2  C   UNL     1       7.473  -0.222  23.760  0.00  0.00    +0.266 C 
ATOM      3  C   UNL     1       8.511  -1.361  23.653  0.00  0.00    +0.136 C 
ATOM      4  C   UNL     1       9.854  -0.796  23.143  0.00  0.00    +0.163 C 
ATOM      5  C   UNL     1       9.692   0.068  21.880  0.00  0.00    +0.175 C 
ATOM      6  C   UNL     1       8.531   1.085  22.002  0.00  0.00    +0.178 C 
ATOM      7  O   UNL     1       7.328   0.530  22.554  0.00  0.00    -0.342 OA
BRANCH   2   9
ATOM      8  C   UNL     1       7.525  -0.026  26.145  0.00  0.00    +0.197 C 
ATOM      9  O   UNL     1       7.763   0.596  24.893  0.00  0.00    -0.353 OA
ENDBRANCH   2   9
BRANCH   4  10
ATOM     10  O   UNL     1      10.477  -0.052  24.205  0.00  0.00    -0.388 OA
ATOM     11  H   UNL     1      10.833   0.782  23.852  0.00  0.00    +0.210 HD
ENDBRANCH   4  10
BRANCH   5  12
ATOM     12  O   UNL     1       9.531  -0.789  20.739  0.00  0.00    -0.387 OA
ATOM     13  H   UNL     1       8.760  -0.508  20.217  0.00  0.00    +0.210 HD
ENDBRANCH   5  12
BRANCH   6  14
ATOM     14  C   UNL     1       8.929   2.397  22.690  0.00  0.00    +0.190 C 
BRANCH  14  15
ATOM     15  O   UNL     1      10.321   2.661  22.548  0.00  0.00    -0.392 OA
ATOM     16  H   UNL     1      10.574   2.439  21.630  0.00  0.00    +0.210 HD
ENDBRANCH  14  15
ENDBRANCH   6  14
ENDBRANCH   1   3
BRANCH   1  17
ATOM     17  C   UNL     1       7.823  -4.141  23.787  0.00  0.00    +0.207 C 
ATOM     18  C   UNL     1       8.889  -3.956  24.897  0.00  0.00    +0.184 C 
ATOM     19  C   UNL     1       8.691  -5.028  25.982  0.00  0.00    +0.177 C 
ATOM     20  C   UNL     1       7.240  -5.058  26.464  0.00  0.00    +0.176 C 
ATOM     21  C   UNL     1       6.304  -5.256  25.266  0.00  0.00    +0.176 C 
ATOM     22  O   UNL     1       6.495  -4.209  24.303  0.00  0.00    -0.355 OA
BRANCH  18  23
ATOM     23  O   UNL     1      10.217  -4.045  24.353  0.00  0.00    -0.386 OA
ATOM     24  H   UNL     1      10.171  -4.036  23.384  0.00  0.00    +0.210 HD
ENDBRANCH  18  23
BRANCH  19  25
ATOM     25  O   UNL     1       9.559  -4.794  27.095  0.00  0.00    -0.386 OA
ATOM     26  H   UNL     1       9.319  -5.438  27.786  0.00  0.00    +0.210 HD
ENDBRANCH  19  25
BRANCH  20  27
ATOM     27  O   UNL     1       7.100  -6.096  27.445  0.00  0.00    -0.386 OA
ATOM     28  H   UNL     1       6.295  -6.608  27.256  0.00  0.00    +0.210 HD
ENDBRANCH  20  27
BRANCH  21  29
ATOM     29  C   UNL     1       4.834  -5.233  25.696  0.00  0.00    +0.190 C 
BRANCH  29  30
ATOM     30  O   UNL     1       4.479  -6.508  26.228  0.00  0.00    -0.392 OA
ATOM     31  H   UNL     1       3.700  -6.805  25.720  0.00  0.00    +0.210 HD
ENDBRANCH  29  30
ENDBRANCH  21  29
ENDBRANCH   1  17
TORSDOF 12
ENDMDL
MODEL 5
REMARK VINA RESULT:      -5.8      2.827      7.194
REMARK  Name = 
REMARK  13 active torsions:
REMARK  status: ('A' for Active; 'I' for Inactive)
REMARK    1  A    between atoms: C_1  and  O_2
REMARK    2  A    between atoms: O_2  and  C_3
REMARK    3  A    between atoms: C_6  and  C_8
REMARK    4  A    between atoms: C_8  and  O_9
REMARK    5  A    between atoms: C_10  and  O_12
REMARK    6  A    between atoms: C_13  and  O_15
REMARK    7  A    between atoms: C_16  and  S_18
REMARK    8  A    between atoms: S_18  and  C_19
REMARK    9  A    between atoms: C_22  and  C_24
REMARK   10  A    between atoms: C_24  and  O_25
REMARK   11  A    between atoms: C_26  and  O_28
REMARK   12  A    between atoms: C_29  and  O_31
REMARK   13  A    between atoms: C_32  and  O_34
REMARK                            x       y       z     vdW  Elec       q    Type
REMARK                         _______ _______ _______ _____ _____    ______ ____
ROOT
ATOM      1  S   UNL     1       5.176  -4.821  26.596  0.00  0.00    -0.116 S 
ENDROOT
BRANCH   1   3
ATOM      2  C   UNL     1       4.041  -4.806  23.993  0.00  0.00    +0.266 C 
ATOM      3  C   UNL     1       4.764  -5.709  25.018  0.00  0.00    +0.136 C 
ATOM      4  C   UNL     1       3.911  -6.964  25.299  0.00  0.00    +0.163 C 
ATOM      5  C   UNL     1       2.449  -6.623  25.636  0.00  0.00    +0.175 C 
ATOM      6  C   UNL     1       1.837  -5.594  24.655  0.00  0.00    +0.178 C 
ATOM      7  O   UNL     1       2.701  -4.485  24.364  0.00  0.00    -0.342 OA
BRANCH   2   9
ATOM      8  C   UNL     1       5.451  -5.447  22.167  0.00  0.00    +0.197 C 
ATOM      9  O   UNL     1       4.134  -5.379  22.689  0.00  0.00    -0.353 OA
ENDBRANCH   2   9
BRANCH   4  10
ATOM     10  O   UNL     1       3.990  -7.843  24.162  0.00  0.00    -0.388 OA
ATOM     11  H   UNL     1       4.286  -8.723  24.453  0.00  0.00    +0.210 HD
ENDBRANCH   4  10
BRANCH   5  12
ATOM     12  O   UNL     1       2.372  -6.172  26.998  0.00  0.00    -0.387 OA
ATOM     13  H   UNL     1       3.224  -6.315  27.445  0.00  0.00    +0.210 HD
ENDBRANCH   5  12
BRANCH   6  14
ATOM     14  C   UNL     1       1.259  -6.223  23.381  0.00  0.00    +0.190 C 
BRANCH  14  15
ATOM     15  O   UNL     1       1.041  -5.246  22.368  0.00  0.00    -0.392 OA
ATOM     16  H   UNL     1       1.704  -4.539  22.490  0.00  0.00    +0.210 HD
ENDBRANCH  14  15
ENDBRANCH   6  14
ENDBRANCH   1   3
BRANCH   1  17
ATOM     17  C   UNL     1       6.814  -4.095  26.206  0.00  0.00    +0.207 C 
ATOM     18  C   UNL     1       7.876  -5.218  26.098  0.00  0.00    +0.184 C 
ATOM     19  C   UNL     1       9.210  -4.619  25.623  0.00  0.00    +0.177 C 
ATOM     20  C   UNL     1       9.015  -3.778  24.360  0.00  0.00    +0.176 C 
ATOM     21  C   UNL     1       7.948  -2.707  24.616  0.00  0.00    +0.176 C 
ATOM     22  O   UNL     1       6.710  -3.317  25.014  0.00  0.00    -0.355 OA
BRANCH  18  23
ATOM     23  O   UNL     1       8.055  -5.878  27.364  0.00  0.00    -0.386 OA
ATOM     24  H   UNL     1       7.235  -5.821  27.878  0.00  0.00    +0.210 HD
ENDBRANCH  18  23
BRANCH  19  25
ATOM     25  O   UNL     1      10.170  -5.648  25.366  0.00  0.00    -0.386 OA
ATOM     26  H   UNL     1      10.378  -5.615  24.414  0.00  0.00    +0.210 HD
ENDBRANCH  19  25
BRANCH  20  27
ATOM     27  O   UNL     1      10.277  -3.213  23.980  0.00  0.00    -0.386 OA
ATOM     28  H   UNL     1      10.946  -3.448  24.646  0.00  0.00    +0.210 HD
ENDBRANCH  20  27
BRANCH  21  29
ATOM     29  C   UNL     1       7.676  -1.878  23.357  0.00  0.00    +0.190 C 
BRANCH  29  30
ATOM     30  O   UNL     1       8.060  -2.630  22.207  0.00  0.00    -0.392 OA
ATOM     31  H   UNL     1       8.476  -3.445  22.544  0.00  0.00    +0.210 HD
ENDBRANCH  29  30
ENDBRANCH  21  29
ENDBRANCH   1  17
TORSDOF 12
ENDMDL
MODEL 6
REMARK VINA RESULT:      -5.8      1.891      2.839
REMARK  Name = 
REMARK  13 active torsions:
REMARK  status: ('A' for Active; 'I' for Inactive)
REMARK    1  A    between atoms: C_1  and  O_2
REMARK    2  A    between atoms: O_2  and  C_3
REMARK    3  A    between atoms: C_6  and  C_8
REMARK    4  A    between atoms: C_8  and  O_9
REMARK    5  A    between atoms: C_10  and  O_12
REMARK    6  A    between atoms: C_13  and  O_15
REMARK    7  A    between atoms: C_16  and  S_18
REMARK    8  A    between atoms: S_18  and  C_19
REMARK    9  A    between atoms: C_22  and  C_24
REMARK   10  A    between atoms: C_24  and  O_25
REMARK   11  A    between atoms: C_26  and  O_28
REMARK   12  A    between atoms: C_29  and  O_31
REMARK   13  A    between atoms: C_32  and  O_34
REMARK                            x       y       z     vdW  Elec       q    Type
REMARK                         _______ _______ _______ _____ _____    ______ ____
ROOT
ATOM      1  S   UNL     1       6.871  -1.783  23.390  0.00  0.00    -0.116 S 
ENDROOT
BRANCH   1   3
ATOM      2  C   UNL     1       7.341   0.915  22.640  0.00  0.00    +0.266 C 
ATOM      3  C   UNL     1       7.297  -0.036  23.856  0.00  0.00    +0.136 C 
ATOM      4  C   UNL     1       8.642   0.020  24.611  0.00  0.00    +0.163 C 
ATOM      5  C   UNL     1       9.852  -0.159  23.677  0.00  0.00    +0.175 C 
ATOM      6  C   UNL     1       9.753   0.713  22.403  0.00  0.00    +0.178 C 
ATOM      7  O   UNL     1       8.459   0.689  21.781  0.00  0.00    -0.342 OA
BRANCH   2   9
ATOM      8  C   UNL     1       6.650   3.151  22.137  0.00  0.00    +0.197 C 
ATOM      9  O   UNL     1       7.241   2.270  23.077  0.00  0.00    -0.353 OA
ENDBRANCH   2   9
BRANCH   4  10
ATOM     10  O   UNL     1       8.719   1.265  25.329  0.00  0.00    -0.388 OA
ATOM     11  H   UNL     1       9.162   1.120  26.183  0.00  0.00    +0.210 HD
ENDBRANCH   4  10
BRANCH   5  12
ATOM     12  O   UNL     1      10.001  -1.552  23.360  0.00  0.00    -0.387 OA
ATOM     13  H   UNL     1      10.914  -1.838  23.537  0.00  0.00    +0.210 HD
ENDBRANCH   5  12
BRANCH   6  14
ATOM     14  C   UNL     1      10.276   2.143  22.590  0.00  0.00    +0.190 C 
BRANCH  14  15
ATOM     15  O   UNL     1      10.979   2.286  23.820  0.00  0.00    -0.392 OA
ATOM     16  H   UNL     1      10.333   2.556  24.502  0.00  0.00    +0.210 HD
ENDBRANCH  14  15
ENDBRANCH   6  14
ENDBRANCH   1   3
BRANCH   1  17
ATOM     17  C   UNL     1       7.123  -2.670  24.975  0.00  0.00    +0.207 C 
ATOM     18  C   UNL     1       5.884  -3.546  25.290  0.00  0.00    +0.184 C 
ATOM     19  C   UNL     1       6.165  -4.401  26.538  0.00  0.00    +0.177 C 
ATOM     20  C   UNL     1       7.486  -5.159  26.397  0.00  0.00    +0.176 C 
ATOM     21  C   UNL     1       8.617  -4.169  26.097  0.00  0.00    +0.176 C 
ATOM     22  O   UNL     1       8.330  -3.427  24.902  0.00  0.00    -0.355 OA
BRANCH  18  23
ATOM     23  O   UNL     1       4.720  -2.730  25.505  0.00  0.00    -0.386 OA
ATOM     24  H   UNL     1       4.982  -1.897  25.927  0.00  0.00    +0.210 HD
ENDBRANCH  18  23
BRANCH  19  25
ATOM     25  O   UNL     1       5.103  -5.331  26.769  0.00  0.00    -0.386 OA
ATOM     26  H   UNL     1       5.343  -5.850  27.559  0.00  0.00    +0.210 HD
ENDBRANCH  19  25
BRANCH  20  27
ATOM     27  O   UNL     1       7.720  -5.909  27.598  0.00  0.00    -0.386 OA
ATOM     28  H   UNL     1       8.644  -5.789  27.874  0.00  0.00    +0.210 HD
ENDBRANCH  20  27
BRANCH  21  29
ATOM     29  C   UNL     1       9.951  -4.892  25.888  0.00  0.00    +0.190 C 
BRANCH  29  30
ATOM     30  O   UNL     1       9.701  -6.207  25.392  0.00  0.00    -0.392 OA
ATOM     31  H   UNL     1       9.804  -6.154  24.423  0.00  0.00    +0.210 HD
ENDBRANCH  29  30
ENDBRANCH  21  29
ENDBRANCH   1  17
TORSDOF 12
ENDMDL
MODEL 7
REMARK VINA RESULT:      -5.8      1.668      6.652
REMARK  Name = 
REMARK  13 active torsions:
REMARK  status: ('A' for Active; 'I' for Inactive)
REMARK    1  A    between atoms: C_1  and  O_2
REMARK    2  A    between atoms: O_2  and  C_3
REMARK    3  A    between atoms: C_6  and  C_8
REMARK    4  A    between atoms: C_8  and  O_9
REMARK    5  A    between atoms: C_10  and  O_12
REMARK    6  A    between atoms: C_13  and  O_15
REMARK    7  A    between atoms: C_16  and  S_18
REMARK    8  A    between atoms: S_18  and  C_19
REMARK    9  A    between atoms: C_22  and  C_24
REMARK   10  A    between atoms: C_24  and  O_25
REMARK   11  A    between atoms: C_26  and  O_28
REMARK   12  A    between atoms: C_29  and  O_31
REMARK   13  A    between atoms: C_32  and  O_34
REMARK                            x       y       z     vdW  Elec       q    Type
REMARK                         _______ _______ _______ _____ _____    ______ ____
ROOT
ATOM      1  S   UNL     1       7.708  -2.431  22.562  0.00  0.00    -0.116 S 
ENDROOT
BRANCH   1   3
ATOM      2  C   UNL     1       7.252  -4.324  24.629  0.00  0.00    +0.266 C 
ATOM      3  C   UNL     1       6.728  -2.997  24.035  0.00  0.00    +0.136 C 
ATOM      4  C   UNL     1       5.233  -3.139  23.681  0.00  0.00    +0.163 C 
ATOM      5  C   UNL     1       4.939  -4.396  22.844  0.00  0.00    +0.175 C 
ATOM      6  C   UNL     1       5.623  -5.662  23.415  0.00  0.00    +0.178 C 
ATOM      7  O   UNL     1       6.990  -5.459  23.803  0.00  0.00    -0.342 OA
BRANCH   2   9
ATOM      8  C   UNL     1       7.631  -5.217  26.818  0.00  0.00    +0.197 C 
ATOM      9  O   UNL     1       6.768  -4.485  25.963  0.00  0.00    -0.353 OA
ENDBRANCH   2   9
BRANCH   4  10
ATOM     10  O   UNL     1       4.465  -3.133  24.898  0.00  0.00    -0.388 OA
ATOM     11  H   UNL     1       3.539  -2.913  24.696  0.00  0.00    +0.210 HD
ENDBRANCH   4  10
BRANCH   5  12
ATOM     12  O   UNL     1       5.319  -4.155  21.480  0.00  0.00    -0.387 OA
ATOM     13  H   UNL     1       4.950  -3.307  21.177  0.00  0.00    +0.210 HD
ENDBRANCH   5  12
BRANCH   6  14
ATOM     14  C   UNL     1       4.811  -6.362  24.511  0.00  0.00    +0.190 C 
BRANCH  14  15
ATOM     15  O   UNL     1       4.335  -7.632  24.079  0.00  0.00    -0.392 OA
ATOM     16  H   UNL     1       4.565  -7.730  23.134  0.00  0.00    +0.210 HD
ENDBRANCH  14  15
ENDBRANCH   6  14
ENDBRANCH   1   3
BRANCH   1  17
ATOM     17  C   UNL     1       8.545  -0.936  23.215  0.00  0.00    +0.207 C 
ATOM     18  C   UNL     1       9.076  -0.075  22.041  0.00  0.00    +0.184 C 
ATOM     19  C   UNL     1       9.641   1.247  22.589  0.00  0.00    +0.177 C 
ATOM     20  C   UNL     1       8.628   1.938  23.503  0.00  0.00    +0.176 C 
ATOM     21  C   UNL     1       8.201   0.976  24.617  0.00  0.00    +0.176 C 
ATOM     22  O   UNL     1       7.641  -0.223  24.058  0.00  0.00    -0.355 OA
BRANCH  18  23
ATOM     23  O   UNL     1      10.095  -0.780  21.309  0.00  0.00    -0.386 OA
ATOM     24  H   UNL     1      10.716  -0.142  20.925  0.00  0.00    +0.210 HD
ENDBRANCH  18  23
BRANCH  19  25
ATOM     25  O   UNL     1      10.000   2.129  21.522  0.00  0.00    -0.386 OA
ATOM     26  H   UNL     1      10.503   1.603  20.873  0.00  0.00    +0.210 HD
ENDBRANCH  19  25
BRANCH  20  27
ATOM     27  O   UNL     1       9.214   3.143  24.016  0.00  0.00    -0.386 OA
ATOM     28  H   UNL     1       9.449   3.725  23.273  0.00  0.00    +0.210 HD
ENDBRANCH  20  27
BRANCH  21  29
ATOM     29  C   UNL     1       7.139   1.607  25.524  0.00  0.00    +0.190 C 
BRANCH  29  30
ATOM     30  O   UNL     1       7.784   2.367  26.545  0.00  0.00    -0.392 OA
ATOM     31  H   UNL     1       8.464   1.782  26.928  0.00  0.00    +0.210 HD
ENDBRANCH  29  30
ENDBRANCH  21  29
ENDBRANCH   1  17
TORSDOF 12
ENDMDL
MODEL 8
REMARK VINA RESULT:      -5.8      1.531      3.237
REMARK  Name = 
REMARK  13 active torsions:
REMARK  status: ('A' for Active; 'I' for Inactive)
REMARK    1  A    between atoms: C_1  and  O_2
REMARK    2  A    between atoms: O_2  and  C_3
REMARK    3  A    between atoms: C_6  and  C_8
REMARK    4  A    between atoms: C_8  and  O_9
REMARK    5  A    between atoms: C_10  and  O_12
REMARK    6  A    between atoms: C_13  and  O_15
REMARK    7  A    between atoms: C_16  and  S_18
REMARK    8  A    between atoms: S_18  and  C_19
REMARK    9  A    between atoms: C_22  and  C_24
REMARK   10  A    between atoms: C_24  and  O_25
REMARK   11  A    between atoms: C_26  and  O_28
REMARK   12  A    between atoms: C_29  and  O_31
REMARK   13  A    between atoms: C_32  and  O_34
REMARK                            x       y       z     vdW  Elec       q    Type
REMARK                         _______ _______ _______ _____ _____    ______ ____
ROOT
ATOM      1  S   UNL     1       7.386  -2.233  25.622  0.00  0.00    -0.116 S 
ENDROOT
BRANCH   1   3
ATOM      2  C   UNL     1       9.322  -0.406  24.632  0.00  0.00    +0.266 C 
ATOM      3  C   UNL     1       8.900  -1.893  24.602  0.00  0.00    +0.136 C 
ATOM      4  C   UNL     1       8.693  -2.345  23.141  0.00  0.00    +0.163 C 
ATOM      5  C   UNL     1       7.788  -1.387  22.347  0.00  0.00    +0.175 C 
ATOM      6  C   UNL     1       8.175   0.098  22.547  0.00  0.00    +0.178 C 
ATOM      7  O   UNL     1       8.434   0.451  23.914  0.00  0.00    -0.342 OA
BRANCH   2   9
ATOM      8  C   UNL     1      11.294   0.950  24.573  0.00  0.00    +0.197 C 
ATOM      9  O   UNL     1      10.680  -0.277  24.213  0.00  0.00    -0.353 OA
ENDBRANCH   2   9
BRANCH   4  10
ATOM     10  O   UNL     1       9.980  -2.486  22.512  0.00  0.00    -0.388 OA
ATOM     11  H   UNL     1      10.171  -3.430  22.372  0.00  0.00    +0.210 HD
ENDBRANCH   4  10
BRANCH   5  12
ATOM     12  O   UNL     1       6.417  -1.633  22.698  0.00  0.00    -0.387 OA
ATOM     13  H   UNL     1       6.323  -2.528  23.067  0.00  0.00    +0.210 HD
ENDBRANCH   5  12
BRANCH   6  14
ATOM     14  C   UNL     1       9.287   0.579  21.607  0.00  0.00    +0.190 C 
BRANCH  14  15
ATOM     15  O   UNL     1       9.361   2.001  21.570  0.00  0.00    -0.392 OA
ATOM     16  H   UNL     1       8.517   2.352  21.916  0.00  0.00    +0.210 HD
ENDBRANCH  14  15
ENDBRANCH   6  14
ENDBRANCH   1   3
BRANCH   1  17
ATOM     17  C   UNL     1       7.005  -3.968  25.168  0.00  0.00    +0.207 C 
ATOM     18  C   UNL     1       6.443  -4.723  26.399  0.00  0.00    +0.184 C 
ATOM     19  C   UNL     1       5.985  -6.129  25.973  0.00  0.00    +0.177 C 
ATOM     20  C   UNL     1       5.051  -6.058  24.764  0.00  0.00    +0.176 C 
ATOM     21  C   UNL     1       5.740  -5.296  23.627  0.00  0.00    +0.176 C 
ATOM     22  O   UNL     1       6.109  -3.976  24.058  0.00  0.00    -0.355 OA
BRANCH  18  23
ATOM     23  O   UNL     1       7.434  -4.822  27.437  0.00  0.00    -0.386 OA
ATOM     24  H   UNL     1       8.052  -5.539  27.227  0.00  0.00    +0.210 HD
ENDBRANCH  18  23
BRANCH  19  25
ATOM     25  O   UNL     1       5.322  -6.797  27.050  0.00  0.00    -0.386 OA
ATOM     26  H   UNL     1       5.261  -7.740  26.808  0.00  0.00    +0.210 HD
ENDBRANCH  19  25
BRANCH  20  27
ATOM     27  O   UNL     1       4.683  -7.392  24.384  0.00  0.00    -0.386 OA
ATOM     28  H   UNL     1       3.748  -7.540  24.604  0.00  0.00    +0.210 HD
ENDBRANCH  20  27
BRANCH  21  29
ATOM     29  C   UNL     1       4.816  -5.148  22.413  0.00  0.00    +0.190 C 
BRANCH  29  30
ATOM     30  O   UNL     1       5.289  -4.084  21.589  0.00  0.00    -0.392 OA
ATOM     31  H   UNL     1       5.675  -4.506  20.798  0.00  0.00    +0.210 HD
ENDBRANCH  29  30
ENDBRANCH  21  29
ENDBRANCH   1  17
TORSDOF 12
ENDMDL
MODEL 9
REMARK VINA RESULT:      -5.7      2.057      6.642
REMARK  Name = 
REMARK  13 active torsions:
REMARK  status: ('A' for Active; 'I' for Inactive)
REMARK    1  A    between atoms: C_1  and  O_2
REMARK    2  A    between atoms: O_2  and  C_3
REMARK    3  A    between atoms: C_6  and  C_8
REMARK    4  A    between atoms: C_8  and  O_9
REMARK    5  A    between atoms: C_10  and  O_12
REMARK    6  A    between atoms: C_13  and  O_15
REMARK    7  A    between atoms: C_16  and  S_18
REMARK    8  A    between atoms: S_18  and  C_19
REMARK    9  A    between atoms: C_22  and  C_24
REMARK   10  A    between atoms: C_24  and  O_25
REMARK   11  A    between atoms: C_26  and  O_28
REMARK   12  A    between atoms: C_29  and  O_31
REMARK   13  A    between atoms: C_32  and  O_34
REMARK                            x       y       z     vdW  Elec       q    Type
REMARK                         _______ _______ _______ _____ _____    ______ ____
ROOT
ATOM      1  S   UNL     1       6.404  -1.537  24.788  0.00  0.00    -0.116 S 
ENDROOT
BRANCH   1   3
ATOM      2  C   UNL     1       5.486  -4.192  24.375  0.00  0.00    +0.266 C 
ATOM      3  C   UNL     1       5.551  -2.795  23.719  0.00  0.00    +0.136 C 
ATOM      4  C   UNL     1       6.234  -2.898  22.339  0.00  0.00    +0.163 C 
ATOM      5  C   UNL     1       7.567  -3.664  22.394  0.00  0.00    +0.175 C 
ATOM      6  C   UNL     1       7.463  -4.982  23.198  0.00  0.00    +0.178 C 
ATOM      7  O   UNL     1       6.751  -4.850  24.438  0.00  0.00    -0.342 OA
BRANCH   2   9
ATOM      8  C   UNL     1       3.149  -4.603  24.050  0.00  0.00    +0.197 C 
ATOM      9  O   UNL     1       4.480  -4.982  23.739  0.00  0.00    -0.353 OA
ENDBRANCH   2   9
BRANCH   4  10
ATOM     10  O   UNL     1       5.319  -3.514  21.414  0.00  0.00    -0.388 OA
ATOM     11  H   UNL     1       4.505  -3.767  21.883  0.00  0.00    +0.210 HD
ENDBRANCH   4  10
BRANCH   5  12
ATOM     12  O   UNL     1       8.587  -2.798  22.918  0.00  0.00    -0.387 OA
ATOM     13  H   UNL     1       8.325  -1.868  22.805  0.00  0.00    +0.210 HD
ENDBRANCH   5  12
BRANCH   6  14
ATOM     14  C   UNL     1       6.964  -6.173  22.371  0.00  0.00    +0.190 C 
BRANCH  14  15
ATOM     15  O   UNL     1       6.912  -5.860  20.983  0.00  0.00    -0.392 OA
ATOM     16  H   UNL     1       6.029  -6.118  20.653  0.00  0.00    +0.210 HD
ENDBRANCH  14  15
ENDBRANCH   6  14
ENDBRANCH   1   3
BRANCH   1  17
ATOM     17  C   UNL     1       6.645  -0.147  23.617  0.00  0.00    +0.207 C 
ATOM     18  C   UNL     1       6.278   1.192  24.307  0.00  0.00    +0.184 C 
ATOM     19  C   UNL     1       6.627   2.363  23.372  0.00  0.00    +0.177 C 
ATOM     20  C   UNL     1       8.069   2.255  22.874  0.00  0.00    +0.176 C 
ATOM     21  C   UNL     1       8.283   0.891  22.210  0.00  0.00    +0.176 C 
ATOM     22  O   UNL     1       7.987  -0.169  23.133  0.00  0.00    -0.355 OA
BRANCH  18  23
ATOM     23  O   UNL     1       4.880   1.229  24.643  0.00  0.00    -0.386 OA
ATOM     24  H   UNL     1       4.408   1.783  24.001  0.00  0.00    +0.210 HD
ENDBRANCH  18  23
BRANCH  19  25
ATOM     25  O   UNL     1       6.443   3.617  24.035  0.00  0.00    -0.386 OA
ATOM     26  H   UNL     1       6.447   4.308  23.347  0.00  0.00    +0.210 HD
ENDBRANCH  19  25
BRANCH  20  27
ATOM     27  O   UNL     1       8.332   3.346  21.980  0.00  0.00    -0.386 OA
ATOM     28  H   UNL     1       8.897   3.033  21.253  0.00  0.00    +0.210 HD
ENDBRANCH  20  27
BRANCH  21  29
ATOM     29  C   UNL     1       9.733   0.715  21.749  0.00  0.00    +0.190 C 
BRANCH  29  30
ATOM     30  O   UNL     1       9.937  -0.637  21.340  0.00  0.00    -0.392 OA
ATOM     31  H   UNL     1       9.928  -1.170  22.158  0.00  0.00    +0.210 HD
ENDBRANCH  29  30
ENDBRANCH  21  29
ENDBRANCH   1  17
TORSDOF 12
ENDMDL
