MODEL 1
REMARK VINA RESULT:      -6.6      0.000      0.000
REMARK  Name = 
REMARK  3 active torsions:
REMARK  status: ('A' for Active; 'I' for Inactive)
REMARK    1  A    between atoms: C_2  and  C_3
REMARK    2  A    between atoms: C_3  and  O_4
REMARK    3  A    between atoms: C_7  and  N_10
REMARK                            x       y       z     vdW  Elec       q    Type
REMARK                         _______ _______ _______ _____ _____    ______ ____
ROOT
ATOM      1  N   UNL     1       8.669  -1.661  24.481  0.00  0.00    -0.288 N 
ATOM      2  C   UNL     1       8.274  -2.712  25.265  0.00  0.00    +0.169 A 
ATOM      3  N   UNL     1       7.240  -2.767  26.121  0.00  0.00    -0.198 NA
ATOM      4  C   UNL     1       7.186  -3.981  26.711  0.00  0.00    +0.226 A 
ATOM      5  N   UNL     1       7.991  -5.051  26.548  0.00  0.00    -0.201 NA
ATOM      6  C   UNL     1       9.024  -4.931  25.687  0.00  0.00    +0.149 A 
ATOM      7  N   UNL     1       9.871  -6.014  25.513  0.00  0.00    -0.341 N 
ATOM      8  H   UNL     1      10.403  -5.984  24.648  0.00  0.00    +0.144 HD
ATOM      9  H   UNL     1       9.446  -6.894  25.774  0.00  0.00    +0.144 HD
ATOM     10 CL   UNL     1       5.902  -4.193  27.823  0.00  0.00    -0.041 Cl
ATOM     11  C   UNL     1       9.185  -3.720  24.992  0.00  0.00    +0.147 A 
ATOM     12  N   UNL     1      10.098  -3.318  24.045  0.00  0.00    -0.231 NA
ATOM     13  C   UNL     1       9.747  -2.086  23.749  0.00  0.00    +0.203 A 
ENDROOT
BRANCH   1  16
ATOM     14  C   UNL     1       8.317   1.216  22.684  0.00  0.00    +0.146 C 
ATOM     15  O   UNL     1       7.738  -0.058  23.026  0.00  0.00    -0.351 OA
ATOM     16  C   UNL     1       8.031  -0.360  24.410  0.00  0.00    +0.222 C 
ATOM     17  C   UNL     1       8.876   0.791  24.945  0.00  0.00    +0.057 C 
ATOM     18  C   UNL     1       8.555   1.926  24.002  0.00  0.00    +0.038 C 
BRANCH  14  19
ATOM     19  C   UNL     1       9.611   0.990  21.888  0.00  0.00    +0.187 C 
BRANCH  19  20
ATOM     20  O   UNL     1      10.220   2.235  21.556  0.00  0.00    -0.392 OA
ATOM     21  H   UNL     1       9.499   2.874  21.412  0.00  0.00    +0.210 HD
ENDBRANCH  19  20
ENDBRANCH  14  19
ENDBRANCH   1  16
TORSDOF 3
ENDMDL
MODEL 2
REMARK VINA RESULT:      -6.4      3.504      6.011
REMARK  Name = 
REMARK  3 active torsions:
REMARK  status: ('A' for Active; 'I' for Inactive)
REMARK    1  A    between atoms: C_2  and  C_3
REMARK    2  A    between atoms: C_3  and  O_4
REMARK    3  A    between atoms: C_7  and  N_10
REMARK                            x       y       z     vdW  Elec       q    Type
REMARK                         _______ _______ _______ _____ _____    ______ ____
ROOT
ATOM      1  N   UNL     1       8.321  -1.727  22.934  0.00  0.00    -0.288 N 
ATOM      2  C   UNL     1       8.004  -0.400  22.805  0.00  0.00    +0.169 A 
ATOM      3  N   UNL     1       6.837   0.204  23.082  0.00  0.00    -0.198 NA
ATOM      4  C   UNL     1       6.922   1.526  22.817  0.00  0.00    +0.226 A 
ATOM      5  N   UNL     1       7.963   2.241  22.345  0.00  0.00    -0.201 NA
ATOM      6  C   UNL     1       9.105   1.576  22.068  0.00  0.00    +0.149 A 
ATOM      7  N   UNL     1      10.184   2.289  21.570  0.00  0.00    -0.341 N 
ATOM      8  H   UNL     1      11.077   1.821  21.692  0.00  0.00    +0.144 HD
ATOM      9  H   UNL     1      10.137   3.277  21.783  0.00  0.00    +0.144 HD
ATOM     10 CL   UNL     1       5.500   2.425  23.137  0.00  0.00    -0.041 Cl
ATOM     11  C   UNL     1       9.156   0.193  22.315  0.00  0.00    +0.147 A 
ATOM     12  N   UNL     1      10.166  -0.729  22.173  0.00  0.00    -0.231 NA
ATOM     13  C   UNL     1       9.636  -1.865  22.569  0.00  0.00    +0.203 A 
ENDROOT
BRANCH   1  16
ATOM     14  C   UNL     1       7.997  -4.422  24.998  0.00  0.00    +0.146 C 
ATOM     15  O   UNL     1       7.718  -3.021  24.808  0.00  0.00    -0.351 OA
ATOM     16  C   UNL     1       7.439  -2.775  23.410  0.00  0.00    +0.222 C 
ATOM     17  C   UNL     1       7.590  -4.109  22.687  0.00  0.00    +0.057 C 
ATOM     18  C   UNL     1       7.411  -5.125  23.790  0.00  0.00    +0.038 C 
BRANCH  14  19
ATOM     19  C   UNL     1       9.513  -4.626  25.128  0.00  0.00    +0.187 C 
BRANCH  19  20
ATOM     20  O   UNL     1       9.831  -6.014  25.184  0.00  0.00    -0.392 OA
ATOM     21  H   UNL     1       9.129  -6.444  25.705  0.00  0.00    +0.210 HD
ENDBRANCH  19  20
ENDBRANCH  14  19
ENDBRANCH   1  16
TORSDOF 3
ENDMDL
MODEL 3
REMARK VINA RESULT:      -6.3      2.188      2.443
REMARK  Name = 
REMARK  3 active torsions:
REMARK  status: ('A' for Active; 'I' for Inactive)
REMARK    1  A    between atoms: C_2  and  C_3
REMARK    2  A    between atoms: C_3  and  O_4
REMARK    3  A    between atoms: C_7  and  N_10
REMARK                            x       y       z     vdW  Elec       q    Type
REMARK                         _______ _______ _______ _____ _____    ______ ____
ROOT
ATOM      1  N   UNL     1       8.070  -1.646  23.716  0.00  0.00    -0.288 N 
ATOM      2  C   UNL     1       8.050  -3.006  23.556  0.00  0.00    +0.169 A 
ATOM      3  N   UNL     1       7.411  -3.722  22.617  0.00  0.00    -0.198 NA
ATOM      4  C   UNL     1       7.635  -5.041  22.802  0.00  0.00    +0.226 A 
ATOM      5  N   UNL     1       8.369  -5.662  23.747  0.00  0.00    -0.201 NA
ATOM      6  C   UNL     1       8.975  -4.891  24.676  0.00  0.00    +0.149 A 
ATOM      7  N   UNL     1       9.724  -5.509  25.665  0.00  0.00    -0.341 N 
ATOM      8  H   UNL     1      10.397  -4.895  26.113  0.00  0.00    +0.144 HD
ATOM      9  H   UNL     1      10.032  -6.437  25.406  0.00  0.00    +0.144 HD
ATOM     10 CL   UNL     1       6.885  -6.074  21.661  0.00  0.00    -0.041 Cl
ATOM     11  C   UNL     1       8.835  -3.495  24.588  0.00  0.00    +0.147 A 
ATOM     12  N   UNL     1       9.351  -2.470  25.346  0.00  0.00    -0.231 NA
ATOM     13  C   UNL     1       8.886  -1.376  24.784  0.00  0.00    +0.203 A 
ENDROOT
BRANCH   1  16
ATOM     14  C   UNL     1       8.393   1.182  21.836  0.00  0.00    +0.146 C 
ATOM     15  O   UNL     1       8.288  -0.255  21.826  0.00  0.00    -0.351 OA
ATOM     16  C   UNL     1       7.390  -0.676  22.879  0.00  0.00    +0.222 C 
ATOM     17  C   UNL     1       6.939   0.586  23.607  0.00  0.00    +0.057 C 
ATOM     18  C   UNL     1       7.175   1.677  22.590  0.00  0.00    +0.038 C 
BRANCH  14  19
ATOM     19  C   UNL     1       9.713   1.591  22.504  0.00  0.00    +0.187 C 
BRANCH  19  20
ATOM     20  O   UNL     1      10.448   2.478  21.665  0.00  0.00    -0.392 OA
ATOM     21  H   UNL     1       9.849   2.749  20.947  0.00  0.00    +0.210 HD
ENDBRANCH  19  20
ENDBRANCH  14  19
ENDBRANCH   1  16
TORSDOF 3
ENDMDL
MODEL 4
REMARK VINA RESULT:      -6.2      2.825      3.416
REMARK  Name = 
REMARK  3 active torsions:
REMARK  status: ('A' for Active; 'I' for Inactive)
REMARK    1  A    between atoms: C_2  and  C_3
REMARK    2  A    between atoms: C_3  and  O_4
REMARK    3  A    between atoms: C_7  and  N_10
REMARK                            x       y       z     vdW  Elec       q    Type
REMARK                         _______ _______ _______ _____ _____    ______ ____
ROOT
ATOM      1  N   UNL     1       8.768  -2.655  23.728  0.00  0.00    -0.288 N 
ATOM      2  C   UNL     1       7.892  -3.669  23.442  0.00  0.00    +0.169 A 
ATOM      3  N   UNL     1       7.535  -4.142  22.237  0.00  0.00    -0.198 NA
ATOM      4  C   UNL     1       6.641  -5.145  22.375  0.00  0.00    +0.226 A 
ATOM      5  N   UNL     1       6.113  -5.675  23.496  0.00  0.00    -0.201 NA
ATOM      6  C   UNL     1       6.496  -5.147  24.679  0.00  0.00    +0.149 A 
ATOM      7  N   UNL     1       5.957  -5.668  25.844  0.00  0.00    -0.341 N 
ATOM      8  H   UNL     1       6.506  -5.469  26.675  0.00  0.00    +0.144 HD
ATOM      9  H   UNL     1       5.600  -6.607  25.729  0.00  0.00    +0.144 HD
ATOM     10 CL   UNL     1       6.108  -5.851  20.909  0.00  0.00    -0.041 Cl
ATOM     11  C   UNL     1       7.439  -4.104  24.677  0.00  0.00    +0.147 A 
ATOM     12  N   UNL     1       8.037  -3.404  25.698  0.00  0.00    -0.231 NA
ATOM     13  C   UNL     1       8.840  -2.556  25.094  0.00  0.00    +0.203 A 
ENDROOT
BRANCH   1  16
ATOM     14  C   UNL     1      10.445   0.258  23.151  0.00  0.00    +0.146 C 
ATOM     15  O   UNL     1      10.557  -1.146  23.453  0.00  0.00    -0.351 OA
ATOM     16  C   UNL     1       9.511  -1.869  22.762  0.00  0.00    +0.222 C 
ATOM     17  C   UNL     1       8.679  -0.834  22.012  0.00  0.00    +0.057 C 
ATOM     18  C   UNL     1       9.621   0.340  21.881  0.00  0.00    +0.038 C 
BRANCH  14  19
ATOM     19  C   UNL     1       9.789   0.982  24.334  0.00  0.00    +0.187 C 
BRANCH  19  20
ATOM     20  O   UNL     1      10.350   0.541  25.568  0.00  0.00    -0.392 OA
ATOM     21  H   UNL     1      10.829   1.298  25.948  0.00  0.00    +0.210 HD
ENDBRANCH  19  20
ENDBRANCH  14  19
ENDBRANCH   1  16
TORSDOF 3
ENDMDL
MODEL 5
REMARK VINA RESULT:      -6.2      1.986      2.069
REMARK  Name = 
REMARK  3 active torsions:
REMARK  status: ('A' for Active; 'I' for Inactive)
REMARK    1  A    between atoms: C_2  and  C_3
REMARK    2  A    between atoms: C_3  and  O_4
REMARK    3  A    between atoms: C_7  and  N_10
REMARK                            x       y       z     vdW  Elec       q    Type
REMARK                         _______ _______ _______ _____ _____    ______ ____
ROOT
ATOM      1  N   UNL     1       8.644  -1.544  23.684  0.00  0.00    -0.288 N 
ATOM      2  C   UNL     1       8.275  -2.765  24.183  0.00  0.00    +0.169 A 
ATOM      3  N   UNL     1       8.311  -3.185  25.458  0.00  0.00    -0.198 NA
ATOM      4  C   UNL     1       7.868  -4.459  25.543  0.00  0.00    +0.226 A 
ATOM      5  N   UNL     1       7.433  -5.282  24.568  0.00  0.00    -0.201 NA
ATOM      6  C   UNL     1       7.436  -4.811  23.303  0.00  0.00    +0.149 A 
ATOM      7  N   UNL     1       7.004  -5.644  22.283  0.00  0.00    -0.341 N 
ATOM      8  H   UNL     1       6.724  -5.150  21.441  0.00  0.00    +0.144 HD
ATOM      9  H   UNL     1       6.408  -6.393  22.610  0.00  0.00    +0.144 HD
ATOM     10 CL   UNL     1       7.849  -5.119  27.122  0.00  0.00    -0.041 Cl
ATOM     11  C   UNL     1       7.859  -3.489  23.077  0.00  0.00    +0.147 A 
ATOM     12  N   UNL     1       7.938  -2.732  21.932  0.00  0.00    -0.231 NA
ATOM     13  C   UNL     1       8.395  -1.567  22.335  0.00  0.00    +0.203 A 
ENDROOT
BRANCH   1  16
ATOM     14  C   UNL     1       9.149   1.828  23.767  0.00  0.00    +0.146 C 
ATOM     15  O   UNL     1       8.324   0.731  24.206  0.00  0.00    -0.351 OA
ATOM     16  C   UNL     1       9.157  -0.426  24.451  0.00  0.00    +0.222 C 
ATOM     17  C   UNL     1      10.587  -0.023  24.107  0.00  0.00    +0.057 C 
ATOM     18  C   UNL     1      10.558   1.484  24.209  0.00  0.00    +0.038 C 
BRANCH  14  19
ATOM     19  C   UNL     1       9.025   1.981  22.244  0.00  0.00    +0.187 C 
BRANCH  19  20
ATOM     20  O   UNL     1      10.276   2.352  21.672  0.00  0.00    -0.392 OA
ATOM     21  H   UNL     1      10.657   3.040  22.247  0.00  0.00    +0.210 HD
ENDBRANCH  19  20
ENDBRANCH  14  19
ENDBRANCH   1  16
TORSDOF 3
ENDMDL
MODEL 6
REMARK VINA RESULT:      -5.8      4.791      7.269
REMARK  Name = 
REMARK  3 active torsions:
REMARK  status: ('A' for Active; 'I' for Inactive)
REMARK    1  A    between atoms: C_2  and  C_3
REMARK    2  A    between atoms: C_3  and  O_4
REMARK    3  A    between atoms: C_7  and  N_10
REMARK                            x       y       z     vdW  Elec       q    Type
REMARK                         _______ _______ _______ _____ _____    ______ ____
ROOT
ATOM      1  N   UNL     1       8.522   1.950  23.426  0.00  0.00    -0.288 N 
ATOM      2  C   UNL     1       8.680   3.311  23.433  0.00  0.00    +0.169 A 
ATOM      3  N   UNL     1       9.615   4.034  24.071  0.00  0.00    -0.198 NA
ATOM      4  C   UNL     1       9.430   5.351  23.831  0.00  0.00    +0.226 A 
ATOM      5  N   UNL     1       8.489   5.963  23.086  0.00  0.00    -0.201 NA
ATOM      6  C   UNL     1       7.565   5.186  22.482  0.00  0.00    +0.149 A 
ATOM      7  N   UNL     1       6.580   5.795  21.720  0.00  0.00    -0.341 N 
ATOM      8  H   UNL     1       6.137   5.174  21.051  0.00  0.00    +0.144 HD
ATOM      9  H   UNL     1       6.841   6.720  21.404  0.00  0.00    +0.144 HD
ATOM     10 CL   UNL     1      10.566   6.392  24.579  0.00  0.00    -0.041 Cl
ATOM     11  C   UNL     1       7.653   3.791  22.637  0.00  0.00    +0.147 A 
ATOM     12  N   UNL     1       6.899   2.760  22.127  0.00  0.00    -0.231 NA
ATOM     13  C   UNL     1       7.458   1.671  22.606  0.00  0.00    +0.203 A 
ENDROOT
BRANCH   1  16
ATOM     14  C   UNL     1      10.177  -1.024  23.216  0.00  0.00    +0.146 C 
ATOM     15  O   UNL     1      10.289   0.411  23.180  0.00  0.00    -0.351 OA
ATOM     16  C   UNL     1       9.355   0.988  24.121  0.00  0.00    +0.222 C 
ATOM     17  C   UNL     1       8.593  -0.171  24.755  0.00  0.00    +0.057 C 
ATOM     18  C   UNL     1       9.511  -1.350  24.538  0.00  0.00    +0.038 C 
BRANCH  14  19
ATOM     19  C   UNL     1       9.363  -1.502  22.005  0.00  0.00    +0.187 C 
BRANCH  19  20
ATOM     20  O   UNL     1       9.520  -0.606  20.909  0.00  0.00    -0.392 OA
ATOM     21  H   UNL     1       9.371  -1.123  20.097  0.00  0.00    +0.210 HD
ENDBRANCH  19  20
ENDBRANCH  14  19
ENDBRANCH   1  16
TORSDOF 3
ENDMDL
MODEL 7
REMARK VINA RESULT:      -5.8      3.776      6.014
REMARK  Name = 
REMARK  3 active torsions:
REMARK  status: ('A' for Active; 'I' for Inactive)
REMARK    1  A    between atoms: C_2  and  C_3
REMARK    2  A    between atoms: C_3  and  O_4
REMARK    3  A    between atoms: C_7  and  N_10
REMARK                            x       y       z     vdW  Elec       q    Type
REMARK                         _______ _______ _______ _____ _____    ______ ____
ROOT
ATOM      1  N   UNL     1       7.533  -1.982  23.067  0.00  0.00    -0.288 N 
ATOM      2  C   UNL     1       7.406  -0.619  23.118  0.00  0.00    +0.169 A 
ATOM      3  N   UNL     1       6.494   0.105  23.788  0.00  0.00    -0.198 NA
ATOM      4  C   UNL     1       6.702   1.424  23.580  0.00  0.00    +0.226 A 
ATOM      5  N   UNL     1       7.644   2.037  22.837  0.00  0.00    -0.201 NA
ATOM      6  C   UNL     1       8.524   1.257  22.173  0.00  0.00    +0.149 A 
ATOM      7  N   UNL     1       9.494   1.866  21.393  0.00  0.00    -0.341 N 
ATOM      8  H   UNL     1      10.294   1.272  21.196  0.00  0.00    +0.144 HD
ATOM      9  H   UNL     1       9.673   2.824  21.662  0.00  0.00    +0.144 HD
ATOM     10 CL   UNL     1       5.611   2.467  24.389  0.00  0.00    -0.041 Cl
ATOM     11  C   UNL     1       8.428  -0.138  22.316  0.00  0.00    +0.147 A 
ATOM     12  N   UNL     1       9.185  -1.169  21.808  0.00  0.00    -0.231 NA
ATOM     13  C   UNL     1       8.630  -2.258  22.292  0.00  0.00    +0.203 A 
ENDROOT
BRANCH   1  16
ATOM     14  C   UNL     1       6.503  -5.231  23.205  0.00  0.00    +0.146 C 
ATOM     15  O   UNL     1       7.364  -4.224  23.772  0.00  0.00    -0.351 OA
ATOM     16  C   UNL     1       6.687  -2.946  23.745  0.00  0.00    +0.222 C 
ATOM     17  C   UNL     1       5.332  -3.177  23.086  0.00  0.00    +0.057 C 
ATOM     18  C   UNL     1       5.102  -4.658  23.273  0.00  0.00    +0.038 C 
BRANCH  14  19
ATOM     19  C   UNL     1       6.953  -5.535  21.770  0.00  0.00    +0.187 C 
BRANCH  19  20
ATOM     20  O   UNL     1       5.930  -6.227  21.058  0.00  0.00    -0.392 OA
ATOM     21  H   UNL     1       6.209  -7.158  20.995  0.00  0.00    +0.210 HD
ENDBRANCH  19  20
ENDBRANCH  14  19
ENDBRANCH   1  16
TORSDOF 3
ENDMDL
MODEL 8
REMARK VINA RESULT:      -5.7      3.276      5.732
REMARK  Name = 
REMARK  3 active torsions:
REMARK  status: ('A' for Active; 'I' for Inactive)
REMARK    1  A    between atoms: C_2  and  C_3
REMARK    2  A    between atoms: C_3  and  O_4
REMARK    3  A    between atoms: C_7  and  N_10
REMARK                            x       y       z     vdW  Elec       q    Type
REMARK                         _______ _______ _______ _____ _____    ______ ____
ROOT
ATOM      1  N   UNL     1       9.212  -1.553  24.170  0.00  0.00    -0.288 N 
ATOM      2  C   UNL     1       9.064  -0.191  24.189  0.00  0.00    +0.169 A 
ATOM      3  N   UNL     1       8.466   0.565  25.124  0.00  0.00    -0.198 NA
ATOM      4  C   UNL     1       8.522   1.869  24.776  0.00  0.00    +0.226 A 
ATOM      5  N   UNL     1       9.066   2.443  23.683  0.00  0.00    -0.201 NA
ATOM      6  C   UNL     1       9.637   1.630  22.769  0.00  0.00    +0.149 A 
ATOM      7  N   UNL     1      10.192   2.197  21.632  0.00  0.00    -0.341 N 
ATOM      8  H   UNL     1      10.870   1.602  21.166  0.00  0.00    +0.144 HD
ATOM      9  H   UNL     1      10.426   3.174  21.752  0.00  0.00    +0.144 HD
ATOM     10 CL   UNL     1       7.804   2.952  25.891  0.00  0.00    -0.041 Cl
ATOM     11  C   UNL     1       9.662   0.247  23.018  0.00  0.00    +0.147 A 
ATOM     12  N   UNL     1      10.193  -0.806  22.310  0.00  0.00    -0.231 NA
ATOM     13  C   UNL     1       9.920  -1.866  23.038  0.00  0.00    +0.203 A 
ENDROOT
BRANCH   1  16
ATOM     14  C   UNL     1       8.148  -4.727  24.819  0.00  0.00    +0.146 C 
ATOM     15  O   UNL     1       9.249  -3.800  24.878  0.00  0.00    -0.351 OA
ATOM     16  C   UNL     1       8.746  -2.479  25.184  0.00  0.00    +0.222 C 
ATOM     17  C   UNL     1       7.229  -2.596  25.287  0.00  0.00    +0.057 C 
ATOM     18  C   UNL     1       7.012  -4.063  25.572  0.00  0.00    +0.038 C 
BRANCH  14  19
ATOM     19  C   UNL     1       7.802  -5.015  23.352  0.00  0.00    +0.187 C 
BRANCH  19  20
ATOM     20  O   UNL     1       6.576  -5.735  23.256  0.00  0.00    -0.392 OA
ATOM     21  H   UNL     1       6.662  -6.340  22.498  0.00  0.00    +0.210 HD
ENDBRANCH  19  20
ENDBRANCH  14  19
ENDBRANCH   1  16
TORSDOF 3
ENDMDL
MODEL 9
REMARK VINA RESULT:      -5.7      3.696      6.383
REMARK  Name = 
REMARK  3 active torsions:
REMARK  status: ('A' for Active; 'I' for Inactive)
REMARK    1  A    between atoms: C_2  and  C_3
REMARK    2  A    between atoms: C_3  and  O_4
REMARK    3  A    between atoms: C_7  and  N_10
REMARK                            x       y       z     vdW  Elec       q    Type
REMARK                         _______ _______ _______ _____ _____    ______ ____
ROOT
ATOM      1  N   UNL     1       7.142  -2.417  24.131  0.00  0.00    -0.288 N 
ATOM      2  C   UNL     1       7.419  -1.182  23.608  0.00  0.00    +0.169 A 
ATOM      3  N   UNL     1       8.483  -0.810  22.878  0.00  0.00    -0.198 NA
ATOM      4  C   UNL     1       8.391   0.499  22.554  0.00  0.00    +0.226 A 
ATOM      5  N   UNL     1       7.430   1.393  22.859  0.00  0.00    -0.201 NA
ATOM      6  C   UNL     1       6.393   0.965  23.610  0.00  0.00    +0.149 A 
ATOM      7  N   UNL     1       5.398   1.870  23.946  0.00  0.00    -0.341 N 
ATOM      8  H   UNL     1       4.521   1.435  24.213  0.00  0.00    +0.144 HD
ATOM      9  H   UNL     1       5.359   2.664  23.321  0.00  0.00    +0.144 HD
ATOM     10 CL   UNL     1       9.684   1.106  21.609  0.00  0.00    -0.041 Cl
ATOM     11  C   UNL     1       6.357  -0.385  24.003  0.00  0.00    +0.147 A 
ATOM     12  N   UNL     1       5.435  -1.109  24.722  0.00  0.00    -0.231 NA
ATOM     13  C   UNL     1       5.930  -2.326  24.764  0.00  0.00    +0.203 A 
ENDROOT
BRANCH   1  16
ATOM     14  C   UNL     1       7.880  -5.496  25.400  0.00  0.00    +0.146 C 
ATOM     15  O   UNL     1       7.178  -4.761  24.379  0.00  0.00    -0.351 OA
ATOM     16  C   UNL     1       7.962  -3.606  23.997  0.00  0.00    +0.222 C 
ATOM     17  C   UNL     1       9.215  -3.615  24.867  0.00  0.00    +0.057 C 
ATOM     18  C   UNL     1       9.327  -5.057  25.300  0.00  0.00    +0.038 C 
BRANCH  14  19
ATOM     19  C   UNL     1       7.257  -5.188  26.768  0.00  0.00    +0.187 C 
BRANCH  19  20
ATOM     20  O   UNL     1       7.731  -6.101  27.754  0.00  0.00    -0.392 OA
ATOM     21  H   UNL     1       7.391  -6.981  27.511  0.00  0.00    +0.210 HD
ENDBRANCH  19  20
ENDBRANCH  14  19
ENDBRANCH   1  16
TORSDOF 3
ENDMDL
