MODEL 1
REMARK VINA RESULT:      -4.4      0.000      0.000
REMARK  Name = 
REMARK  3 active torsions:
REMARK  status: ('A' for Active; 'I' for Inactive)
REMARK    1  A    between atoms: C_1  and  C_2
REMARK    2  A    between atoms: C_2  and  O_4
REMARK    3  A    between atoms: C_2  and  C_5
REMARK                            x       y       z     vdW  Elec       q    Type
REMARK                         _______ _______ _______ _____ _____    ______ ____
ROOT
ATOM      1  C   UNL     1      10.239  -0.153  22.882  0.00  0.00    -0.019 A 
ATOM      2  C   UNL     1      10.607   0.406  24.117  0.00  0.00    +0.006 A 
ATOM      3  C   UNL     1      10.558   1.786  24.317  0.00  0.00    +0.000 A 
ATOM      4  C   UNL     1      10.142   2.626  23.288  0.00  0.00    +0.000 A 
ATOM      5  C   UNL     1       9.768   2.087  22.059  0.00  0.00    +0.000 A 
ATOM      6  C   UNL     1       9.816   0.706  21.856  0.00  0.00    +0.006 A 
ENDROOT
BRANCH   1   8
ATOM      7  C   UNL     1       9.833  -2.436  23.816  0.00  0.00    +0.043 C 
ATOM      8  C   UNL     1      10.353  -1.639  22.624  0.00  0.00    +0.141 C 
BRANCH   8   9
ATOM      9  O   UNL     1       9.613  -2.002  21.461  0.00  0.00    -0.387 OA
ATOM     10  H   UNL     1       8.675  -1.846  21.659  0.00  0.00    +0.210 HD
ENDBRANCH   8   9
ENDBRANCH   1   8
TORSDOF 2
ENDMDL
MODEL 2
REMARK VINA RESULT:      -4.4      0.084      1.610
REMARK  Name = 
REMARK  3 active torsions:
REMARK  status: ('A' for Active; 'I' for Inactive)
REMARK    1  A    between atoms: C_1  and  C_2
REMARK    2  A    between atoms: C_2  and  O_4
REMARK    3  A    between atoms: C_2  and  C_5
REMARK                            x       y       z     vdW  Elec       q    Type
REMARK                         _______ _______ _______ _____ _____    ______ ____
ROOT
ATOM      1  C   UNL     1      10.277  -0.119  22.836  0.00  0.00    -0.019 A 
ATOM      2  C   UNL     1       9.813   0.754  21.839  0.00  0.00    +0.006 A 
ATOM      3  C   UNL     1       9.672   2.119  22.095  0.00  0.00    +0.000 A 
ATOM      4  C   UNL     1       9.992   2.629  23.351  0.00  0.00    +0.000 A 
ATOM      5  C   UNL     1      10.459   1.777  24.349  0.00  0.00    +0.000 A 
ATOM      6  C   UNL     1      10.601   0.411  24.094  0.00  0.00    +0.006 A 
ENDROOT
BRANCH   1   8
ATOM      7  C   UNL     1       9.853  -2.383  23.806  0.00  0.00    +0.043 C 
ATOM      8  C   UNL     1      10.369  -1.610  22.598  0.00  0.00    +0.141 C 
BRANCH   8   9
ATOM      9  O   UNL     1       9.612  -1.979  21.448  0.00  0.00    -0.387 OA
ATOM     10  H   UNL     1      10.245  -2.257  20.766  0.00  0.00    +0.210 HD
ENDBRANCH   8   9
ENDBRANCH   1   8
TORSDOF 2
ENDMDL
MODEL 3
REMARK VINA RESULT:      -4.2      1.233      2.064
REMARK  Name = 
REMARK  3 active torsions:
REMARK  status: ('A' for Active; 'I' for Inactive)
REMARK    1  A    between atoms: C_1  and  C_2
REMARK    2  A    between atoms: C_2  and  O_4
REMARK    3  A    between atoms: C_2  and  C_5
REMARK                            x       y       z     vdW  Elec       q    Type
REMARK                         _______ _______ _______ _____ _____    ______ ____
ROOT
ATOM      1  C   UNL     1       9.664  -0.578  23.342  0.00  0.00    -0.019 A 
ATOM      2  C   UNL     1       9.526   0.045  22.091  0.00  0.00    +0.006 A 
ATOM      3  C   UNL     1       9.899   1.378  21.913  0.00  0.00    +0.000 A 
ATOM      4  C   UNL     1      10.414   2.106  22.982  0.00  0.00    +0.000 A 
ATOM      5  C   UNL     1      10.563   1.502  24.228  0.00  0.00    +0.000 A 
ATOM      6  C   UNL     1      10.190   0.168  24.408  0.00  0.00    +0.006 A 
ENDROOT
BRANCH   1   8
ATOM      7  C   UNL     1       8.300  -2.464  22.430  0.00  0.00    +0.043 C 
ATOM      8  C   UNL     1       9.199  -1.999  23.571  0.00  0.00    +0.141 C 
BRANCH   8   9
ATOM      9  O   UNL     1      10.316  -2.878  23.674  0.00  0.00    -0.387 OA
ATOM     10  H   UNL     1      10.928  -2.648  22.956  0.00  0.00    +0.210 HD
ENDBRANCH   8   9
ENDBRANCH   1   8
TORSDOF 2
ENDMDL
MODEL 4
REMARK VINA RESULT:      -4.2      1.676      3.814
REMARK  Name = 
REMARK  3 active torsions:
REMARK  status: ('A' for Active; 'I' for Inactive)
REMARK    1  A    between atoms: C_1  and  C_2
REMARK    2  A    between atoms: C_2  and  O_4
REMARK    3  A    between atoms: C_2  and  C_5
REMARK                            x       y       z     vdW  Elec       q    Type
REMARK                         _______ _______ _______ _____ _____    ______ ____
ROOT
ATOM      1  C   UNL     1       9.663   0.604  23.117  0.00  0.00    -0.019 A 
ATOM      2  C   UNL     1       9.963  -0.366  22.146  0.00  0.00    +0.006 A 
ATOM      3  C   UNL     1      10.048  -1.716  22.490  0.00  0.00    +0.000 A 
ATOM      4  C   UNL     1       9.837  -2.115  23.807  0.00  0.00    +0.000 A 
ATOM      5  C   UNL     1       9.533  -1.166  24.780  0.00  0.00    +0.000 A 
ATOM      6  C   UNL     1       9.447   0.185  24.439  0.00  0.00    +0.006 A 
ENDROOT
BRANCH   1   8
ATOM      7  C   UNL     1      10.695   2.835  23.571  0.00  0.00    +0.043 C 
ATOM      8  C   UNL     1       9.636   2.077  22.777  0.00  0.00    +0.141 C 
BRANCH   8   9
ATOM      9  O   UNL     1       9.868   2.272  21.384  0.00  0.00    -0.387 OA
ATOM     10  H   UNL     1       9.063   2.668  21.013  0.00  0.00    +0.210 HD
ENDBRANCH   8   9
ENDBRANCH   1   8
TORSDOF 2
ENDMDL
MODEL 5
REMARK VINA RESULT:      -4.1      3.412      4.829
REMARK  Name = 
REMARK  3 active torsions:
REMARK  status: ('A' for Active; 'I' for Inactive)
REMARK    1  A    between atoms: C_1  and  C_2
REMARK    2  A    between atoms: C_2  and  O_4
REMARK    3  A    between atoms: C_2  and  C_5
REMARK                            x       y       z     vdW  Elec       q    Type
REMARK                         _______ _______ _______ _____ _____    ______ ____
ROOT
ATOM      1  C   UNL     1       9.018  -3.834  24.423  0.00  0.00    -0.019 A 
ATOM      2  C   UNL     1       7.892  -4.101  23.628  0.00  0.00    +0.006 A 
ATOM      3  C   UNL     1       7.583  -3.289  22.535  0.00  0.00    +0.000 A 
ATOM      4  C   UNL     1       8.394  -2.201  22.223  0.00  0.00    +0.000 A 
ATOM      5  C   UNL     1       9.517  -1.926  22.999  0.00  0.00    +0.000 A 
ATOM      6  C   UNL     1       9.828  -2.736  24.093  0.00  0.00    +0.006 A 
ENDROOT
BRANCH   1   8
ATOM      7  C   UNL     1       8.067  -5.327  26.187  0.00  0.00    +0.043 C 
ATOM      8  C   UNL     1       9.328  -4.659  25.652  0.00  0.00    +0.141 C 
BRANCH   8   9
ATOM      9  O   UNL     1      10.296  -5.661  25.349  0.00  0.00    -0.387 OA
ATOM     10  H   UNL     1      10.239  -5.834  24.395  0.00  0.00    +0.210 HD
ENDBRANCH   8   9
ENDBRANCH   1   8
TORSDOF 2
ENDMDL
MODEL 6
REMARK VINA RESULT:      -4.0      1.429      1.793
REMARK  Name = 
REMARK  3 active torsions:
REMARK  status: ('A' for Active; 'I' for Inactive)
REMARK    1  A    between atoms: C_1  and  C_2
REMARK    2  A    between atoms: C_2  and  O_4
REMARK    3  A    between atoms: C_2  and  C_5
REMARK                            x       y       z     vdW  Elec       q    Type
REMARK                         _______ _______ _______ _____ _____    ______ ____
ROOT
ATOM      1  C   UNL     1       9.527  -0.923  23.558  0.00  0.00    -0.019 A 
ATOM      2  C   UNL     1      10.094   0.222  24.141  0.00  0.00    +0.006 A 
ATOM      3  C   UNL     1      10.319   1.371  23.381  0.00  0.00    +0.000 A 
ATOM      4  C   UNL     1       9.981   1.391  22.030  0.00  0.00    +0.000 A 
ATOM      5  C   UNL     1       9.413   0.265  21.439  0.00  0.00    +0.000 A 
ATOM      6  C   UNL     1       9.187  -0.886  22.197  0.00  0.00    +0.006 A 
ENDROOT
BRANCH   1   8
ATOM      7  C   UNL     1       7.909  -2.708  24.225  0.00  0.00    +0.043 C 
ATOM      8  C   UNL     1       9.341  -2.200  24.348  0.00  0.00    +0.141 C 
BRANCH   8   9
ATOM      9  O   UNL     1      10.237  -3.208  23.885  0.00  0.00    -0.387 OA
ATOM     10  H   UNL     1      11.134  -2.927  24.129  0.00  0.00    +0.210 HD
ENDBRANCH   8   9
ENDBRANCH   1   8
TORSDOF 2
ENDMDL
MODEL 7
REMARK VINA RESULT:      -3.9      2.124      3.383
REMARK  Name = 
REMARK  3 active torsions:
REMARK  status: ('A' for Active; 'I' for Inactive)
REMARK    1  A    between atoms: C_1  and  C_2
REMARK    2  A    between atoms: C_2  and  O_4
REMARK    3  A    between atoms: C_2  and  C_5
REMARK                            x       y       z     vdW  Elec       q    Type
REMARK                         _______ _______ _______ _____ _____    ______ ____
ROOT
ATOM      1  C   UNL     1       9.277   0.645  22.972  0.00  0.00    -0.019 A 
ATOM      2  C   UNL     1      10.375   0.888  23.814  0.00  0.00    +0.006 A 
ATOM      3  C   UNL     1      10.456   0.288  25.071  0.00  0.00    +0.000 A 
ATOM      4  C   UNL     1       9.442  -0.562  25.505  0.00  0.00    +0.000 A 
ATOM      5  C   UNL     1       8.349  -0.818  24.680  0.00  0.00    +0.000 A 
ATOM      6  C   UNL     1       8.266  -0.218  23.422  0.00  0.00    +0.006 A 
ENDROOT
BRANCH   1   8
ATOM      7  C   UNL     1       7.799   2.066  21.542  0.00  0.00    +0.043 C 
ATOM      8  C   UNL     1       9.138   1.341  21.637  0.00  0.00    +0.141 C 
BRANCH   8   9
ATOM      9  O   UNL     1      10.193   2.282  21.452  0.00  0.00    -0.387 OA
ATOM     10  H   UNL     1      10.490   2.556  22.335  0.00  0.00    +0.210 HD
ENDBRANCH   8   9
ENDBRANCH   1   8
TORSDOF 2
ENDMDL
MODEL 8
REMARK VINA RESULT:      -3.9      5.978      7.056
REMARK  Name = 
REMARK  3 active torsions:
REMARK  status: ('A' for Active; 'I' for Inactive)
REMARK    1  A    between atoms: C_1  and  C_2
REMARK    2  A    between atoms: C_2  and  O_4
REMARK    3  A    between atoms: C_2  and  C_5
REMARK                            x       y       z     vdW  Elec       q    Type
REMARK                         _______ _______ _______ _____ _____    ______ ____
ROOT
ATOM      1  C   UNL     1       7.442  -5.134  24.009  0.00  0.00    -0.019 A 
ATOM      2  C   UNL     1       7.596  -5.588  22.689  0.00  0.00    +0.006 A 
ATOM      3  C   UNL     1       6.482  -5.886  21.903  0.00  0.00    +0.000 A 
ATOM      4  C   UNL     1       5.199  -5.734  22.425  0.00  0.00    +0.000 A 
ATOM      5  C   UNL     1       5.029  -5.279  23.730  0.00  0.00    +0.000 A 
ATOM      6  C   UNL     1       6.143  -4.981  24.519  0.00  0.00    +0.006 A 
ENDROOT
BRANCH   1   8
ATOM      7  C   UNL     1       8.261  -5.026  26.368  0.00  0.00    +0.043 C 
ATOM      8  C   UNL     1       8.637  -4.875  24.898  0.00  0.00    +0.141 C 
BRANCH   8   9
ATOM      9  O   UNL     1       9.694  -5.781  24.591  0.00  0.00    -0.387 OA
ATOM     10  H   UNL     1      10.527  -5.292  24.684  0.00  0.00    +0.210 HD
ENDBRANCH   8   9
ENDBRANCH   1   8
TORSDOF 2
ENDMDL
MODEL 9
REMARK VINA RESULT:      -3.8      2.545      4.483
REMARK  Name = 
REMARK  3 active torsions:
REMARK  status: ('A' for Active; 'I' for Inactive)
REMARK    1  A    between atoms: C_1  and  C_2
REMARK    2  A    between atoms: C_2  and  O_4
REMARK    3  A    between atoms: C_2  and  C_5
REMARK                            x       y       z     vdW  Elec       q    Type
REMARK                         _______ _______ _______ _____ _____    ______ ____
ROOT
ATOM      1  C   UNL     1       9.089   2.546  23.135  0.00  0.00    -0.019 A 
ATOM      2  C   UNL     1       8.905   1.883  21.910  0.00  0.00    +0.006 A 
ATOM      3  C   UNL     1       9.490   0.637  21.680  0.00  0.00    +0.000 A 
ATOM      4  C   UNL     1      10.266   0.037  22.668  0.00  0.00    +0.000 A 
ATOM      5  C   UNL     1      10.453   0.679  23.890  0.00  0.00    +0.000 A 
ATOM      6  C   UNL     1       9.869   1.926  24.123  0.00  0.00    +0.006 A 
ENDROOT
BRANCH   1   8
ATOM      7  C   UNL     1       9.595   4.865  23.917  0.00  0.00    +0.043 C 
ATOM      8  C   UNL     1       8.522   3.928  23.376  0.00  0.00    +0.141 C 
BRANCH   8   9
ATOM      9  O   UNL     1       7.994   4.469  22.167  0.00  0.00    -0.387 OA
ATOM     10  H   UNL     1       7.134   4.044  22.015  0.00  0.00    +0.210 HD
ENDBRANCH   8   9
ENDBRANCH   1   8
TORSDOF 2
ENDMDL
