MODEL 1
REMARK VINA RESULT:      -7.1      0.000      0.000
REMARK  Name = 
REMARK  9 active torsions:
REMARK  status: ('A' for Active; 'I' for Inactive)
REMARK    1  A    between atoms: C_2  and  N_3
REMARK    2  A    between atoms: C_2  and  C_4
REMARK    3  A    between atoms: C_2  and  C_11
REMARK    4  A    between atoms: C_4  and  C_5
REMARK    5  A    between atoms: C_17  and  C_19
REMARK    6  A    between atoms: N_21  and  C_22
REMARK    7  A    between atoms: C_22  and  C_23
REMARK    8  A    between atoms: C_23  and  N_24
REMARK    9  A    between atoms: N_24  and  C_25
REMARK                            x       y       z     vdW  Elec       q    Type
REMARK                         _______ _______ _______ _____ _____    ______ ____
ROOT
ATOM      1  C   UNL     1       9.180  -0.903  23.841  0.00  0.00    +0.233 C 
ATOM      2  N   UNL     1       8.251  -0.429  24.744  0.00  0.00    -0.289 N 
ATOM      3  C   UNL     1       8.347  -0.811  26.158  0.00  0.00    +0.162 C 
ATOM      4  C   UNL     1       7.487   0.216  26.905  0.00  0.00    +0.033 C 
ATOM      5  C   UNL     1       7.068   1.243  25.855  0.00  0.00    +0.021 C 
ATOM      6  C   UNL     1       7.156   0.498  24.538  0.00  0.00    +0.108 C 
ATOM      7  O   UNL     1      10.144  -1.560  24.243  0.00  0.00    -0.274 OA
ENDROOT
BRANCH   3   8
ATOM      8  C   UNL     1       7.810  -2.243  26.418  0.00  0.00    +0.234 C 
ATOM      9  N   UNL     1       8.751  -3.248  26.335  0.00  0.00    -0.312 N 
ATOM     10  H   UNL     1       9.724  -2.964  26.317  0.00  0.00    +0.149 HD
ATOM     11  O   UNL     1       6.617  -2.464  26.617  0.00  0.00    -0.274 OA
BRANCH   9  12
ATOM     12  C   UNL     1       8.470  -4.630  26.667  0.00  0.00    +0.123 C 
BRANCH  12  13
ATOM     13  C   UNL     1       7.756  -5.337  25.511  0.00  0.00    +0.120 C 
BRANCH  13  14
ATOM     14  N   UNL     1       8.385  -5.018  24.227  0.00  0.00    -0.342 N 
ATOM     15  H   UNL     1       9.096  -5.705  23.978  0.00  0.00    +0.146 HD
BRANCH  14  16
ATOM     16  C   UNL     1       7.517  -4.781  23.146  0.00  0.00    +0.030 A 
ATOM     17  C   UNL     1       6.735  -3.622  23.146  0.00  0.00    +0.042 A 
ATOM     18  C   UNL     1       5.849  -3.403  22.101  0.00  0.00    +0.112 A 
ATOM     19  N   UNL     1       5.661  -4.265  21.082  0.00  0.00    -0.263 NA
ATOM     20  C   UNL     1       6.380  -5.404  21.127  0.00  0.00    +0.112 A 
ATOM     21  C   UNL     1       7.293  -5.705  22.129  0.00  0.00    +0.042 A 
ENDBRANCH  14  16
ENDBRANCH  13  14
ENDBRANCH  12  13
ENDBRANCH   9  12
ENDBRANCH   3   8
BRANCH   1  22
ATOM     22  C   UNL     1       8.948  -0.655  22.333  0.00  0.00    +0.142 C 
BRANCH  22  23
ATOM     23  N   UNL     1       9.337  -1.865  21.559  0.00  0.00    -0.320 NA
ATOM     24  H   UNL     1       9.764  -2.545  22.182  0.00  0.00    +0.119 HD
ATOM     25  H   UNL     1       8.474  -2.317  21.242  0.00  0.00    +0.119 HD
ENDBRANCH  22  23
BRANCH  22  26
ATOM     26  C   UNL     1       9.800   0.568  21.913  0.00  0.00    +0.063 C 
BRANCH  26  27
ATOM     27  C   UNL     1       9.262   1.904  22.359  0.00  0.00    -0.045 A 
ATOM     28  C   UNL     1       9.945   2.655  23.326  0.00  0.00    +0.004 A 
ATOM     29  C   UNL     1       9.443   3.883  23.754  0.00  0.00    +0.000 A 
ATOM     30  C   UNL     1       8.249   4.369  23.221  0.00  0.00    +0.000 A 
ATOM     31  C   UNL     1       7.560   3.628  22.264  0.00  0.00    +0.000 A 
ATOM     32  C   UNL     1       8.064   2.402  21.830  0.00  0.00    +0.004 A 
ENDBRANCH  26  27
ENDBRANCH  22  26
ENDBRANCH   1  22
TORSDOF 9
ENDMDL
MODEL 2
REMARK VINA RESULT:      -6.8      2.047      6.144
REMARK  Name = 
REMARK  9 active torsions:
REMARK  status: ('A' for Active; 'I' for Inactive)
REMARK    1  A    between atoms: C_2  and  N_3
REMARK    2  A    between atoms: C_2  and  C_4
REMARK    3  A    between atoms: C_2  and  C_11
REMARK    4  A    between atoms: C_4  and  C_5
REMARK    5  A    between atoms: C_17  and  C_19
REMARK    6  A    between atoms: N_21  and  C_22
REMARK    7  A    between atoms: C_22  and  C_23
REMARK    8  A    between atoms: C_23  and  N_24
REMARK    9  A    between atoms: N_24  and  C_25
REMARK                            x       y       z     vdW  Elec       q    Type
REMARK                         _______ _______ _______ _____ _____    ______ ____
ROOT
ATOM      1  C   UNL     1       7.988  -5.020  25.145  0.00  0.00    +0.233 C 
ATOM      2  N   UNL     1       6.772  -5.288  24.551  0.00  0.00    -0.289 N 
ATOM      3  C   UNL     1       6.682  -5.402  23.091  0.00  0.00    +0.162 C 
ATOM      4  C   UNL     1       5.358  -6.129  22.830  0.00  0.00    +0.033 C 
ATOM      5  C   UNL     1       4.835  -6.536  24.207  0.00  0.00    +0.021 C 
ATOM      6  C   UNL     1       5.487  -5.559  25.165  0.00  0.00    +0.108 C 
ATOM      7  O   UNL     1       9.010  -4.980  24.455  0.00  0.00    -0.274 OA
ENDROOT
BRANCH   3   8
ATOM      8  C   UNL     1       6.674  -4.016  22.392  0.00  0.00    +0.234 C 
ATOM      9  N   UNL     1       7.776  -3.226  22.641  0.00  0.00    -0.312 N 
ATOM     10  H   UNL     1       8.574  -3.675  23.076  0.00  0.00    +0.149 HD
ATOM     11  O   UNL     1       5.718  -3.633  21.721  0.00  0.00    -0.274 OA
BRANCH   9  12
ATOM     12  C   UNL     1       8.009  -1.956  21.982  0.00  0.00    +0.123 C 
BRANCH  12  13
ATOM     13  C   UNL     1       9.489  -1.566  22.051  0.00  0.00    +0.120 C 
BRANCH  13  14
ATOM     14  N   UNL     1       9.745  -0.330  21.308  0.00  0.00    -0.342 N 
ATOM     15  H   UNL     1       9.313  -0.352  20.385  0.00  0.00    +0.146 HD
BRANCH  14  16
ATOM     16  C   UNL     1       9.444   0.873  21.972  0.00  0.00    +0.030 A 
ATOM     17  C   UNL     1       8.326   1.609  21.569  0.00  0.00    +0.042 A 
ATOM     18  C   UNL     1       8.048   2.815  22.195  0.00  0.00    +0.112 A 
ATOM     19  N   UNL     1       8.815   3.354  23.162  0.00  0.00    -0.263 NA
ATOM     20  C   UNL     1       9.921   2.661  23.500  0.00  0.00    +0.112 A 
ATOM     21  C   UNL     1      10.276   1.445  22.932  0.00  0.00    +0.042 A 
ENDBRANCH  14  16
ENDBRANCH  13  14
ENDBRANCH  12  13
ENDBRANCH   9  12
ENDBRANCH   3   8
BRANCH   1  22
ATOM     22  C   UNL     1       8.026  -4.706  26.659  0.00  0.00    +0.142 C 
BRANCH  22  23
ATOM     23  N   UNL     1       7.781  -5.950  27.437  0.00  0.00    -0.320 NA
ATOM     24  H   UNL     1       8.444  -6.667  27.151  0.00  0.00    +0.119 HD
ATOM     25  H   UNL     1       8.021  -5.755  28.412  0.00  0.00    +0.119 HD
ENDBRANCH  22  23
BRANCH  22  26
ATOM     26  C   UNL     1       6.939  -3.644  26.955  0.00  0.00    +0.063 C 
BRANCH  26  27
ATOM     27  C   UNL     1       7.134  -2.320  26.260  0.00  0.00    -0.045 A 
ATOM     28  C   UNL     1       8.351  -1.633  26.375  0.00  0.00    +0.004 A 
ATOM     29  C   UNL     1       8.531  -0.401  25.748  0.00  0.00    +0.000 A 
ATOM     30  C   UNL     1       7.492   0.159  25.006  0.00  0.00    +0.000 A 
ATOM     31  C   UNL     1       6.276  -0.512  24.891  0.00  0.00    +0.000 A 
ATOM     32  C   UNL     1       6.097  -1.748  25.512  0.00  0.00    +0.004 A 
ENDBRANCH  26  27
ENDBRANCH  22  26
ENDBRANCH   1  22
TORSDOF 9
ENDMDL
MODEL 3
REMARK VINA RESULT:      -6.7      2.163      3.509
REMARK  Name = 
REMARK  9 active torsions:
REMARK  status: ('A' for Active; 'I' for Inactive)
REMARK    1  A    between atoms: C_2  and  N_3
REMARK    2  A    between atoms: C_2  and  C_4
REMARK    3  A    between atoms: C_2  and  C_11
REMARK    4  A    between atoms: C_4  and  C_5
REMARK    5  A    between atoms: C_17  and  C_19
REMARK    6  A    between atoms: N_21  and  C_22
REMARK    7  A    between atoms: C_22  and  C_23
REMARK    8  A    between atoms: C_23  and  N_24
REMARK    9  A    between atoms: N_24  and  C_25
REMARK                            x       y       z     vdW  Elec       q    Type
REMARK                         _______ _______ _______ _____ _____    ______ ____
ROOT
ATOM      1  C   UNL     1       9.394   0.018  22.954  0.00  0.00    +0.233 C 
ATOM      2  N   UNL     1       8.873  -0.436  24.148  0.00  0.00    -0.289 N 
ATOM      3  C   UNL     1       8.727  -1.878  24.378  0.00  0.00    +0.162 C 
ATOM      4  C   UNL     1       8.569  -2.024  25.897  0.00  0.00    +0.033 C 
ATOM      5  C   UNL     1       8.798  -0.626  26.469  0.00  0.00    +0.021 C 
ATOM      6  C   UNL     1       8.474   0.312  25.323  0.00  0.00    +0.108 C 
ATOM      7  O   UNL     1       9.831  -0.790  22.130  0.00  0.00    -0.274 OA
ENDROOT
BRANCH   3   8
ATOM      8  C   UNL     1       7.486  -2.467  23.656  0.00  0.00    +0.234 C 
ATOM      9  N   UNL     1       7.763  -3.377  22.659  0.00  0.00    -0.312 N 
ATOM     10  H   UNL     1       8.709  -3.736  22.615  0.00  0.00    +0.149 HD
ATOM     11  O   UNL     1       6.344  -2.092  23.917  0.00  0.00    -0.274 OA
BRANCH   9  12
ATOM     12  C   UNL     1       6.738  -4.126  21.958  0.00  0.00    +0.123 C 
BRANCH  12  13
ATOM     13  C   UNL     1       6.385  -5.411  22.715  0.00  0.00    +0.120 C 
BRANCH  13  14
ATOM     14  N   UNL     1       5.256  -5.195  23.624  0.00  0.00    -0.342 N 
ATOM     15  H   UNL     1       4.393  -5.589  23.248  0.00  0.00    +0.146 HD
BRANCH  14  16
ATOM     16  C   UNL     1       5.445  -5.588  24.960  0.00  0.00    +0.030 A 
ATOM     17  C   UNL     1       6.620  -5.210  25.618  0.00  0.00    +0.042 A 
ATOM     18  C   UNL     1       6.828  -5.628  26.925  0.00  0.00    +0.112 A 
ATOM     19  N   UNL     1       5.975  -6.417  27.607  0.00  0.00    -0.263 NA
ATOM     20  C   UNL     1       4.875  -6.820  26.939  0.00  0.00    +0.112 A 
ATOM     21  C   UNL     1       4.581  -6.448  25.634  0.00  0.00    +0.042 A 
ENDBRANCH  14  16
ENDBRANCH  13  14
ENDBRANCH  12  13
ENDBRANCH   9  12
ENDBRANCH   3   8
BRANCH   1  22
ATOM     22  C   UNL     1       9.354   1.534  22.652  0.00  0.00    +0.142 C 
BRANCH  22  23
ATOM     23  N   UNL     1       9.073   1.751  21.207  0.00  0.00    -0.320 NA
ATOM     24  H   UNL     1       8.068   1.808  21.060  0.00  0.00    +0.119 HD
ATOM     25  H   UNL     1       9.419   2.683  20.963  0.00  0.00    +0.119 HD
ENDBRANCH  22  23
BRANCH  22  26
ATOM     26  C   UNL     1      10.725   2.137  23.045  0.00  0.00    +0.063 C 
BRANCH  26  27
ATOM     27  C   UNL     1      10.685   3.580  23.482  0.00  0.00    -0.045 A 
ATOM     28  C   UNL     1       9.506   4.129  24.006  0.00  0.00    +0.004 A 
ATOM     29  C   UNL     1       9.460   5.467  24.396  0.00  0.00    +0.000 A 
ATOM     30  C   UNL     1      10.592   6.270  24.259  0.00  0.00    +0.000 A 
ATOM     31  C   UNL     1      11.766   5.736  23.733  0.00  0.00    +0.000 A 
ATOM     32  C   UNL     1      11.816   4.396  23.349  0.00  0.00    +0.004 A 
ENDBRANCH  26  27
ENDBRANCH  22  26
ENDBRANCH   1  22
TORSDOF 9
ENDMDL
MODEL 4
REMARK VINA RESULT:      -6.6      2.001      5.262
REMARK  Name = 
REMARK  9 active torsions:
REMARK  status: ('A' for Active; 'I' for Inactive)
REMARK    1  A    between atoms: C_2  and  N_3
REMARK    2  A    between atoms: C_2  and  C_4
REMARK    3  A    between atoms: C_2  and  C_11
REMARK    4  A    between atoms: C_4  and  C_5
REMARK    5  A    between atoms: C_17  and  C_19
REMARK    6  A    between atoms: N_21  and  C_22
REMARK    7  A    between atoms: C_22  and  C_23
REMARK    8  A    between atoms: C_23  and  N_24
REMARK    9  A    between atoms: N_24  and  C_25
REMARK                            x       y       z     vdW  Elec       q    Type
REMARK                         _______ _______ _______ _____ _____    ______ ____
ROOT
ATOM      1  C   UNL     1       9.665  -0.832  23.765  0.00  0.00    +0.233 C 
ATOM      2  N   UNL     1       9.559   0.502  23.428  0.00  0.00    -0.289 N 
ATOM      3  C   UNL     1       9.654   1.528  24.473  0.00  0.00    +0.162 C 
ATOM      4  C   UNL     1       9.951   2.832  23.723  0.00  0.00    +0.033 C 
ATOM      5  C   UNL     1      10.167   2.427  22.266  0.00  0.00    +0.021 C 
ATOM      6  C   UNL     1       9.424   1.114  22.122  0.00  0.00    +0.108 C 
ATOM      7  O   UNL     1       9.942  -1.150  24.925  0.00  0.00    -0.274 OA
ENDROOT
BRANCH   3   8
ATOM      8  C   UNL     1       8.337   1.667  25.282  0.00  0.00    +0.234 C 
ATOM      9  N   UNL     1       8.140   0.710  26.255  0.00  0.00    -0.312 N 
ATOM     10  H   UNL     1       8.937   0.133  26.498  0.00  0.00    +0.149 HD
ATOM     11  O   UNL     1       7.504   2.533  25.022  0.00  0.00    -0.274 OA
BRANCH   9  12
ATOM     12  C   UNL     1       7.036   0.745  27.193  0.00  0.00    +0.123 C 
BRANCH  12  13
ATOM     13  C   UNL     1       6.312  -0.604  27.237  0.00  0.00    +0.120 C 
BRANCH  13  14
ATOM     14  N   UNL     1       6.865  -1.533  26.249  0.00  0.00    -0.342 N 
ATOM     15  H   UNL     1       7.736  -1.181  25.851  0.00  0.00    +0.146 HD
BRANCH  14  16
ATOM     16  C   UNL     1       7.007  -2.871  26.659  0.00  0.00    +0.030 A 
ATOM     17  C   UNL     1       8.219  -3.528  26.422  0.00  0.00    +0.042 A 
ATOM     18  C   UNL     1       8.349  -4.859  26.790  0.00  0.00    +0.112 A 
ATOM     19  N   UNL     1       7.359  -5.588  27.341  0.00  0.00    -0.263 NA
ATOM     20  C   UNL     1       6.180  -4.956  27.510  0.00  0.00    +0.112 A 
ATOM     21  C   UNL     1       5.958  -3.627  27.177  0.00  0.00    +0.042 A 
ENDBRANCH  14  16
ENDBRANCH  13  14
ENDBRANCH  12  13
ENDBRANCH   9  12
ENDBRANCH   3   8
BRANCH   1  22
ATOM     22  C   UNL     1       9.363  -1.900  22.688  0.00  0.00    +0.142 C 
BRANCH  22  23
ATOM     23  N   UNL     1      10.188  -1.639  21.477  0.00  0.00    -0.320 NA
ATOM     24  H   UNL     1       9.665  -1.903  20.645  0.00  0.00    +0.119 HD
ATOM     25  H   UNL     1      10.301  -0.624  21.395  0.00  0.00    +0.119 HD
ENDBRANCH  22  23
BRANCH  22  26
ATOM     26  C   UNL     1       7.853  -1.830  22.355  0.00  0.00    +0.063 C 
BRANCH  26  27
ATOM     27  C   UNL     1       7.038  -3.005  22.835  0.00  0.00    -0.045 A 
ATOM     28  C   UNL     1       7.631  -4.268  22.972  0.00  0.00    +0.004 A 
ATOM     29  C   UNL     1       6.879  -5.361  23.400  0.00  0.00    +0.000 A 
ATOM     30  C   UNL     1       5.525  -5.201  23.690  0.00  0.00    +0.000 A 
ATOM     31  C   UNL     1       4.924  -3.952  23.551  0.00  0.00    +0.000 A 
ATOM     32  C   UNL     1       5.677  -2.856  23.129  0.00  0.00    +0.004 A 
ENDBRANCH  26  27
ENDBRANCH  22  26
ENDBRANCH   1  22
TORSDOF 9
ENDMDL
MODEL 5
REMARK VINA RESULT:      -6.5      2.272      3.304
REMARK  Name = 
REMARK  9 active torsions:
REMARK  status: ('A' for Active; 'I' for Inactive)
REMARK    1  A    between atoms: C_2  and  N_3
REMARK    2  A    between atoms: C_2  and  C_4
REMARK    3  A    between atoms: C_2  and  C_11
REMARK    4  A    between atoms: C_4  and  C_5
REMARK    5  A    between atoms: C_17  and  C_19
REMARK    6  A    between atoms: N_21  and  C_22
REMARK    7  A    between atoms: C_22  and  C_23
REMARK    8  A    between atoms: C_23  and  N_24
REMARK    9  A    between atoms: N_24  and  C_25
REMARK                            x       y       z     vdW  Elec       q    Type
REMARK                         _______ _______ _______ _____ _____    ______ ____
ROOT
ATOM      1  C   UNL     1       9.237  -0.295  22.899  0.00  0.00    +0.233 C 
ATOM      2  N   UNL     1       8.730  -0.780  24.087  0.00  0.00    -0.289 N 
ATOM      3  C   UNL     1       8.567  -2.226  24.274  0.00  0.00    +0.162 C 
ATOM      4  C   UNL     1       8.434  -2.418  25.790  0.00  0.00    +0.033 C 
ATOM      5  C   UNL     1       8.694  -1.043  26.402  0.00  0.00    +0.021 C 
ATOM      6  C   UNL     1       8.363  -0.064  25.293  0.00  0.00    +0.108 C 
ATOM      7  O   UNL     1       9.647  -1.082  22.042  0.00  0.00    -0.274 OA
ENDROOT
BRANCH   3   8
ATOM      8  C   UNL     1       7.304  -2.773  23.557  0.00  0.00    +0.234 C 
ATOM      9  N   UNL     1       7.546  -3.478  22.396  0.00  0.00    -0.312 N 
ATOM     10  H   UNL     1       8.505  -3.752  22.218  0.00  0.00    +0.149 HD
ATOM     11  O   UNL     1       6.169  -2.534  23.965  0.00  0.00    -0.274 OA
BRANCH   9  12
ATOM     12  C   UNL     1       6.511  -4.170  21.656  0.00  0.00    +0.123 C 
BRANCH  12  13
ATOM     13  C   UNL     1       6.600  -5.684  21.874  0.00  0.00    +0.120 C 
BRANCH  13  14
ATOM     14  N   UNL     1       5.298  -6.241  22.248  0.00  0.00    -0.342 N 
ATOM     15  H   UNL     1       5.328  -7.260  22.299  0.00  0.00    +0.146 HD
BRANCH  14  16
ATOM     16  C   UNL     1       4.693  -5.701  23.396  0.00  0.00    +0.030 A 
ATOM     17  C   UNL     1       5.310  -5.881  24.638  0.00  0.00    +0.042 A 
ATOM     18  C   UNL     1       4.697  -5.383  25.778  0.00  0.00    +0.112 A 
ATOM     19  N   UNL     1       3.506  -4.753  25.776  0.00  0.00    -0.263 NA
ATOM     20  C   UNL     1       2.896  -4.638  24.579  0.00  0.00    +0.112 A 
ATOM     21  C   UNL     1       3.435  -5.101  23.387  0.00  0.00    +0.042 A 
ENDBRANCH  14  16
ENDBRANCH  13  14
ENDBRANCH  12  13
ENDBRANCH   9  12
ENDBRANCH   3   8
BRANCH   1  22
ATOM     22  C   UNL     1       9.214   1.231  22.646  0.00  0.00    +0.142 C 
BRANCH  22  23
ATOM     23  N   UNL     1       8.999   1.496  21.198  0.00  0.00    -0.320 NA
ATOM     24  H   UNL     1       8.583   2.416  21.078  0.00  0.00    +0.119 HD
ATOM     25  H   UNL     1       9.921   1.576  20.760  0.00  0.00    +0.119 HD
ENDBRANCH  22  23
BRANCH  22  26
ATOM     26  C   UNL     1      10.566   1.816  23.122  0.00  0.00    +0.063 C 
BRANCH  26  27
ATOM     27  C   UNL     1      10.542   3.284  23.464  0.00  0.00    -0.045 A 
ATOM     28  C   UNL     1       9.368   3.878  23.952  0.00  0.00    +0.004 A 
ATOM     29  C   UNL     1       9.336   5.238  24.254  0.00  0.00    +0.000 A 
ATOM     30  C   UNL     1      10.475   6.019  24.065  0.00  0.00    +0.000 A 
ATOM     31  C   UNL     1      11.644   5.441  23.575  0.00  0.00    +0.000 A 
ATOM     32  C   UNL     1      11.680   4.078  23.279  0.00  0.00    +0.004 A 
ENDBRANCH  26  27
ENDBRANCH  22  26
ENDBRANCH   1  22
TORSDOF 9
ENDMDL
MODEL 6
REMARK VINA RESULT:      -6.5      1.851      3.376
REMARK  Name = 
REMARK  9 active torsions:
REMARK  status: ('A' for Active; 'I' for Inactive)
REMARK    1  A    between atoms: C_2  and  N_3
REMARK    2  A    between atoms: C_2  and  C_4
REMARK    3  A    between atoms: C_2  and  C_11
REMARK    4  A    between atoms: C_4  and  C_5
REMARK    5  A    between atoms: C_17  and  C_19
REMARK    6  A    between atoms: N_21  and  C_22
REMARK    7  A    between atoms: C_22  and  C_23
REMARK    8  A    between atoms: C_23  and  N_24
REMARK    9  A    between atoms: N_24  and  C_25
REMARK                            x       y       z     vdW  Elec       q    Type
REMARK                         _______ _______ _______ _____ _____    ______ ____
ROOT
ATOM      1  C   UNL     1       9.049   0.474  23.161  0.00  0.00    +0.233 C 
ATOM      2  N   UNL     1       8.328   0.164  24.295  0.00  0.00    -0.289 N 
ATOM      3  C   UNL     1       8.089  -1.241  24.646  0.00  0.00    +0.162 C 
ATOM      4  C   UNL     1       7.689  -1.218  26.126  0.00  0.00    +0.033 C 
ATOM      5  C   UNL     1       7.883   0.228  26.581  0.00  0.00    +0.021 C 
ATOM      6  C   UNL     1       7.781   1.044  25.308  0.00  0.00    +0.108 C 
ATOM      7  O   UNL     1       9.576  -0.428  22.505  0.00  0.00    -0.274 OA
ENDROOT
BRANCH   3   8
ATOM      8  C   UNL     1       6.953  -1.873  23.798  0.00  0.00    +0.234 C 
ATOM      9  N   UNL     1       7.372  -2.597  22.702  0.00  0.00    -0.312 N 
ATOM     10  H   UNL     1       8.357  -2.826  22.652  0.00  0.00    +0.149 HD
ATOM     11  O   UNL     1       5.766  -1.682  24.056  0.00  0.00    -0.274 OA
BRANCH   9  12
ATOM     12  C   UNL     1       6.471  -3.364  21.864  0.00  0.00    +0.123 C 
BRANCH  12  13
ATOM     13  C   UNL     1       6.159  -4.724  22.496  0.00  0.00    +0.120 C 
BRANCH  13  14
ATOM     14  N   UNL     1       7.374  -5.356  23.015  0.00  0.00    -0.342 N 
ATOM     15  H   UNL     1       8.202  -5.055  22.500  0.00  0.00    +0.146 HD
BRANCH  14  16
ATOM     16  C   UNL     1       7.586  -5.261  24.401  0.00  0.00    +0.030 A 
ATOM     17  C   UNL     1       6.483  -5.305  25.260  0.00  0.00    +0.042 A 
ATOM     18  C   UNL     1       6.684  -5.174  26.627  0.00  0.00    +0.112 A 
ATOM     19  N   UNL     1       7.889  -4.967  27.193  0.00  0.00    -0.263 NA
ATOM     20  C   UNL     1       8.935  -4.870  26.347  0.00  0.00    +0.112 A 
ATOM     21  C   UNL     1       8.830  -4.994  24.969  0.00  0.00    +0.042 A 
ENDBRANCH  14  16
ENDBRANCH  13  14
ENDBRANCH  12  13
ENDBRANCH   9  12
ENDBRANCH   3   8
BRANCH   1  22
ATOM     22  C   UNL     1       9.119   1.949  22.701  0.00  0.00    +0.142 C 
BRANCH  22  23
ATOM     23  N   UNL     1       8.631   2.064  21.301  0.00  0.00    -0.320 NA
ATOM     24  H   UNL     1       7.949   1.332  21.117  0.00  0.00    +0.119 HD
ATOM     25  H   UNL     1       8.095   2.934  21.232  0.00  0.00    +0.119 HD
ENDBRANCH  22  23
BRANCH  22  26
ATOM     26  C   UNL     1      10.591   2.416  22.814  0.00  0.00    +0.063 C 
BRANCH  26  27
ATOM     27  C   UNL     1      10.780   3.804  23.375  0.00  0.00    -0.045 A 
ATOM     28  C   UNL     1       9.690   4.504  23.911  0.00  0.00    +0.004 A 
ATOM     29  C   UNL     1       9.856   5.793  24.416  0.00  0.00    +0.000 A 
ATOM     30  C   UNL     1      11.113   6.395  24.382  0.00  0.00    +0.000 A 
ATOM     31  C   UNL     1      12.201   5.711  23.846  0.00  0.00    +0.000 A 
ATOM     32  C   UNL     1      12.038   4.418  23.347  0.00  0.00    +0.004 A 
ENDBRANCH  26  27
ENDBRANCH  22  26
ENDBRANCH   1  22
TORSDOF 9
ENDMDL
MODEL 7
REMARK VINA RESULT:      -6.5      2.047      4.021
REMARK  Name = 
REMARK  9 active torsions:
REMARK  status: ('A' for Active; 'I' for Inactive)
REMARK    1  A    between atoms: C_2  and  N_3
REMARK    2  A    between atoms: C_2  and  C_4
REMARK    3  A    between atoms: C_2  and  C_11
REMARK    4  A    between atoms: C_4  and  C_5
REMARK    5  A    between atoms: C_17  and  C_19
REMARK    6  A    between atoms: N_21  and  C_22
REMARK    7  A    between atoms: C_22  and  C_23
REMARK    8  A    between atoms: C_23  and  N_24
REMARK    9  A    between atoms: N_24  and  C_25
REMARK                            x       y       z     vdW  Elec       q    Type
REMARK                         _______ _______ _______ _____ _____    ______ ____
ROOT
ATOM      1  C   UNL     1       8.012   1.207  23.620  0.00  0.00    +0.233 C 
ATOM      2  N   UNL     1       8.632   0.005  23.349  0.00  0.00    -0.289 N 
ATOM      3  C   UNL     1       7.928  -1.018  22.567  0.00  0.00    +0.162 C 
ATOM      4  C   UNL     1       9.025  -1.975  22.086  0.00  0.00    +0.033 C 
ATOM      5  C   UNL     1      10.345  -1.330  22.506  0.00  0.00    +0.021 C 
ATOM      6  C   UNL     1       9.976  -0.432  23.669  0.00  0.00    +0.108 C 
ATOM      7  O   UNL     1       6.913   1.456  23.117  0.00  0.00    -0.274 OA
ENDROOT
BRANCH   3   8
ATOM      8  C   UNL     1       6.884  -1.792  23.416  0.00  0.00    +0.234 C 
ATOM      9  N   UNL     1       5.921  -2.464  22.694  0.00  0.00    -0.312 N 
ATOM     10  H   UNL     1       6.083  -2.569  21.699  0.00  0.00    +0.149 HD
ATOM     11  O   UNL     1       6.885  -1.748  24.645  0.00  0.00    -0.274 OA
BRANCH   9  12
ATOM     12  C   UNL     1       4.939  -3.341  23.300  0.00  0.00    +0.123 C 
BRANCH  12  13
ATOM     13  C   UNL     1       5.251  -4.809  22.992  0.00  0.00    +0.120 C 
BRANCH  13  14
ATOM     14  N   UNL     1       5.527  -5.559  24.220  0.00  0.00    -0.342 N 
ATOM     15  H   UNL     1       5.407  -6.562  24.081  0.00  0.00    +0.146 HD
BRANCH  14  16
ATOM     16  C   UNL     1       6.748  -5.284  24.860  0.00  0.00    +0.030 A 
ATOM     17  C   UNL     1       6.747  -4.993  26.228  0.00  0.00    +0.042 A 
ATOM     18  C   UNL     1       7.946  -4.684  26.855  0.00  0.00    +0.112 A 
ATOM     19  N   UNL     1       9.131  -4.610  26.217  0.00  0.00    -0.263 NA
ATOM     20  C   UNL     1       9.106  -4.837  24.888  0.00  0.00    +0.112 A 
ATOM     21  C   UNL     1       7.957  -5.158  24.178  0.00  0.00    +0.042 A 
ENDBRANCH  14  16
ENDBRANCH  13  14
ENDBRANCH  12  13
ENDBRANCH   9  12
ENDBRANCH   3   8
BRANCH   1  22
ATOM     22  C   UNL     1       8.686   2.188  24.608  0.00  0.00    +0.142 C 
BRANCH  22  23
ATOM     23  N   UNL     1       8.008   2.114  25.930  0.00  0.00    -0.320 NA
ATOM     24  H   UNL     1       7.931   3.047  26.326  0.00  0.00    +0.119 HD
ATOM     25  H   UNL     1       7.039   1.828  25.763  0.00  0.00    +0.119 HD
ENDBRANCH  22  23
BRANCH  22  26
ATOM     26  C   UNL     1       8.584   3.613  24.012  0.00  0.00    +0.063 C 
BRANCH  26  27
ATOM     27  C   UNL     1       9.885   4.373  23.949  0.00  0.00    -0.045 A 
ATOM     28  C   UNL     1       9.962   5.687  24.434  0.00  0.00    +0.004 A 
ATOM     29  C   UNL     1      11.158   6.399  24.363  0.00  0.00    +0.000 A 
ATOM     30  C   UNL     1      12.287   5.806  23.800  0.00  0.00    +0.000 A 
ATOM     31  C   UNL     1      12.220   4.504  23.309  0.00  0.00    +0.000 A 
ATOM     32  C   UNL     1      11.026   3.787  23.386  0.00  0.00    +0.004 A 
ENDBRANCH  26  27
ENDBRANCH  22  26
ENDBRANCH   1  22
TORSDOF 9
ENDMDL
MODEL 8
REMARK VINA RESULT:      -6.5      1.861      3.239
REMARK  Name = 
REMARK  9 active torsions:
REMARK  status: ('A' for Active; 'I' for Inactive)
REMARK    1  A    between atoms: C_2  and  N_3
REMARK    2  A    between atoms: C_2  and  C_4
REMARK    3  A    between atoms: C_2  and  C_11
REMARK    4  A    between atoms: C_4  and  C_5
REMARK    5  A    between atoms: C_17  and  C_19
REMARK    6  A    between atoms: N_21  and  C_22
REMARK    7  A    between atoms: C_22  and  C_23
REMARK    8  A    between atoms: C_23  and  N_24
REMARK    9  A    between atoms: N_24  and  C_25
REMARK                            x       y       z     vdW  Elec       q    Type
REMARK                         _______ _______ _______ _____ _____    ______ ____
ROOT
ATOM      1  C   UNL     1       8.086   0.907  24.513  0.00  0.00    +0.233 C 
ATOM      2  N   UNL     1       8.766   0.123  23.604  0.00  0.00    -0.289 N 
ATOM      3  C   UNL     1       8.269  -1.221  23.286  0.00  0.00    +0.162 C 
ATOM      4  C   UNL     1       8.958  -1.598  21.969  0.00  0.00    +0.033 C 
ATOM      5  C   UNL     1       9.708  -0.343  21.524  0.00  0.00    +0.021 C 
ATOM      6  C   UNL     1       9.931   0.439  22.803  0.00  0.00    +0.108 C 
ATOM      7  O   UNL     1       7.010   0.517  24.974  0.00  0.00    -0.274 OA
ENDROOT
BRANCH   3   8
ATOM      8  C   UNL     1       8.625  -2.256  24.387  0.00  0.00    +0.234 C 
ATOM      9  N   UNL     1       7.746  -2.311  25.448  0.00  0.00    -0.312 N 
ATOM     10  H   UNL     1       6.858  -1.838  25.332  0.00  0.00    +0.149 HD
ATOM     11  O   UNL     1       9.655  -2.926  24.340  0.00  0.00    -0.274 OA
BRANCH   9  12
ATOM     12  C   UNL     1       7.840  -3.296  26.507  0.00  0.00    +0.123 C 
BRANCH  12  13
ATOM     13  C   UNL     1       7.046  -4.558  26.154  0.00  0.00    +0.120 C 
BRANCH  13  14
ATOM     14  N   UNL     1       7.684  -5.293  25.058  0.00  0.00    -0.342 N 
ATOM     15  H   UNL     1       8.011  -6.210  25.364  0.00  0.00    +0.146 HD
BRANCH  14  16
ATOM     16  C   UNL     1       6.950  -5.396  23.864  0.00  0.00    +0.030 A 
ATOM     17  C   UNL     1       5.553  -5.368  23.921  0.00  0.00    +0.042 A 
ATOM     18  C   UNL     1       4.825  -5.508  22.748  0.00  0.00    +0.112 A 
ATOM     19  N   UNL     1       5.380  -5.708  21.537  0.00  0.00    -0.263 NA
ATOM     20  C   UNL     1       6.726  -5.790  21.507  0.00  0.00    +0.112 A 
ATOM     21  C   UNL     1       7.536  -5.657  22.627  0.00  0.00    +0.042 A 
ENDBRANCH  14  16
ENDBRANCH  13  14
ENDBRANCH  12  13
ENDBRANCH   9  12
ENDBRANCH   3   8
BRANCH   1  22
ATOM     22  C   UNL     1       8.731   2.232  24.983  0.00  0.00    +0.142 C 
BRANCH  22  23
ATOM     23  N   UNL     1       7.896   2.846  26.051  0.00  0.00    -0.320 NA
ATOM     24  H   UNL     1       7.913   2.255  26.878  0.00  0.00    +0.119 HD
ATOM     25  H   UNL     1       8.361   3.710  26.345  0.00  0.00    +0.119 HD
ENDBRANCH  22  23
BRANCH  22  26
ATOM     26  C   UNL     1       8.841   3.172  23.757  0.00  0.00    +0.063 C 
BRANCH  26  27
ATOM     27  C   UNL     1       9.996   4.141  23.797  0.00  0.00    -0.045 A 
ATOM     28  C   UNL     1       9.816   5.435  24.306  0.00  0.00    +0.004 A 
ATOM     29  C   UNL     1      10.877   6.340  24.331  0.00  0.00    +0.000 A 
ATOM     30  C   UNL     1      12.125   5.960  23.840  0.00  0.00    +0.000 A 
ATOM     31  C   UNL     1      12.313   4.678  23.326  0.00  0.00    +0.000 A 
ATOM     32  C   UNL     1      11.254   3.770  23.307  0.00  0.00    +0.004 A 
ENDBRANCH  26  27
ENDBRANCH  22  26
ENDBRANCH   1  22
TORSDOF 9
ENDMDL
MODEL 9
REMARK VINA RESULT:      -6.1      2.349      3.269
REMARK  Name = 
REMARK  9 active torsions:
REMARK  status: ('A' for Active; 'I' for Inactive)
REMARK    1  A    between atoms: C_2  and  N_3
REMARK    2  A    between atoms: C_2  and  C_4
REMARK    3  A    between atoms: C_2  and  C_11
REMARK    4  A    between atoms: C_4  and  C_5
REMARK    5  A    between atoms: C_17  and  C_19
REMARK    6  A    between atoms: N_21  and  C_22
REMARK    7  A    between atoms: C_22  and  C_23
REMARK    8  A    between atoms: C_23  and  N_24
REMARK    9  A    between atoms: N_24  and  C_25
REMARK                            x       y       z     vdW  Elec       q    Type
REMARK                         _______ _______ _______ _____ _____    ______ ____
ROOT
ATOM      1  C   UNL     1       9.983   0.881  23.764  0.00  0.00    +0.233 C 
ATOM      2  N   UNL     1       9.002   0.252  24.503  0.00  0.00    -0.289 N 
ATOM      3  C   UNL     1       9.282  -1.043  25.134  0.00  0.00    +0.162 C 
ATOM      4  C   UNL     1       8.192  -1.209  26.200  0.00  0.00    +0.033 C 
ATOM      5  C   UNL     1       7.429   0.114  26.217  0.00  0.00    +0.021 C 
ATOM      6  C   UNL     1       7.669   0.708  24.843  0.00  0.00    +0.108 C 
ATOM      7  O   UNL     1      11.120   0.403  23.724  0.00  0.00    -0.274 OA
ENDROOT
BRANCH   3   8
ATOM      8  C   UNL     1       9.217  -2.217  24.121  0.00  0.00    +0.234 C 
ATOM      9  N   UNL     1       7.947  -2.594  23.738  0.00  0.00    -0.312 N 
ATOM     10  H   UNL     1       7.190  -1.964  23.977  0.00  0.00    +0.149 HD
ATOM     11  O   UNL     1      10.228  -2.806  23.743  0.00  0.00    -0.274 OA
BRANCH   9  12
ATOM     12  C   UNL     1       7.687  -3.581  22.709  0.00  0.00    +0.123 C 
BRANCH  12  13
ATOM     13  C   UNL     1       7.521  -4.977  23.319  0.00  0.00    +0.120 C 
BRANCH  13  14
ATOM     14  N   UNL     1       6.875  -4.906  24.632  0.00  0.00    -0.342 N 
ATOM     15  H   UNL     1       6.697  -3.941  24.910  0.00  0.00    +0.146 HD
BRANCH  14  16
ATOM     16  C   UNL     1       5.727  -5.698  24.808  0.00  0.00    +0.030 A 
ATOM     17  C   UNL     1       4.821  -5.823  23.750  0.00  0.00    +0.042 A 
ATOM     18  C   UNL     1       3.667  -6.571  23.932  0.00  0.00    +0.112 A 
ATOM     19  N   UNL     1       3.335  -7.171  25.092  0.00  0.00    -0.263 NA
ATOM     20  C   UNL     1       4.190  -6.993  26.119  0.00  0.00    +0.112 A 
ATOM     21  C   UNL     1       5.369  -6.266  26.029  0.00  0.00    +0.042 A 
ENDBRANCH  14  16
ENDBRANCH  13  14
ENDBRANCH  12  13
ENDBRANCH   9  12
ENDBRANCH   3   8
BRANCH   1  22
ATOM     22  C   UNL     1       9.609   2.139  22.946  0.00  0.00    +0.142 C 
BRANCH  22  23
ATOM     23  N   UNL     1       9.746   1.852  21.493  0.00  0.00    -0.320 NA
ATOM     24  H   UNL     1      10.204   0.954  21.364  0.00  0.00    +0.119 HD
ATOM     25  H   UNL     1       8.803   1.713  21.117  0.00  0.00    +0.119 HD
ENDBRANCH  22  23
BRANCH  22  26
ATOM     26  C   UNL     1      10.555   3.287  23.376  0.00  0.00    +0.063 C 
BRANCH  26  27
ATOM     27  C   UNL     1       9.876   4.457  24.043  0.00  0.00    -0.045 A 
ATOM     28  C   UNL     1       8.713   4.262  24.802  0.00  0.00    +0.004 A 
ATOM     29  C   UNL     1       8.073   5.343  25.407  0.00  0.00    +0.000 A 
ATOM     30  C   UNL     1       8.587   6.630  25.253  0.00  0.00    +0.000 A 
ATOM     31  C   UNL     1       9.738   6.835  24.496  0.00  0.00    +0.000 A 
ATOM     32  C   UNL     1      10.384   5.754  23.895  0.00  0.00    +0.004 A 
ENDBRANCH  26  27
ENDBRANCH  22  26
ENDBRANCH   1  22
TORSDOF 9
ENDMDL
