MODEL 1
REMARK VINA RESULT:      -6.6      0.000      0.000
REMARK  Name = 
REMARK  10 active torsions:
REMARK  status: ('A' for Active; 'I' for Inactive)
REMARK    1  A    between atoms: C_1  and  O_2
REMARK    2  A    between atoms: O_2  and  C_3
REMARK    3  A    between atoms: C_5  and  C_7
REMARK    4  A    between atoms: C_8  and  C_10
REMARK    5  A    between atoms: C_10  and  O_11
REMARK    6  A    between atoms: O_11  and  P_12
REMARK    7  A    between atoms: P_12  and  O_13
REMARK    8  A    between atoms: P_12  and  O_14
REMARK    9  A    between atoms: C_17  and  N_19
REMARK   10  A    between atoms: C_21  and  C_22
REMARK                            x       y       z     vdW  Elec       q    Type
REMARK                         _______ _______ _______ _____ _____    ______ ____
ROOT
ATOM      1  C   UNL     1       8.801  -2.303  24.151  0.00  0.00    +0.173 C 
ATOM      2  C   UNL     1       8.693  -2.342  25.699  0.00  0.00    +0.253 C 
ATOM      3  O   UNL     1       8.051  -1.115  26.114  0.00  0.00    -0.348 OA
ATOM      4  C   UNL     1       7.756  -0.332  24.951  0.00  0.00    +0.152 C 
ATOM      5  C   UNL     1       7.722  -1.299  23.762  0.00  0.00    +0.050 C 
ATOM      6  C   UNL     1       6.354  -1.965  23.599  0.00  0.00    +0.013 C 
ENDROOT
BRANCH   2   7
ATOM      7  N   UNL     1       7.988  -3.503  26.253  0.00  0.00    -0.271 N 
ATOM      8  C   UNL     1       8.697  -4.695  26.347  0.00  0.00    +0.331 A 
ATOM      9  O   UNL     1       9.840  -4.848  25.924  0.00  0.00    -0.246 OA
ATOM     10  N   UNL     1       8.054  -5.722  26.974  0.00  0.00    -0.275 N 
ATOM     11  H   UNL     1       8.576  -6.576  27.095  0.00  0.00    +0.173 HD
ATOM     12  C   UNL     1       6.878  -5.632  27.663  0.00  0.00    +0.257 A 
ATOM     13  O   UNL     1       6.458  -6.539  28.372  0.00  0.00    -0.267 OA
ATOM     14  C   UNL     1       6.144  -4.354  27.511  0.00  0.00    +0.030 A 
ATOM     15  C   UNL     1       4.816  -4.222  28.172  0.00  0.00    +0.051 C 
ATOM     16  C   UNL     1       6.734  -3.368  26.825  0.00  0.00    +0.102 A 
ENDBRANCH   2   7
BRANCH   1  18
ATOM     17  C   UNL     1      10.134  -1.531  22.312  0.00  0.00    +0.194 C 
ATOM     18  O   UNL     1      10.049  -1.729  23.716  0.00  0.00    -0.375 OA
ENDBRANCH   1  18
BRANCH   4  19
ATOM     19  C   UNL     1       8.802   0.785  24.823  0.00  0.00    +0.204 C 
BRANCH  19  20
ATOM     20  O   UNL     1       8.607   1.442  23.589  0.00  0.00    -0.284 OA
BRANCH  20  21
ATOM     21  P   UNL     1       9.742   2.423  23.045  0.00  0.00    +0.472 P 
ATOM     22  O   UNL     1      11.014   2.449  23.814  0.00  0.00    -0.228 OA
BRANCH  21  23
ATOM     23  O   UNL     1       8.995   3.831  22.960  0.00  0.00    -0.303 OA
ATOM     24  H   UNL     1       9.065   4.291  23.818  0.00  0.00    +0.222 HD
ENDBRANCH  21  23
BRANCH  21  25
ATOM     25  O   UNL     1       9.847   1.963  21.526  0.00  0.00    -0.303 OA
ATOM     26  H   UNL     1      10.667   1.455  21.395  0.00  0.00    +0.222 HD
ENDBRANCH  21  25
ENDBRANCH  20  21
ENDBRANCH  19  20
ENDBRANCH   4  19
TORSDOF 7
ENDMDL
MODEL 2
REMARK VINA RESULT:      -6.6      3.870      4.850
REMARK  Name = 
REMARK  10 active torsions:
REMARK  status: ('A' for Active; 'I' for Inactive)
REMARK    1  A    between atoms: C_1  and  O_2
REMARK    2  A    between atoms: O_2  and  C_3
REMARK    3  A    between atoms: C_5  and  C_7
REMARK    4  A    between atoms: C_8  and  C_10
REMARK    5  A    between atoms: C_10  and  O_11
REMARK    6  A    between atoms: O_11  and  P_12
REMARK    7  A    between atoms: P_12  and  O_13
REMARK    8  A    between atoms: P_12  and  O_14
REMARK    9  A    between atoms: C_17  and  N_19
REMARK   10  A    between atoms: C_21  and  C_22
REMARK                            x       y       z     vdW  Elec       q    Type
REMARK                         _______ _______ _______ _____ _____    ______ ____
ROOT
ATOM      1  C   UNL     1       7.091  -5.360  23.968  0.00  0.00    +0.173 C 
ATOM      2  C   UNL     1       5.665  -4.909  24.385  0.00  0.00    +0.253 C 
ATOM      3  O   UNL     1       5.257  -3.872  23.464  0.00  0.00    -0.348 OA
ATOM      4  C   UNL     1       6.312  -3.654  22.519  0.00  0.00    +0.152 C 
ATOM      5  C   UNL     1       7.169  -4.925  22.510  0.00  0.00    +0.050 C 
ATOM      6  C   UNL     1       6.610  -5.991  21.564  0.00  0.00    +0.013 C 
ENDROOT
BRANCH   2   7
ATOM      7  N   UNL     1       4.658  -5.973  24.439  0.00  0.00    -0.271 N 
ATOM      8  C   UNL     1       4.650  -6.790  25.563  0.00  0.00    +0.331 A 
ATOM      9  O   UNL     1       5.480  -6.721  26.466  0.00  0.00    -0.246 OA
ATOM     10  N   UNL     1       3.629  -7.692  25.638  0.00  0.00    -0.275 N 
ATOM     11  H   UNL     1       3.582  -8.254  26.474  0.00  0.00    +0.173 HD
ATOM     12  C   UNL     1       2.537  -7.738  24.819  0.00  0.00    +0.257 A 
ATOM     13  O   UNL     1       1.561  -8.437  25.061  0.00  0.00    -0.267 OA
ATOM     14  C   UNL     1       2.601  -6.872  23.619  0.00  0.00    +0.030 A 
ATOM     15  C   UNL     1       1.477  -6.936  22.644  0.00  0.00    +0.051 C 
ATOM     16  C   UNL     1       3.644  -6.043  23.497  0.00  0.00    +0.102 A 
ENDBRANCH   2   7
BRANCH   1  18
ATOM     17  C   UNL     1       8.498  -5.180  25.902  0.00  0.00    +0.194 C 
ATOM     18  O   UNL     1       8.111  -4.613  24.658  0.00  0.00    -0.375 OA
ENDBRANCH   1  18
BRANCH   4  19
ATOM     19  C   UNL     1       7.077  -2.381  22.911  0.00  0.00    +0.204 C 
BRANCH  19  20
ATOM     20  O   UNL     1       8.289  -2.347  22.186  0.00  0.00    -0.284 OA
BRANCH  20  21
ATOM     21  P   UNL     1       9.568  -1.659  22.847  0.00  0.00    +0.472 P 
ATOM     22  O   UNL     1       9.323  -0.402  23.602  0.00  0.00    -0.228 OA
BRANCH  21  23
ATOM     23  O   UNL     1      10.574  -1.506  21.619  0.00  0.00    -0.303 OA
ATOM     24  H   UNL     1      11.483  -1.707  21.913  0.00  0.00    +0.222 HD
ENDBRANCH  21  23
BRANCH  21  25
ATOM     25  O   UNL     1      10.175  -2.872  23.679  0.00  0.00    -0.303 OA
ATOM     26  H   UNL     1      10.867  -2.542  24.280  0.00  0.00    +0.222 HD
ENDBRANCH  21  25
ENDBRANCH  20  21
ENDBRANCH  19  20
ENDBRANCH   4  19
TORSDOF 7
ENDMDL
MODEL 3
REMARK VINA RESULT:      -6.6      3.309      7.417
REMARK  Name = 
REMARK  10 active torsions:
REMARK  status: ('A' for Active; 'I' for Inactive)
REMARK    1  A    between atoms: C_1  and  O_2
REMARK    2  A    between atoms: O_2  and  C_3
REMARK    3  A    between atoms: C_5  and  C_7
REMARK    4  A    between atoms: C_8  and  C_10
REMARK    5  A    between atoms: C_10  and  O_11
REMARK    6  A    between atoms: O_11  and  P_12
REMARK    7  A    between atoms: P_12  and  O_13
REMARK    8  A    between atoms: P_12  and  O_14
REMARK    9  A    between atoms: C_17  and  N_19
REMARK   10  A    between atoms: C_21  and  C_22
REMARK                            x       y       z     vdW  Elec       q    Type
REMARK                         _______ _______ _______ _____ _____    ______ ____
ROOT
ATOM      1  C   UNL     1       7.494  -4.795  24.428  0.00  0.00    +0.173 C 
ATOM      2  C   UNL     1       7.266  -3.275  24.649  0.00  0.00    +0.253 C 
ATOM      3  O   UNL     1       7.318  -3.038  26.074  0.00  0.00    -0.348 OA
ATOM      4  C   UNL     1       7.560  -4.283  26.740  0.00  0.00    +0.152 C 
ATOM      5  C   UNL     1       8.198  -5.221  25.710  0.00  0.00    +0.050 C 
ATOM      6  C   UNL     1       9.715  -5.033  25.620  0.00  0.00    +0.013 C 
ENDROOT
BRANCH   2   7
ATOM      7  N   UNL     1       8.201  -2.389  23.947  0.00  0.00    -0.271 N 
ATOM      8  C   UNL     1       8.064  -2.280  22.568  0.00  0.00    +0.331 A 
ATOM      9  O   UNL     1       7.267  -2.936  21.905  0.00  0.00    -0.246 OA
ATOM     10  N   UNL     1       8.869  -1.360  21.961  0.00  0.00    -0.275 N 
ATOM     11  H   UNL     1       8.743  -1.234  20.968  0.00  0.00    +0.173 HD
ATOM     12  C   UNL     1       9.645  -0.430  22.593  0.00  0.00    +0.257 A 
ATOM     13  O   UNL     1      10.182   0.495  21.996  0.00  0.00    -0.267 OA
ATOM     14  C   UNL     1       9.784  -0.602  24.058  0.00  0.00    +0.030 A 
ATOM     15  C   UNL     1      10.681   0.331  24.794  0.00  0.00    +0.051 C 
ATOM     16  C   UNL     1       9.060  -1.559  24.649  0.00  0.00    +0.102 A 
ENDBRANCH   2   7
BRANCH   1  18
ATOM     17  C   UNL     1       5.819  -5.872  23.092  0.00  0.00    +0.194 C 
ATOM     18  O   UNL     1       6.252  -5.523  24.399  0.00  0.00    -0.375 OA
ENDBRANCH   1  18
BRANCH   4  19
ATOM     19  C   UNL     1       6.238  -4.799  27.328  0.00  0.00    +0.204 C 
BRANCH  19  20
ATOM     20  O   UNL     1       6.402  -6.158  27.674  0.00  0.00    -0.284 OA
BRANCH  20  21
ATOM     21  P   UNL     1       6.024  -6.633  29.150  0.00  0.00    +0.472 P 
ATOM     22  O   UNL     1       5.960  -5.570  30.187  0.00  0.00    -0.228 OA
BRANCH  21  23
ATOM     23  O   UNL     1       7.090  -7.781  29.447  0.00  0.00    -0.303 OA
ATOM     24  H   UNL     1       6.823  -8.278  30.243  0.00  0.00    +0.222 HD
ENDBRANCH  21  23
BRANCH  21  25
ATOM     25  O   UNL     1       4.676  -7.435  28.880  0.00  0.00    -0.303 OA
ATOM     26  H   UNL     1       4.649  -7.723  27.950  0.00  0.00    +0.222 HD
ENDBRANCH  21  25
ENDBRANCH  20  21
ENDBRANCH  19  20
ENDBRANCH   4  19
TORSDOF 7
ENDMDL
MODEL 4
REMARK VINA RESULT:      -6.6      3.096      7.001
REMARK  Name = 
REMARK  10 active torsions:
REMARK  status: ('A' for Active; 'I' for Inactive)
REMARK    1  A    between atoms: C_1  and  O_2
REMARK    2  A    between atoms: O_2  and  C_3
REMARK    3  A    between atoms: C_5  and  C_7
REMARK    4  A    between atoms: C_8  and  C_10
REMARK    5  A    between atoms: C_10  and  O_11
REMARK    6  A    between atoms: O_11  and  P_12
REMARK    7  A    between atoms: P_12  and  O_13
REMARK    8  A    between atoms: P_12  and  O_14
REMARK    9  A    between atoms: C_17  and  N_19
REMARK   10  A    between atoms: C_21  and  C_22
REMARK                            x       y       z     vdW  Elec       q    Type
REMARK                         _______ _______ _______ _____ _____    ______ ____
ROOT
ATOM      1  C   UNL     1       8.544  -3.084  26.017  0.00  0.00    +0.173 C 
ATOM      2  C   UNL     1       8.191  -3.080  24.506  0.00  0.00    +0.253 C 
ATOM      3  O   UNL     1       6.784  -3.394  24.394  0.00  0.00    -0.348 OA
ATOM      4  C   UNL     1       6.249  -3.586  25.709  0.00  0.00    +0.152 C 
ATOM      5  C   UNL     1       7.190  -2.866  26.681  0.00  0.00    +0.050 C 
ATOM      6  C   UNL     1       6.852  -1.379  26.816  0.00  0.00    +0.013 C 
ENDROOT
BRANCH   2   7
ATOM      7  N   UNL     1       8.498  -1.837  23.790  0.00  0.00    -0.271 N 
ATOM      8  C   UNL     1       9.718  -1.767  23.127  0.00  0.00    +0.331 A 
ATOM      9  O   UNL     1      10.575  -2.645  23.173  0.00  0.00    -0.246 OA
ATOM     10  N   UNL     1       9.923  -0.647  22.374  0.00  0.00    -0.275 N 
ATOM     11  H   UNL     1      10.781  -0.608  21.846  0.00  0.00    +0.173 HD
ATOM     12  C   UNL     1       8.986   0.301  22.073  0.00  0.00    +0.257 A 
ATOM     13  O   UNL     1       9.175   1.169  21.230  0.00  0.00    -0.267 OA
ATOM     14  C   UNL     1       7.713   0.202  22.824  0.00  0.00    +0.030 A 
ATOM     15  C   UNL     1       6.681   1.252  22.600  0.00  0.00    +0.051 C 
ATOM     16  C   UNL     1       7.538  -0.852  23.630  0.00  0.00    +0.102 A 
ENDBRANCH   2   7
BRANCH   1  18
ATOM     17  C   UNL     1       9.788  -5.069  25.501  0.00  0.00    +0.194 C 
ATOM     18  O   UNL     1       8.995  -4.380  26.457  0.00  0.00    -0.375 OA
ENDBRANCH   1  18
BRANCH   4  19
ATOM     19  C   UNL     1       6.104  -5.092  25.973  0.00  0.00    +0.204 C 
BRANCH  19  20
ATOM     20  O   UNL     1       5.345  -5.269  27.150  0.00  0.00    -0.284 OA
BRANCH  20  21
ATOM     21  P   UNL     1       6.013  -6.006  28.399  0.00  0.00    +0.472 P 
ATOM     22  O   UNL     1       5.872  -5.328  29.714  0.00  0.00    -0.228 OA
BRANCH  21  23
ATOM     23  O   UNL     1       7.521  -6.225  27.928  0.00  0.00    -0.303 OA
ATOM     24  H   UNL     1       8.097  -6.327  28.710  0.00  0.00    +0.222 HD
ENDBRANCH  21  23
BRANCH  21  25
ATOM     25  O   UNL     1       5.370  -7.457  28.282  0.00  0.00    -0.303 OA
ATOM     26  H   UNL     1       5.887  -7.993  27.654  0.00  0.00    +0.222 HD
ENDBRANCH  21  25
ENDBRANCH  20  21
ENDBRANCH  19  20
ENDBRANCH   4  19
TORSDOF 7
ENDMDL
MODEL 5
REMARK VINA RESULT:      -6.5      2.783      4.073
REMARK  Name = 
REMARK  10 active torsions:
REMARK  status: ('A' for Active; 'I' for Inactive)
REMARK    1  A    between atoms: C_1  and  O_2
REMARK    2  A    between atoms: O_2  and  C_3
REMARK    3  A    between atoms: C_5  and  C_7
REMARK    4  A    between atoms: C_8  and  C_10
REMARK    5  A    between atoms: C_10  and  O_11
REMARK    6  A    between atoms: O_11  and  P_12
REMARK    7  A    between atoms: P_12  and  O_13
REMARK    8  A    between atoms: P_12  and  O_14
REMARK    9  A    between atoms: C_17  and  N_19
REMARK   10  A    between atoms: C_21  and  C_22
REMARK                            x       y       z     vdW  Elec       q    Type
REMARK                         _______ _______ _______ _____ _____    ______ ____
ROOT
ATOM      1  C   UNL     1       8.117  -1.935  25.010  0.00  0.00    +0.173 C 
ATOM      2  C   UNL     1       7.333  -1.980  23.671  0.00  0.00    +0.253 C 
ATOM      3  O   UNL     1       8.308  -2.063  22.606  0.00  0.00    -0.348 OA
ATOM      4  C   UNL     1       9.620  -2.075  23.183  0.00  0.00    +0.152 C 
ATOM      5  C   UNL     1       9.463  -2.542  24.634  0.00  0.00    +0.050 C 
ATOM      6  C   UNL     1       9.454  -4.069  24.750  0.00  0.00    +0.013 C 
ENDROOT
BRANCH   2   7
ATOM      7  N   UNL     1       6.351  -3.063  23.553  0.00  0.00    -0.271 N 
ATOM      8  C   UNL     1       5.136  -2.898  24.208  0.00  0.00    +0.331 A 
ATOM      9  O   UNL     1       4.874  -1.945  24.936  0.00  0.00    -0.246 OA
ATOM     10  N   UNL     1       4.201  -3.866  23.981  0.00  0.00    -0.275 N 
ATOM     11  H   UNL     1       3.298  -3.731  24.409  0.00  0.00    +0.173 HD
ATOM     12  C   UNL     1       4.283  -4.860  23.048  0.00  0.00    +0.257 A 
ATOM     13  O   UNL     1       3.329  -5.570  22.755  0.00  0.00    -0.267 OA
ATOM     14  C   UNL     1       5.604  -5.016  22.396  0.00  0.00    +0.030 A 
ATOM     15  C   UNL     1       5.783  -6.133  21.427  0.00  0.00    +0.051 C 
ATOM     16  C   UNL     1       6.554  -4.117  22.677  0.00  0.00    +0.102 A 
ENDBRANCH   2   7
BRANCH   1  18
ATOM     17  C   UNL     1       8.837  -0.468  26.766  0.00  0.00    +0.194 C 
ATOM     18  O   UNL     1       8.395  -0.582  25.420  0.00  0.00    -0.375 OA
ENDBRANCH   1  18
BRANCH   4  19
ATOM     19  C   UNL     1      10.241  -0.677  23.035  0.00  0.00    +0.204 C 
BRANCH  19  20
ATOM     20  O   UNL     1       9.650  -0.041  21.921  0.00  0.00    -0.284 OA
BRANCH  20  21
ATOM     21  P   UNL     1       9.108   1.451  22.079  0.00  0.00    +0.472 P 
ATOM     22  O   UNL     1       7.813   1.754  21.415  0.00  0.00    -0.228 OA
BRANCH  21  23
ATOM     23  O   UNL     1      10.332   2.339  21.572  0.00  0.00    -0.303 OA
ATOM     24  H   UNL     1      10.807   2.711  22.340  0.00  0.00    +0.222 HD
ENDBRANCH  21  23
BRANCH  21  25
ATOM     25  O   UNL     1       9.146   1.629  23.660  0.00  0.00    -0.303 OA
ATOM     26  H   UNL     1       8.242   1.571  24.017  0.00  0.00    +0.222 HD
ENDBRANCH  21  25
ENDBRANCH  20  21
ENDBRANCH  19  20
ENDBRANCH   4  19
TORSDOF 7
ENDMDL
MODEL 6
REMARK VINA RESULT:      -6.2      3.913      7.257
REMARK  Name = 
REMARK  10 active torsions:
REMARK  status: ('A' for Active; 'I' for Inactive)
REMARK    1  A    between atoms: C_1  and  O_2
REMARK    2  A    between atoms: O_2  and  C_3
REMARK    3  A    between atoms: C_5  and  C_7
REMARK    4  A    between atoms: C_8  and  C_10
REMARK    5  A    between atoms: C_10  and  O_11
REMARK    6  A    between atoms: O_11  and  P_12
REMARK    7  A    between atoms: P_12  and  O_13
REMARK    8  A    between atoms: P_12  and  O_14
REMARK    9  A    between atoms: C_17  and  N_19
REMARK   10  A    between atoms: C_21  and  C_22
REMARK                            x       y       z     vdW  Elec       q    Type
REMARK                         _______ _______ _______ _____ _____    ______ ____
ROOT
ATOM      1  C   UNL     1       8.237  -3.566  24.108  0.00  0.00    +0.173 C 
ATOM      2  C   UNL     1       8.134  -2.873  22.723  0.00  0.00    +0.253 C 
ATOM      3  O   UNL     1       6.790  -3.088  22.236  0.00  0.00    -0.348 OA
ATOM      4  C   UNL     1       6.065  -3.852  23.207  0.00  0.00    +0.152 C 
ATOM      5  C   UNL     1       6.782  -3.661  24.548  0.00  0.00    +0.050 C 
ATOM      6  C   UNL     1       6.319  -2.394  25.274  0.00  0.00    +0.013 C 
ENDROOT
BRANCH   2   7
ATOM      7  N   UNL     1       8.462  -1.443  22.708  0.00  0.00    -0.271 N 
ATOM      8  C   UNL     1       9.790  -1.095  22.487  0.00  0.00    +0.331 A 
ATOM      9  O   UNL     1      10.704  -1.908  22.384  0.00  0.00    -0.246 OA
ATOM     10  N   UNL     1      10.042   0.240  22.360  0.00  0.00    -0.275 N 
ATOM     11  H   UNL     1      10.992   0.503  22.148  0.00  0.00    +0.173 HD
ATOM     12  C   UNL     1       9.104   1.228  22.250  0.00  0.00    +0.257 A 
ATOM     13  O   UNL     1       9.391   2.377  21.935  0.00  0.00    -0.267 OA
ATOM     14  C   UNL     1       7.708   0.816  22.521  0.00  0.00    +0.030 A 
ATOM     15  C   UNL     1       6.648   1.863  22.495  0.00  0.00    +0.051 C 
ATOM     16  C   UNL     1       7.464  -0.483  22.729  0.00  0.00    +0.102 A 
ENDBRANCH   2   7
BRANCH   1  18
ATOM     17  C   UNL     1       9.213  -5.463  25.204  0.00  0.00    +0.194 C 
ATOM     18  O   UNL     1       8.704  -4.924  23.993  0.00  0.00    -0.375 OA
ENDBRANCH   1  18
BRANCH   4  19
ATOM     19  C   UNL     1       5.988  -5.312  22.737  0.00  0.00    +0.204 C 
BRANCH  19  20
ATOM     20  O   UNL     1       5.436  -6.090  23.778  0.00  0.00    -0.284 OA
BRANCH  20  21
ATOM     21  P   UNL     1       3.851  -6.248  23.871  0.00  0.00    +0.472 P 
ATOM     22  O   UNL     1       3.064  -5.640  22.766  0.00  0.00    -0.228 OA
BRANCH  21  23
ATOM     23  O   UNL     1       3.512  -5.668  25.318  0.00  0.00    -0.303 OA
ATOM     24  H   UNL     1       4.340  -5.501  25.806  0.00  0.00    +0.222 HD
ENDBRANCH  21  23
BRANCH  21  25
ATOM     25  O   UNL     1       3.708  -7.822  24.055  0.00  0.00    -0.303 OA
ATOM     26  H   UNL     1       2.807  -8.034  24.360  0.00  0.00    +0.222 HD
ENDBRANCH  21  25
ENDBRANCH  20  21
ENDBRANCH  19  20
ENDBRANCH   4  19
TORSDOF 7
ENDMDL
MODEL 7
REMARK VINA RESULT:      -6.2      3.790      7.019
REMARK  Name = 
REMARK  10 active torsions:
REMARK  status: ('A' for Active; 'I' for Inactive)
REMARK    1  A    between atoms: C_1  and  O_2
REMARK    2  A    between atoms: O_2  and  C_3
REMARK    3  A    between atoms: C_5  and  C_7
REMARK    4  A    between atoms: C_8  and  C_10
REMARK    5  A    between atoms: C_10  and  O_11
REMARK    6  A    between atoms: O_11  and  P_12
REMARK    7  A    between atoms: P_12  and  O_13
REMARK    8  A    between atoms: P_12  and  O_14
REMARK    9  A    between atoms: C_17  and  N_19
REMARK   10  A    between atoms: C_21  and  C_22
REMARK                            x       y       z     vdW  Elec       q    Type
REMARK                         _______ _______ _______ _____ _____    ______ ____
ROOT
ATOM      1  C   UNL     1       8.160  -2.183  24.906  0.00  0.00    +0.173 C 
ATOM      2  C   UNL     1       8.640  -1.448  23.625  0.00  0.00    +0.253 C 
ATOM      3  O   UNL     1       7.801  -1.894  22.536  0.00  0.00    -0.348 OA
ATOM      4  C   UNL     1       6.849  -2.838  23.044  0.00  0.00    +0.152 C 
ATOM      5  C   UNL     1       6.734  -2.584  24.551  0.00  0.00    +0.050 C 
ATOM      6  C   UNL     1       5.730  -1.475  24.874  0.00  0.00    +0.013 C 
ENDROOT
BRANCH   2   7
ATOM      7  N   UNL     1       8.642   0.017  23.704  0.00  0.00    -0.271 N 
ATOM      8  C   UNL     1       9.688   0.617  24.395  0.00  0.00    +0.331 A 
ATOM      9  O   UNL     1      10.555  -0.005  25.003  0.00  0.00    -0.246 OA
ATOM     10  N   UNL     1       9.728   1.981  24.349  0.00  0.00    -0.275 N 
ATOM     11  H   UNL     1      10.510   2.426  24.803  0.00  0.00    +0.173 HD
ATOM     12  C   UNL     1       8.958   2.780  23.552  0.00  0.00    +0.257 A 
ATOM     13  O   UNL     1       9.180   3.976  23.407  0.00  0.00    -0.267 OA
ATOM     14  C   UNL     1       7.839   2.102  22.857  0.00  0.00    +0.030 A 
ATOM     15  C   UNL     1       6.914   2.932  22.036  0.00  0.00    +0.051 C 
ATOM     16  C   UNL     1       7.745   0.772  22.966  0.00  0.00    +0.102 A 
ENDBRANCH   2   7
BRANCH   1  18
ATOM     17  C   UNL     1       8.565  -4.063  26.340  0.00  0.00    +0.194 C 
ATOM     18  O   UNL     1       8.877  -3.416  25.114  0.00  0.00    -0.375 OA
ENDBRANCH   1  18
BRANCH   4  19
ATOM     19  C   UNL     1       7.310  -4.257  22.677  0.00  0.00    +0.204 C 
BRANCH  19  20
ATOM     20  O   UNL     1       6.536  -5.182  23.411  0.00  0.00    -0.284 OA
BRANCH  20  21
ATOM     21  P   UNL     1       5.203  -5.767  22.757  0.00  0.00    +0.472 P 
ATOM     22  O   UNL     1       4.039  -4.845  22.697  0.00  0.00    -0.228 OA
BRANCH  21  23
ATOM     23  O   UNL     1       4.944  -7.102  23.593  0.00  0.00    -0.303 OA
ATOM     24  H   UNL     1       4.239  -6.945  24.249  0.00  0.00    +0.222 HD
ENDBRANCH  21  23
BRANCH  21  25
ATOM     25  O   UNL     1       5.752  -6.301  21.362  0.00  0.00    -0.303 OA
ATOM     26  H   UNL     1       5.009  -6.416  20.742  0.00  0.00    +0.222 HD
ENDBRANCH  21  25
ENDBRANCH  20  21
ENDBRANCH  19  20
ENDBRANCH   4  19
TORSDOF 7
ENDMDL
MODEL 8
REMARK VINA RESULT:      -6.2      2.640      4.068
REMARK  Name = 
REMARK  10 active torsions:
REMARK  status: ('A' for Active; 'I' for Inactive)
REMARK    1  A    between atoms: C_1  and  O_2
REMARK    2  A    between atoms: O_2  and  C_3
REMARK    3  A    between atoms: C_5  and  C_7
REMARK    4  A    between atoms: C_8  and  C_10
REMARK    5  A    between atoms: C_10  and  O_11
REMARK    6  A    between atoms: O_11  and  P_12
REMARK    7  A    between atoms: P_12  and  O_13
REMARK    8  A    between atoms: P_12  and  O_14
REMARK    9  A    between atoms: C_17  and  N_19
REMARK   10  A    between atoms: C_21  and  C_22
REMARK                            x       y       z     vdW  Elec       q    Type
REMARK                         _______ _______ _______ _____ _____    ______ ____
ROOT
ATOM      1  C   UNL     1       8.799   1.108  23.872  0.00  0.00    +0.173 C 
ATOM      2  C   UNL     1       7.624   0.112  24.071  0.00  0.00    +0.253 C 
ATOM      3  O   UNL     1       6.669   0.361  23.015  0.00  0.00    -0.348 OA
ATOM      4  C   UNL     1       7.163   1.421  22.187  0.00  0.00    +0.152 C 
ATOM      5  C   UNL     1       8.679   1.482  22.400  0.00  0.00    +0.050 C 
ATOM      6  C   UNL     1       9.428   0.498  21.497  0.00  0.00    +0.013 C 
ENDROOT
BRANCH   2   7
ATOM      7  N   UNL     1       7.999  -1.306  24.102  0.00  0.00    -0.271 N 
ATOM      8  C   UNL     1       8.643  -1.772  25.242  0.00  0.00    +0.331 A 
ATOM      9  O   UNL     1       8.982  -1.054  26.179  0.00  0.00    -0.246 OA
ATOM     10  N   UNL     1       8.870  -3.116  25.290  0.00  0.00    -0.275 N 
ATOM     11  H   UNL     1       9.290  -3.475  26.134  0.00  0.00    +0.173 HD
ATOM     12  C   UNL     1       8.370  -4.047  24.423  0.00  0.00    +0.257 A 
ATOM     13  O   UNL     1       8.443  -5.251  24.636  0.00  0.00    -0.267 OA
ATOM     14  C   UNL     1       7.718  -3.504  23.209  0.00  0.00    +0.030 A 
ATOM     15  C   UNL     1       7.223  -4.467  22.186  0.00  0.00    +0.051 C 
ATOM     16  C   UNL     1       7.565  -2.178  23.117  0.00  0.00    +0.102 A 
ENDBRANCH   2   7
BRANCH   1  18
ATOM     17  C   UNL     1       7.792   2.175  25.770  0.00  0.00    +0.194 C 
ATOM     18  O   UNL     1       8.594   2.330  24.607  0.00  0.00    -0.375 OA
ENDBRANCH   1  18
BRANCH   4  19
ATOM     19  C   UNL     1       6.424   2.719  22.548  0.00  0.00    +0.204 C 
BRANCH  19  20
ATOM     20  O   UNL     1       6.993   3.778  21.808  0.00  0.00    -0.284 OA
BRANCH  20  21
ATOM     21  P   UNL     1       7.293   5.163  22.541  0.00  0.00    +0.472 P 
ATOM     22  O   UNL     1       6.291   5.606  23.546  0.00  0.00    -0.228 OA
BRANCH  21  23
ATOM     23  O   UNL     1       7.505   6.179  21.329  0.00  0.00    -0.303 OA
ATOM     24  H   UNL     1       8.223   5.855  20.753  0.00  0.00    +0.222 HD
ENDBRANCH  21  23
BRANCH  21  25
ATOM     25  O   UNL     1       8.769   4.913  23.082  0.00  0.00    -0.303 OA
ATOM     26  H   UNL     1       8.728   4.439  23.932  0.00  0.00    +0.222 HD
ENDBRANCH  21  25
ENDBRANCH  20  21
ENDBRANCH  19  20
ENDBRANCH   4  19
TORSDOF 7
ENDMDL
MODEL 9
REMARK VINA RESULT:      -6.1      2.267      2.927
REMARK  Name = 
REMARK  10 active torsions:
REMARK  status: ('A' for Active; 'I' for Inactive)
REMARK    1  A    between atoms: C_1  and  O_2
REMARK    2  A    between atoms: O_2  and  C_3
REMARK    3  A    between atoms: C_5  and  C_7
REMARK    4  A    between atoms: C_8  and  C_10
REMARK    5  A    between atoms: C_10  and  O_11
REMARK    6  A    between atoms: O_11  and  P_12
REMARK    7  A    between atoms: P_12  and  O_13
REMARK    8  A    between atoms: P_12  and  O_14
REMARK    9  A    between atoms: C_17  and  N_19
REMARK   10  A    between atoms: C_21  and  C_22
REMARK                            x       y       z     vdW  Elec       q    Type
REMARK                         _______ _______ _______ _____ _____    ______ ____
ROOT
ATOM      1  C   UNL     1       5.873  -4.341  23.257  0.00  0.00    +0.173 C 
ATOM      2  C   UNL     1       7.176  -4.645  24.045  0.00  0.00    +0.253 C 
ATOM      3  O   UNL     1       7.888  -3.395  24.195  0.00  0.00    -0.348 OA
ATOM      4  C   UNL     1       7.129  -2.355  23.567  0.00  0.00    +0.152 C 
ATOM      5  C   UNL     1       5.680  -2.847  23.489  0.00  0.00    +0.050 C 
ATOM      6  C   UNL     1       4.905  -2.564  24.779  0.00  0.00    +0.013 C 
ENDROOT
BRANCH   2   7
ATOM      7  N   UNL     1       6.987  -5.287  25.351  0.00  0.00    -0.271 N 
ATOM      8  C   UNL     1       8.097  -5.381  26.182  0.00  0.00    +0.331 A 
ATOM      9  O   UNL     1       9.229  -5.033  25.857  0.00  0.00    -0.246 OA
ATOM     10  N   UNL     1       7.864  -5.874  27.433  0.00  0.00    -0.275 N 
ATOM     11  H   UNL     1       8.650  -5.899  28.064  0.00  0.00    +0.173 HD
ATOM     12  C   UNL     1       6.637  -6.105  27.990  0.00  0.00    +0.257 A 
ATOM     13  O   UNL     1       6.490  -6.353  29.181  0.00  0.00    -0.267 OA
ATOM     14  C   UNL     1       5.487  -6.020  27.060  0.00  0.00    +0.030 A 
ATOM     15  C   UNL     1       4.132  -6.340  27.587  0.00  0.00    +0.051 C 
ATOM     16  C   UNL     1       5.721  -5.617  25.806  0.00  0.00    +0.102 A 
ENDBRANCH   2   7
BRANCH   1  18
ATOM     17  C   UNL     1       6.463  -5.805  21.451  0.00  0.00    +0.194 C 
ATOM     18  O   UNL     1       6.058  -4.499  21.838  0.00  0.00    -0.375 OA
ENDBRANCH   1  18
BRANCH   4  19
ATOM     19  C   UNL     1       7.758  -2.033  22.202  0.00  0.00    +0.204 C 
BRANCH  19  20
ATOM     20  O   UNL     1       8.251  -0.710  22.238  0.00  0.00    -0.284 OA
BRANCH  20  21
ATOM     21  P   UNL     1       9.797  -0.468  22.547  0.00  0.00    +0.472 P 
ATOM     22  O   UNL     1      10.197  -0.507  23.978  0.00  0.00    -0.228 OA
BRANCH  21  23
ATOM     23  O   UNL     1      10.102   0.916  21.815  0.00  0.00    -0.303 OA
ATOM     24  H   UNL     1      10.532   1.530  22.441  0.00  0.00    +0.222 HD
ENDBRANCH  21  23
BRANCH  21  25
ATOM     25  O   UNL     1      10.475  -1.550  21.597  0.00  0.00    -0.303 OA
ATOM     26  H   UNL     1       9.799  -2.173  21.278  0.00  0.00    +0.222 HD
ENDBRANCH  21  25
ENDBRANCH  20  21
ENDBRANCH  19  20
ENDBRANCH   4  19
TORSDOF 7
ENDMDL
