MODEL 1
REMARK VINA RESULT:      -6.9      0.000      0.000
REMARK  Name = 
REMARK  9 active torsions:
REMARK  status: ('A' for Active; 'I' for Inactive)
REMARK    1  A    between atoms: C_1  and  C_2
REMARK    2  A    between atoms: C_2  and  C_3
REMARK    3  A    between atoms: C_2  and  C_4
REMARK    4  A    between atoms: C_7  and  C_11
REMARK    5  A    between atoms: N_13  and  CA_14
REMARK    6  A    between atoms: CA_14  and  CB_16
REMARK    7  A    between atoms: CA_14  and  C_23
REMARK    8  A    between atoms: CB_16  and  CG_17
REMARK    9  A    between atoms: C_23  and  O_24
REMARK                            x       y       z     vdW  Elec       q    Type
REMARK                         _______ _______ _______ _____ _____    ______ ____
ROOT
ATOM      1  C   UNK A   0       9.780  -1.615  23.156  0.00  0.00    +0.217 C 
ATOM      2  N   PHE A   1       9.577  -2.243  24.378  0.00  0.00    -0.302 N 
ATOM      3  H   PHE A   1       9.326  -1.624  25.144  0.00  0.00    +0.150 HD
ATOM      4  O   UNK A   0       9.545  -2.176  22.092  0.00  0.00    -0.275 OA
ENDROOT
BRANCH   1   8
ATOM      5  C   UNK A   0       8.066   1.857  23.411  0.00  0.00    -0.008 C 
ATOM      6  C   UNK A   0       8.466   0.969  24.605  0.00  0.00    +0.004 C 
ATOM      7  C   UNK A   0       9.928   0.516  24.566  0.00  0.00    +0.013 C 
ATOM      8  C   UNK A   0      10.322  -0.179  23.252  0.00  0.00    +0.075 C 
ATOM      9  C   UNK A   0       9.897   0.664  22.043  0.00  0.00    +0.013 C 
ATOM     10  C   UNK A   0       8.431   1.105  22.111  0.00  0.00    +0.004 C 
BRANCH   5  12
ATOM     11  C   UNK A   0       7.801   4.275  22.603  0.00  0.00    +0.007 C 
ATOM     12  C   UNK A   0       8.629   3.313  23.472  0.00  0.00    -0.014 C 
ATOM     13  C   UNK A   0       8.650   3.890  24.896  0.00  0.00    +0.007 C 
ENDBRANCH   5  12
ENDBRANCH   1   8
BRANCH   2  14
ATOM     14  CA  PHE A   1       8.977  -3.600  24.404  0.00  0.00    +0.186 C 
BRANCH  14  15
ATOM     15  C   PHE A   1       9.601  -4.484  25.498  0.00  0.00    +0.326 C 
ATOM     16  OXT PHE A   1       9.248  -4.512  26.667  0.00  0.00    -0.249 OA
BRANCH  15  17
ATOM     17  O   PHE A   1      10.546  -5.331  25.013  0.00  0.00    -0.479 OA
ATOM     18  H   PHE A   1      10.198  -6.245  24.983  0.00  0.00    +0.295 HD
ENDBRANCH  15  17
ENDBRANCH  14  15
BRANCH  14  19
ATOM     19  CB  PHE A   1       7.437  -3.613  24.495  0.00  0.00    +0.069 C 
BRANCH  19  20
ATOM     20  CG  PHE A   1       6.761  -4.537  23.510  0.00  0.00    -0.045 A 
ATOM     21  CD2 PHE A   1       5.400  -4.847  23.643  0.00  0.00    +0.004 A 
ATOM     22  CE2 PHE A   1       4.778  -5.698  22.729  0.00  0.00    +0.000 A 
ATOM     23  CZ  PHE A   1       5.509  -6.246  21.677  0.00  0.00    +0.000 A 
ATOM     24  CE1 PHE A   1       6.864  -5.951  21.540  0.00  0.00    +0.000 A 
ATOM     25  CD1 PHE A   1       7.488  -5.101  22.454  0.00  0.00    +0.004 A 
ENDBRANCH  19  20
ENDBRANCH  14  19
ENDBRANCH   2  14
TORSDOF 7
ENDMDL
MODEL 2
REMARK VINA RESULT:      -6.9      1.933      2.860
REMARK  Name = 
REMARK  9 active torsions:
REMARK  status: ('A' for Active; 'I' for Inactive)
REMARK    1  A    between atoms: C_1  and  C_2
REMARK    2  A    between atoms: C_2  and  C_3
REMARK    3  A    between atoms: C_2  and  C_4
REMARK    4  A    between atoms: C_7  and  C_11
REMARK    5  A    between atoms: N_13  and  CA_14
REMARK    6  A    between atoms: CA_14  and  CB_16
REMARK    7  A    between atoms: CA_14  and  C_23
REMARK    8  A    between atoms: CB_16  and  CG_17
REMARK    9  A    between atoms: C_23  and  O_24
REMARK                            x       y       z     vdW  Elec       q    Type
REMARK                         _______ _______ _______ _____ _____    ______ ____
ROOT
ATOM      1  C   UNK A   0       8.909  -3.685  25.121  0.00  0.00    +0.217 C 
ATOM      2  N   PHE A   1       7.777  -3.736  25.923  0.00  0.00    -0.302 N 
ATOM      3  H   PHE A   1       7.164  -2.927  25.856  0.00  0.00    +0.150 HD
ATOM      4  O   UNK A   0       9.424  -4.698  24.662  0.00  0.00    -0.275 OA
ENDROOT
BRANCH   1   8
ATOM      5  C   UNK A   0       7.772  -0.774  22.819  0.00  0.00    -0.008 C 
ATOM      6  C   UNK A   0       7.304  -1.001  24.270  0.00  0.00    +0.004 C 
ATOM      7  C   UNK A   0       8.457  -1.169  25.263  0.00  0.00    +0.013 C 
ATOM      8  C   UNK A   0       9.455  -2.270  24.867  0.00  0.00    +0.075 C 
ATOM      9  C   UNK A   0       9.906  -2.095  23.411  0.00  0.00    +0.013 C 
ATOM     10  C   UNK A   0       8.732  -1.925  22.441  0.00  0.00    +0.004 C 
BRANCH   5  12
ATOM     11  C   UNK A   0       9.325   0.636  21.348  0.00  0.00    +0.007 C 
ATOM     12  C   UNK A   0       8.358   0.646  22.544  0.00  0.00    -0.014 C 
ATOM     13  C   UNK A   0       7.275   1.695  22.243  0.00  0.00    +0.007 C 
ENDBRANCH   5  12
ENDBRANCH   1   8
BRANCH   2  14
ATOM     14  CA  PHE A   1       7.116  -5.043  26.163  0.00  0.00    +0.186 C 
BRANCH  14  15
ATOM     15  C   PHE A   1       6.884  -5.303  27.662  0.00  0.00    +0.326 C 
ATOM     16  OXT PHE A   1       6.087  -4.702  28.366  0.00  0.00    -0.249 OA
BRANCH  15  17
ATOM     17  O   PHE A   1       7.596  -6.363  28.128  0.00  0.00    -0.479 OA
ATOM     18  H   PHE A   1       7.183  -6.717  28.941  0.00  0.00    +0.295 HD
ENDBRANCH  15  17
ENDBRANCH  14  15
BRANCH  14  19
ATOM     19  CB  PHE A   1       5.820  -5.258  25.358  0.00  0.00    +0.069 C 
BRANCH  19  20
ATOM     20  CG  PHE A   1       5.926  -4.896  23.894  0.00  0.00    -0.045 A 
ATOM     21  CD2 PHE A   1       5.296  -3.746  23.398  0.00  0.00    +0.004 A 
ATOM     22  CE2 PHE A   1       5.400  -3.413  22.047  0.00  0.00    +0.000 A 
ATOM     23  CZ  PHE A   1       6.131  -4.224  21.183  0.00  0.00    +0.000 A 
ATOM     24  CE1 PHE A   1       6.754  -5.374  21.664  0.00  0.00    +0.000 A 
ATOM     25  CD1 PHE A   1       6.650  -5.709  23.014  0.00  0.00    +0.004 A 
ENDBRANCH  19  20
ENDBRANCH  14  19
ENDBRANCH   2  14
TORSDOF 7
ENDMDL
MODEL 3
REMARK VINA RESULT:      -6.6      1.291      1.988
REMARK  Name = 
REMARK  9 active torsions:
REMARK  status: ('A' for Active; 'I' for Inactive)
REMARK    1  A    between atoms: C_1  and  C_2
REMARK    2  A    between atoms: C_2  and  C_3
REMARK    3  A    between atoms: C_2  and  C_4
REMARK    4  A    between atoms: C_7  and  C_11
REMARK    5  A    between atoms: N_13  and  CA_14
REMARK    6  A    between atoms: CA_14  and  CB_16
REMARK    7  A    between atoms: CA_14  and  C_23
REMARK    8  A    between atoms: CB_16  and  CG_17
REMARK    9  A    between atoms: C_23  and  O_24
REMARK                            x       y       z     vdW  Elec       q    Type
REMARK                         _______ _______ _______ _____ _____    ______ ____
ROOT
ATOM      1  C   UNK A   0       9.156  -1.525  25.099  0.00  0.00    +0.217 C 
ATOM      2  N   PHE A   1       8.545  -2.348  26.036  0.00  0.00    -0.302 N 
ATOM      3  H   PHE A   1       7.940  -1.871  26.699  0.00  0.00    +0.150 HD
ATOM      4  O   UNK A   0       9.433  -1.921  23.973  0.00  0.00    -0.275 OA
ENDROOT
BRANCH   1   8
ATOM      5  C   UNK A   0       9.317   1.920  23.320  0.00  0.00    -0.008 C 
ATOM      6  C   UNK A   0       8.058   1.301  23.957  0.00  0.00    +0.004 C 
ATOM      7  C   UNK A   0       8.264   0.854  25.407  0.00  0.00    +0.013 C 
ATOM      8  C   UNK A   0       9.456  -0.100  25.593  0.00  0.00    +0.075 C 
ATOM      9  C   UNK A   0      10.716   0.470  24.930  0.00  0.00    +0.013 C 
ATOM     10  C   UNK A   0      10.478   0.913  23.482  0.00  0.00    +0.004 C 
BRANCH   5  12
ATOM     11  C   UNK A   0      11.034   3.822  23.320  0.00  0.00    +0.007 C 
ATOM     12  C   UNK A   0       9.659   3.357  23.827  0.00  0.00    -0.014 C 
ATOM     13  C   UNK A   0       8.631   4.410  23.385  0.00  0.00    +0.007 C 
ENDBRANCH   5  12
ENDBRANCH   1   8
BRANCH   2  14
ATOM     14  CA  PHE A   1       8.134  -3.718  25.639  0.00  0.00    +0.186 C 
BRANCH  14  15
ATOM     15  C   PHE A   1       8.509  -4.763  26.704  0.00  0.00    +0.326 C 
ATOM     16  OXT PHE A   1       7.714  -5.386  27.391  0.00  0.00    -0.249 OA
BRANCH  15  17
ATOM     17  O   PHE A   1       9.844  -5.014  26.747  0.00  0.00    -0.479 OA
ATOM     18  H   PHE A   1      10.082  -5.696  26.088  0.00  0.00    +0.295 HD
ENDBRANCH  15  17
ENDBRANCH  14  15
BRANCH  14  19
ATOM     19  CB  PHE A   1       6.650  -3.846  25.238  0.00  0.00    +0.069 C 
BRANCH  19  20
ATOM     20  CG  PHE A   1       6.413  -4.622  23.963  0.00  0.00    -0.045 A 
ATOM     21  CD2 PHE A   1       7.483  -4.949  23.118  0.00  0.00    +0.004 A 
ATOM     22  CE2 PHE A   1       7.260  -5.669  21.944  0.00  0.00    +0.000 A 
ATOM     23  CZ  PHE A   1       5.970  -6.067  21.605  0.00  0.00    +0.000 A 
ATOM     24  CE1 PHE A   1       4.898  -5.742  22.433  0.00  0.00    +0.000 A 
ATOM     25  CD1 PHE A   1       5.119  -5.020  23.607  0.00  0.00    +0.004 A 
ENDBRANCH  19  20
ENDBRANCH  14  19
ENDBRANCH   2  14
TORSDOF 7
ENDMDL
MODEL 4
REMARK VINA RESULT:      -6.5      2.573      4.880
REMARK  Name = 
REMARK  9 active torsions:
REMARK  status: ('A' for Active; 'I' for Inactive)
REMARK    1  A    between atoms: C_1  and  C_2
REMARK    2  A    between atoms: C_2  and  C_3
REMARK    3  A    between atoms: C_2  and  C_4
REMARK    4  A    between atoms: C_7  and  C_11
REMARK    5  A    between atoms: N_13  and  CA_14
REMARK    6  A    between atoms: CA_14  and  CB_16
REMARK    7  A    between atoms: CA_14  and  C_23
REMARK    8  A    between atoms: CB_16  and  CG_17
REMARK    9  A    between atoms: C_23  and  O_24
REMARK                            x       y       z     vdW  Elec       q    Type
REMARK                         _______ _______ _______ _____ _____    ______ ____
ROOT
ATOM      1  C   UNK A   0       7.878  -1.258  25.967  0.00  0.00    +0.217 C 
ATOM      2  N   PHE A   1       8.065  -1.971  24.790  0.00  0.00    -0.302 N 
ATOM      3  H   PHE A   1       7.638  -1.560  23.965  0.00  0.00    +0.150 HD
ATOM      4  O   UNK A   0       8.707  -1.269  26.869  0.00  0.00    -0.275 OA
ENDROOT
BRANCH   1   8
ATOM      5  C   UNK A   0       6.754   2.180  24.563  0.00  0.00    -0.008 C 
ATOM      6  C   UNK A   0       6.626   0.831  23.830  0.00  0.00    +0.004 C 
ATOM      7  C   UNK A   0       5.924  -0.249  24.658  0.00  0.00    +0.013 C 
ATOM      8  C   UNK A   0       6.558  -0.473  26.041  0.00  0.00    +0.075 C 
ATOM      9  C   UNK A   0       6.738   0.860  26.778  0.00  0.00    +0.013 C 
ATOM     10  C   UNK A   0       7.439   1.922  25.924  0.00  0.00    +0.004 C 
BRANCH   5  12
ATOM     11  C   UNK A   0       5.670   4.434  25.124  0.00  0.00    +0.007 C 
ATOM     12  C   UNK A   0       5.420   2.984  24.677  0.00  0.00    -0.014 C 
ATOM     13  C   UNK A   0       4.640   3.044  23.354  0.00  0.00    +0.007 C 
ENDBRANCH   5  12
ENDBRANCH   1   8
BRANCH   2  14
ATOM     14  CA  PHE A   1       9.342  -2.696  24.577  0.00  0.00    +0.186 C 
BRANCH  14  15
ATOM     15  C   PHE A   1       9.137  -4.221  24.525  0.00  0.00    +0.326 C 
ATOM     16  OXT PHE A   1       8.127  -4.782  24.128  0.00  0.00    -0.249 OA
BRANCH  15  17
ATOM     17  O   PHE A   1      10.251  -4.914  24.880  0.00  0.00    -0.479 OA
ATOM     18  H   PHE A   1      11.046  -4.497  24.493  0.00  0.00    +0.295 HD
ENDBRANCH  15  17
ENDBRANCH  14  15
BRANCH  14  19
ATOM     19  CB  PHE A   1      10.157  -2.207  23.363  0.00  0.00    +0.069 C 
BRANCH  19  20
ATOM     20  CG  PHE A   1      10.162  -0.708  23.177  0.00  0.00    -0.045 A 
ATOM     21  CD2 PHE A   1       9.704  -0.137  21.981  0.00  0.00    +0.004 A 
ATOM     22  CE2 PHE A   1       9.706   1.248  21.814  0.00  0.00    +0.000 A 
ATOM     23  CZ  PHE A   1      10.165   2.073  22.838  0.00  0.00    +0.000 A 
ATOM     24  CE1 PHE A   1      10.629   1.516  24.028  0.00  0.00    +0.000 A 
ATOM     25  CD1 PHE A   1      10.630   0.131  24.196  0.00  0.00    +0.004 A 
ENDBRANCH  19  20
ENDBRANCH  14  19
ENDBRANCH   2  14
TORSDOF 7
ENDMDL
MODEL 5
REMARK VINA RESULT:      -6.5      2.215      6.426
REMARK  Name = 
REMARK  9 active torsions:
REMARK  status: ('A' for Active; 'I' for Inactive)
REMARK    1  A    between atoms: C_1  and  C_2
REMARK    2  A    between atoms: C_2  and  C_3
REMARK    3  A    between atoms: C_2  and  C_4
REMARK    4  A    between atoms: C_7  and  C_11
REMARK    5  A    between atoms: N_13  and  CA_14
REMARK    6  A    between atoms: CA_14  and  CB_16
REMARK    7  A    between atoms: CA_14  and  C_23
REMARK    8  A    between atoms: CB_16  and  CG_17
REMARK    9  A    between atoms: C_23  and  O_24
REMARK                            x       y       z     vdW  Elec       q    Type
REMARK                         _______ _______ _______ _____ _____    ______ ____
ROOT
ATOM      1  C   UNK A   0       9.171  -2.184  22.776  0.00  0.00    +0.217 C 
ATOM      2  N   PHE A   1       8.976  -0.827  22.553  0.00  0.00    -0.302 N 
ATOM      3  H   PHE A   1       8.049  -0.481  22.784  0.00  0.00    +0.150 HD
ATOM      4  O   UNK A   0      10.267  -2.638  23.081  0.00  0.00    -0.275 OA
ENDROOT
BRANCH   1   8
ATOM      5  C   UNK A   0       6.177  -3.007  25.104  0.00  0.00    -0.008 C 
ATOM      6  C   UNK A   0       6.245  -1.822  24.121  0.00  0.00    +0.004 C 
ATOM      7  C   UNK A   0       6.613  -2.235  22.693  0.00  0.00    +0.013 C 
ATOM      8  C   UNK A   0       7.914  -3.051  22.605  0.00  0.00    +0.075 C 
ATOM      9  C   UNK A   0       7.893  -4.214  23.605  0.00  0.00    +0.013 C 
ATOM     10  C   UNK A   0       7.517  -3.773  25.023  0.00  0.00    +0.004 C 
BRANCH   5  12
ATOM     11  C   UNK A   0       5.024  -5.189  25.793  0.00  0.00    +0.007 C 
ATOM     12  C   UNK A   0       4.923  -3.920  24.930  0.00  0.00    -0.014 C 
ATOM     13  C   UNK A   0       3.610  -3.217  25.308  0.00  0.00    +0.007 C 
ENDBRANCH   5  12
ENDBRANCH   1   8
BRANCH   2  14
ATOM     14  CA  PHE A   1      10.103   0.113  22.773  0.00  0.00    +0.186 C 
BRANCH  14  15
ATOM     15  C   PHE A   1       9.874   1.462  22.067  0.00  0.00    +0.326 C 
ATOM     16  OXT PHE A   1      10.462   2.501  22.327  0.00  0.00    -0.249 OA
BRANCH  15  17
ATOM     17  O   PHE A   1       9.002   1.371  21.029  0.00  0.00    -0.479 OA
ATOM     18  H   PHE A   1       8.732   2.263  20.735  0.00  0.00    +0.295 HD
ENDBRANCH  15  17
ENDBRANCH  14  15
BRANCH  14  19
ATOM     19  CB  PHE A   1      10.477   0.322  24.255  0.00  0.00    +0.069 C 
BRANCH  19  20
ATOM     20  CG  PHE A   1       9.296   0.379  25.195  0.00  0.00    -0.045 A 
ATOM     21  CD2 PHE A   1       8.364   1.423  25.104  0.00  0.00    +0.004 A 
ATOM     22  CE2 PHE A   1       7.272   1.471  25.972  0.00  0.00    +0.000 A 
ATOM     23  CZ  PHE A   1       7.104   0.479  26.935  0.00  0.00    +0.000 A 
ATOM     24  CE1 PHE A   1       8.028  -0.558  27.040  0.00  0.00    +0.000 A 
ATOM     25  CD1 PHE A   1       9.121  -0.606  26.174  0.00  0.00    +0.004 A 
ENDBRANCH  19  20
ENDBRANCH  14  19
ENDBRANCH   2  14
TORSDOF 7
ENDMDL
MODEL 6
REMARK VINA RESULT:      -6.2      1.347      2.113
REMARK  Name = 
REMARK  9 active torsions:
REMARK  status: ('A' for Active; 'I' for Inactive)
REMARK    1  A    between atoms: C_1  and  C_2
REMARK    2  A    between atoms: C_2  and  C_3
REMARK    3  A    between atoms: C_2  and  C_4
REMARK    4  A    between atoms: C_7  and  C_11
REMARK    5  A    between atoms: N_13  and  CA_14
REMARK    6  A    between atoms: CA_14  and  CB_16
REMARK    7  A    between atoms: CA_14  and  C_23
REMARK    8  A    between atoms: CB_16  and  CG_17
REMARK    9  A    between atoms: C_23  and  O_24
REMARK                            x       y       z     vdW  Elec       q    Type
REMARK                         _______ _______ _______ _____ _____    ______ ____
ROOT
ATOM      1  C   UNK A   0       9.376  -1.994  23.157  0.00  0.00    +0.217 C 
ATOM      2  N   PHE A   1       8.517  -2.747  23.947  0.00  0.00    -0.302 N 
ATOM      3  H   PHE A   1       7.528  -2.618  23.753  0.00  0.00    +0.150 HD
ATOM      4  O   UNK A   0      10.497  -2.389  22.862  0.00  0.00    -0.275 OA
ENDROOT
BRANCH   1   8
ATOM      5  C   UNK A   0       9.613   1.606  24.588  0.00  0.00    -0.008 C 
ATOM      6  C   UNK A   0      10.595   0.978  23.580  0.00  0.00    +0.004 C 
ATOM      7  C   UNK A   0       9.907   0.377  22.351  0.00  0.00    +0.013 C 
ATOM      8  C   UNK A   0       8.807  -0.641  22.699  0.00  0.00    +0.075 C 
ATOM      9  C   UNK A   0       7.838  -0.059  23.735  0.00  0.00    +0.013 C 
ATOM     10  C   UNK A   0       8.554   0.540  24.950  0.00  0.00    +0.004 C 
BRANCH   5  12
ATOM     11  C   UNK A   0       8.124   3.589  25.232  0.00  0.00    +0.007 C 
ATOM     12  C   UNK A   0       9.000   2.967  24.132  0.00  0.00    -0.014 C 
ATOM     13  C   UNK A   0      10.065   4.010  23.755  0.00  0.00    +0.007 C 
ENDBRANCH   5  12
ENDBRANCH   1   8
BRANCH   2  14
ATOM     14  CA  PHE A   1       8.931  -4.107  24.375  0.00  0.00    +0.186 C 
BRANCH  14  15
ATOM     15  C   PHE A   1       9.055  -4.216  25.905  0.00  0.00    +0.326 C 
ATOM     16  OXT PHE A   1       8.467  -3.511  26.711  0.00  0.00    -0.249 OA
BRANCH  15  17
ATOM     17  O   PHE A   1       9.827  -5.263  26.297  0.00  0.00    -0.479 OA
ATOM     18  H   PHE A   1       9.346  -5.814  26.945  0.00  0.00    +0.295 HD
ENDBRANCH  15  17
ENDBRANCH  14  15
BRANCH  14  19
ATOM     19  CB  PHE A   1       8.059  -5.245  23.809  0.00  0.00    +0.069 C 
BRANCH  19  20
ATOM     20  CG  PHE A   1       6.574  -5.052  24.008  0.00  0.00    -0.045 A 
ATOM     21  CD2 PHE A   1       5.798  -4.427  23.021  0.00  0.00    +0.004 A 
ATOM     22  CE2 PHE A   1       4.426  -4.254  23.207  0.00  0.00    +0.000 A 
ATOM     23  CZ  PHE A   1       3.819  -4.703  24.378  0.00  0.00    +0.000 A 
ATOM     24  CE1 PHE A   1       4.581  -5.318  25.368  0.00  0.00    +0.000 A 
ATOM     25  CD1 PHE A   1       5.954  -5.491  25.185  0.00  0.00    +0.004 A 
ENDBRANCH  19  20
ENDBRANCH  14  19
ENDBRANCH   2  14
TORSDOF 7
ENDMDL
MODEL 7
REMARK VINA RESULT:      -6.1      2.677      3.914
REMARK  Name = 
REMARK  9 active torsions:
REMARK  status: ('A' for Active; 'I' for Inactive)
REMARK    1  A    between atoms: C_1  and  C_2
REMARK    2  A    between atoms: C_2  and  C_3
REMARK    3  A    between atoms: C_2  and  C_4
REMARK    4  A    between atoms: C_7  and  C_11
REMARK    5  A    between atoms: N_13  and  CA_14
REMARK    6  A    between atoms: CA_14  and  CB_16
REMARK    7  A    between atoms: CA_14  and  C_23
REMARK    8  A    between atoms: CB_16  and  CG_17
REMARK    9  A    between atoms: C_23  and  O_24
REMARK                            x       y       z     vdW  Elec       q    Type
REMARK                         _______ _______ _______ _____ _____    ______ ____
ROOT
ATOM      1  C   UNK A   0       7.706   0.920  22.690  0.00  0.00    +0.217 C 
ATOM      2  N   PHE A   1       8.514  -0.205  22.788  0.00  0.00    -0.302 N 
ATOM      3  H   PHE A   1       9.508  -0.015  22.881  0.00  0.00    +0.150 HD
ATOM      4  O   UNK A   0       6.555   0.930  23.110  0.00  0.00    -0.275 OA
ENDROOT
BRANCH   1   8
ATOM      5  C   UNK A   0       9.478   4.087  24.066  0.00  0.00    -0.008 C 
ATOM      6  C   UNK A   0      10.167   2.748  23.740  0.00  0.00    +0.004 C 
ATOM      7  C   UNK A   0       9.871   2.237  22.327  0.00  0.00    +0.013 C 
ATOM      8  C   UNK A   0       8.369   2.132  22.014  0.00  0.00    +0.075 C 
ATOM      9  C   UNK A   0       7.647   3.438  22.370  0.00  0.00    +0.013 C 
ATOM     10  C   UNK A   0       7.966   3.927  23.787  0.00  0.00    +0.004 C 
BRANCH   5  12
ATOM     11  C   UNK A   0       9.345   6.619  23.696  0.00  0.00    +0.007 C 
ATOM     12  C   UNK A   0      10.116   5.329  23.368  0.00  0.00    -0.014 C 
ATOM     13  C   UNK A   0      11.580   5.559  23.771  0.00  0.00    +0.007 C 
ENDBRANCH   5  12
ENDBRANCH   1   8
BRANCH   2  14
ATOM     14  CA  PHE A   1       8.004  -1.404  23.498  0.00  0.00    +0.186 C 
BRANCH  14  15
ATOM     15  C   PHE A   1       7.234  -2.347  22.557  0.00  0.00    +0.326 C 
ATOM     16  OXT PHE A   1       7.721  -3.292  21.955  0.00  0.00    -0.249 OA
BRANCH  15  17
ATOM     17  O   PHE A   1       5.900  -2.089  22.529  0.00  0.00    -0.479 OA
ATOM     18  H   PHE A   1       5.672  -1.414  23.198  0.00  0.00    +0.295 HD
ENDBRANCH  15  17
ENDBRANCH  14  15
BRANCH  14  19
ATOM     19  CB  PHE A   1       9.075  -2.173  24.297  0.00  0.00    +0.069 C 
BRANCH  19  20
ATOM     20  CG  PHE A   1       8.522  -3.221  25.235  0.00  0.00    -0.045 A 
ATOM     21  CD2 PHE A   1       9.056  -4.517  25.250  0.00  0.00    +0.004 A 
ATOM     22  CE2 PHE A   1       8.546  -5.481  26.120  0.00  0.00    +0.000 A 
ATOM     23  CZ  PHE A   1       7.499  -5.158  26.981  0.00  0.00    +0.000 A 
ATOM     24  CE1 PHE A   1       6.955  -3.876  26.970  0.00  0.00    +0.000 A 
ATOM     25  CD1 PHE A   1       7.464  -2.911  26.098  0.00  0.00    +0.004 A 
ENDBRANCH  19  20
ENDBRANCH  14  19
ENDBRANCH   2  14
TORSDOF 7
ENDMDL
MODEL 8
REMARK VINA RESULT:      -6.0      1.560      6.994
REMARK  Name = 
REMARK  9 active torsions:
REMARK  status: ('A' for Active; 'I' for Inactive)
REMARK    1  A    between atoms: C_1  and  C_2
REMARK    2  A    between atoms: C_2  and  C_3
REMARK    3  A    between atoms: C_2  and  C_4
REMARK    4  A    between atoms: C_7  and  C_11
REMARK    5  A    between atoms: N_13  and  CA_14
REMARK    6  A    between atoms: CA_14  and  CB_16
REMARK    7  A    between atoms: CA_14  and  C_23
REMARK    8  A    between atoms: CB_16  and  CG_17
REMARK    9  A    between atoms: C_23  and  O_24
REMARK                            x       y       z     vdW  Elec       q    Type
REMARK                         _______ _______ _______ _____ _____    ______ ____
ROOT
ATOM      1  C   UNK A   0       9.183  -2.683  24.446  0.00  0.00    +0.217 C 
ATOM      2  N   PHE A   1       9.116  -1.309  24.254  0.00  0.00    -0.302 N 
ATOM      3  H   PHE A   1       8.645  -0.793  24.992  0.00  0.00    +0.150 HD
ATOM      4  O   UNK A   0      10.113  -3.353  24.013  0.00  0.00    -0.275 OA
ENDROOT
BRANCH   1   8
ATOM      5  C   UNK A   0       5.954  -4.551  23.375  0.00  0.00    -0.008 C 
ATOM      6  C   UNK A   0       7.307  -5.216  23.695  0.00  0.00    +0.004 C 
ATOM      7  C   UNK A   0       7.884  -4.804  25.052  0.00  0.00    +0.013 C 
ATOM      8  C   UNK A   0       8.004  -3.281  25.232  0.00  0.00    +0.075 C 
ATOM      9  C   UNK A   0       6.683  -2.586  24.878  0.00  0.00    +0.013 C 
ATOM     10  C   UNK A   0       6.128  -3.022  23.517  0.00  0.00    +0.004 C 
BRANCH   5  12
ATOM     11  C   UNK A   0       3.404  -4.736  23.539  0.00  0.00    +0.007 C 
ATOM     12  C   UNK A   0       4.746  -5.122  24.182  0.00  0.00    -0.014 C 
ATOM     13  C   UNK A   0       4.771  -6.654  24.298  0.00  0.00    +0.007 C 
ENDBRANCH   5  12
ENDBRANCH   1   8
BRANCH   2  14
ATOM     14  CA  PHE A   1      10.243  -0.615  23.582  0.00  0.00    +0.186 C 
BRANCH  14  15
ATOM     15  C   PHE A   1       9.971  -0.396  22.083  0.00  0.00    +0.326 C 
ATOM     16  OXT PHE A   1       9.757   0.686  21.557  0.00  0.00    -0.249 OA
BRANCH  15  17
ATOM     17  O   PHE A   1      10.092  -1.537  21.354  0.00  0.00    -0.479 OA
ATOM     18  H   PHE A   1       9.265  -1.714  20.864  0.00  0.00    +0.295 HD
ENDBRANCH  15  17
ENDBRANCH  14  15
BRANCH  14  19
ATOM     19  CB  PHE A   1      10.679   0.698  24.262  0.00  0.00    +0.069 C 
BRANCH  19  20
ATOM     20  CG  PHE A   1       9.543   1.639  24.588  0.00  0.00    -0.045 A 
ATOM     21  CD2 PHE A   1       8.462   1.207  25.370  0.00  0.00    +0.004 A 
ATOM     22  CE2 PHE A   1       7.416   2.081  25.671  0.00  0.00    +0.000 A 
ATOM     23  CZ  PHE A   1       7.442   3.389  25.196  0.00  0.00    +0.000 A 
ATOM     24  CE1 PHE A   1       8.508   3.827  24.412  0.00  0.00    +0.000 A 
ATOM     25  CD1 PHE A   1       9.553   2.954  24.108  0.00  0.00    +0.004 A 
ENDBRANCH  19  20
ENDBRANCH  14  19
ENDBRANCH   2  14
TORSDOF 7
ENDMDL
MODEL 9
REMARK VINA RESULT:      -6.0      2.626      5.384
REMARK  Name = 
REMARK  9 active torsions:
REMARK  status: ('A' for Active; 'I' for Inactive)
REMARK    1  A    between atoms: C_1  and  C_2
REMARK    2  A    between atoms: C_2  and  C_3
REMARK    3  A    between atoms: C_2  and  C_4
REMARK    4  A    between atoms: C_7  and  C_11
REMARK    5  A    between atoms: N_13  and  CA_14
REMARK    6  A    between atoms: CA_14  and  CB_16
REMARK    7  A    between atoms: CA_14  and  C_23
REMARK    8  A    between atoms: CB_16  and  CG_17
REMARK    9  A    between atoms: C_23  and  O_24
REMARK                            x       y       z     vdW  Elec       q    Type
REMARK                         _______ _______ _______ _____ _____    ______ ____
ROOT
ATOM      1  C   UNK A   0       6.485  -0.542  24.695  0.00  0.00    +0.217 C 
ATOM      2  N   PHE A   1       6.697  -0.800  23.347  0.00  0.00    -0.302 N 
ATOM      3  H   PHE A   1       6.751   0.023  22.753  0.00  0.00    +0.150 HD
ATOM      4  O   UNK A   0       6.921  -1.278  25.572  0.00  0.00    -0.275 OA
ENDROOT
BRANCH   1   8
ATOM      5  C   UNK A   0       7.437   3.193  25.148  0.00  0.00    -0.008 C 
ATOM      6  C   UNK A   0       7.075   2.519  23.810  0.00  0.00    +0.004 C 
ATOM      7  C   UNK A   0       5.747   1.759  23.850  0.00  0.00    +0.013 C 
ATOM      8  C   UNK A   0       5.663   0.725  24.985  0.00  0.00    +0.075 C 
ATOM      9  C   UNK A   0       6.061   1.357  26.326  0.00  0.00    +0.013 C 
ATOM     10  C   UNK A   0       7.391   2.115  26.255  0.00  0.00    +0.004 C 
BRANCH   5  12
ATOM     11  C   UNK A   0       7.139   5.194  26.721  0.00  0.00    +0.007 C 
ATOM     12  C   UNK A   0       6.596   4.466  25.480  0.00  0.00    -0.014 C 
ATOM     13  C   UNK A   0       6.569   5.484  24.330  0.00  0.00    +0.007 C 
ENDBRANCH   5  12
ENDBRANCH   1   8
BRANCH   2  14
ATOM     14  CA  PHE A   1       7.549  -1.951  22.955  0.00  0.00    +0.186 C 
BRANCH  14  15
ATOM     15  C   PHE A   1       6.744  -3.041  22.227  0.00  0.00    +0.326 C 
ATOM     16  OXT PHE A   1       7.174  -4.139  21.907  0.00  0.00    -0.249 OA
BRANCH  15  17
ATOM     17  O   PHE A   1       5.440  -2.703  22.051  0.00  0.00    -0.479 OA
ATOM     18  H   PHE A   1       5.359  -2.010  21.366  0.00  0.00    +0.295 HD
ENDBRANCH  15  17
ENDBRANCH  14  15
BRANCH  14  19
ATOM     19  CB  PHE A   1       8.809  -1.566  22.154  0.00  0.00    +0.069 C 
BRANCH  19  20
ATOM     20  CG  PHE A   1       9.479  -0.293  22.616  0.00  0.00    -0.045 A 
ATOM     21  CD2 PHE A   1       9.589   0.808  21.754  0.00  0.00    +0.004 A 
ATOM     22  CE2 PHE A   1      10.205   1.983  22.186  0.00  0.00    +0.000 A 
ATOM     23  CZ  PHE A   1      10.714   2.068  23.479  0.00  0.00    +0.000 A 
ATOM     24  CE1 PHE A   1      10.617   0.979  24.342  0.00  0.00    +0.000 A 
ATOM     25  CD1 PHE A   1      10.003  -0.198  23.911  0.00  0.00    +0.004 A 
ENDBRANCH  19  20
ENDBRANCH  14  19
ENDBRANCH   2  14
TORSDOF 7
ENDMDL
