MODEL 1
REMARK VINA RESULT:      -4.5      0.000      0.000
REMARK  Name = 
REMARK  16 active torsions:
REMARK  status: ('A' for Active; 'I' for Inactive)
REMARK    1  A    between atoms: O_2  and  S_3
REMARK    2  A    between atoms: S_3  and  O_5
REMARK    3  A    between atoms: S_3  and  C_7
REMARK    4  A    between atoms: C_12  and  C_17
REMARK    5  A    between atoms: C_25  and  C_83
REMARK    6  A    between atoms: C_34  and  C_67
REMARK    7  A    between atoms: C_43  and  C_51
REMARK    8  A    between atoms: C_56  and  S_61
REMARK    9  A    between atoms: S_61  and  O_63
REMARK   10  A    between atoms: S_61  and  O_65
REMARK   11  A    between atoms: C_72  and  S_77
REMARK   12  A    between atoms: S_77  and  O_79
REMARK   13  A    between atoms: S_77  and  O_81
REMARK   14  A    between atoms: C_88  and  S_93
REMARK   15  A    between atoms: S_93  and  O_95
REMARK   16  A    between atoms: S_93  and  O_97
REMARK                            x       y       z     vdW  Elec       q    Type
REMARK                         _______ _______ _______ _____ _____    ______ ____
ROOT
ATOM      1  C   UNL     1       1.061   1.595  26.465  0.00  0.00    +0.033 C 
ATOM      2  C   UNL     1       0.841   3.670  25.682  0.00  0.00    +0.074 C 
ATOM      3  C   UNL     1       0.443   5.207  26.590  0.00  0.00    +0.030 C 
ATOM      4  C   UNL     1       0.514   6.649  26.008  0.00  0.00    +0.030 C 
ATOM      5  C   UNL     1       1.071   7.108  24.298  0.00  0.00    +0.074 C 
ATOM      6  C   UNL     1       1.689   5.895  24.259  0.00  0.00    +0.031 C 
ATOM      7  C   UNL     1       2.983   5.676  25.027  0.00  0.00    +0.050 A 
ATOM      8  N   UNL     1       4.311   4.748  24.171  0.00  0.00    -0.354 N 
ATOM      9  H   UNL     1       4.019   4.027  23.521  0.00  0.00    +0.166 HD
ATOM     10  C   UNL     1       5.128   4.791  25.278  0.00  0.00    +0.049 A 
ATOM     11  C   UNL     1       4.422   5.928  26.664  0.00  0.00    +0.028 A 
ATOM     12  C   UNL     1       6.320   3.615  25.058  0.00  0.00    +0.029 C 
ATOM     13  C   UNL     1       6.176   2.253  25.313  0.00  0.00    +0.049 A 
ATOM     14  C   UNL     1       4.918   1.789  25.727  0.00  0.00    +0.028 A 
ATOM     15  C   UNL     1       5.235   1.420  26.964  0.00  0.00    +0.028 A 
ATOM     16  C   UNL     1       6.238   0.446  26.776  0.00  0.00    +0.050 A 
ATOM     17  C   UNL     1       5.853  -0.814  27.178  0.00  0.00    +0.031 C 
ATOM     18  C   UNL     1       4.203  -0.641  27.491  0.00  0.00    +0.074 C 
ATOM     19  C   UNL     1       3.809  -0.450  28.920  0.00  0.00    +0.030 C 
ATOM     20  C   UNL     1       2.608   0.223  28.773  0.00  0.00    +0.030 C 
ATOM     21  N   UNL     1       3.316  -0.059  26.622  0.00  0.00    -0.247 NA
ATOM     22  N   UNL     1       7.052   1.145  25.831  0.00  0.00    -0.354 N 
ATOM     23  H   UNL     1       7.779   1.592  26.391  0.00  0.00    +0.166 HD
ATOM     24  C   UNL     1       3.221   6.565  26.617  0.00  0.00    +0.028 A 
ATOM     25  N   UNL     1       0.574   5.149  24.576  0.00  0.00    -0.247 NA
ATOM     26  C   UNL     1       2.330   0.964  27.265  0.00  0.00    +0.074 C 
ENDROOT
BRANCH   1  30
ATOM     27  C   UNL     1       1.340  -4.710  27.144  0.00  0.00    +0.047 A 
ATOM     28  C   UNL     1       1.636  -3.821  26.070  0.00  0.00    +0.024 A 
ATOM     29  C   UNL     1       1.462  -1.993  26.025  0.00  0.00    +0.010 A 
ATOM     30  C   UNL     1       0.757  -0.505  26.688  0.00  0.00    -0.014 A 
ATOM     31  C   UNL     1       0.570  -1.812  27.869  0.00  0.00    +0.010 A 
ATOM     32  C   UNL     1       0.826  -3.644  28.075  0.00  0.00    +0.024 A 
BRANCH  27  33
ATOM     33  S   UNL     1       1.629  -6.912  27.206  0.00  0.00    -0.225 S 
ATOM     34  O   UNL     1       1.746  -7.579  25.920  0.00  0.00    -0.744 OA
BRANCH  33  35
ATOM     35  O   UNL     1       0.443  -7.748  27.974  0.00  0.00    -0.304 OA
ATOM     36  H   UNL     1       0.243  -8.648  27.563  0.00  0.00    +0.239 HD
ENDBRANCH  33  35
BRANCH  33  38
ATOM     37  H   UNL     1       2.964  -8.481  28.111  0.00  0.00    +0.239 HD
ATOM     38  O   UNL     1       2.890  -7.476  28.087  0.00  0.00    -0.304 OA
ENDBRANCH  33  38
ENDBRANCH  27  33
ENDBRANCH   1  30
BRANCH   6  39
ATOM     39  C   UNL     1       2.983   5.676  25.027  0.00  0.00    -0.014 A 
ATOM     40  C   UNL     1       4.541   6.872  24.719  0.00  0.00    +0.010 A 
ATOM     41  C   UNL     1       6.114   6.667  25.665  0.00  0.00    +0.024 A 
ATOM     42  C   UNL     1       6.339   5.335  26.935  0.00  0.00    +0.047 A 
ATOM     43  C   UNL     1       4.943   4.183  27.359  0.00  0.00    +0.024 A 
ATOM     44  C   UNL     1       3.329   4.282  26.405  0.00  0.00    +0.010 A 
BRANCH  42  45
ATOM     45  S   UNL     1       7.819   5.293  27.783  0.00  0.00    -0.225 S 
ATOM     46  O   UNL     1       7.786   5.992  29.038  0.00  0.00    -0.744 OA
BRANCH  45  47
ATOM     47  O   UNL     1       8.142   3.727  27.964  0.00  0.00    -0.304 OA
ATOM     48  H   UNL     1       7.319   3.200  27.816  0.00  0.00    +0.239 HD
ENDBRANCH  45  47
BRANCH  45  49
ATOM     49  O   UNL     1       8.958   5.921  26.855  0.00  0.00    -0.304 OA
ATOM     50  H   UNL     1       8.993   5.393  26.027  0.00  0.00    +0.239 HD
ENDBRANCH  45  49
ENDBRANCH  42  45
ENDBRANCH   6  39
BRANCH  12  51
ATOM     51  C   UNL     1       7.634   4.057  24.582  0.00  0.00    -0.014 A 
ATOM     52  C   UNL     1       7.855   5.268  23.921  0.00  0.00    +0.010 A 
ATOM     53  C   UNL     1       9.106   5.597  23.470  0.00  0.00    +0.024 A 
ATOM     54  C   UNL     1      10.148   4.743  23.779  0.00  0.00    +0.047 A 
ATOM     55  C   UNL     1       9.965   3.518  24.399  0.00  0.00    +0.024 A 
ATOM     56  C   UNL     1       8.689   3.162  24.768  0.00  0.00    +0.010 A 
BRANCH  54  57
ATOM     57  S   UNL     1      11.733   5.350  23.516  0.00  0.00    -0.225 S 
ATOM     58  O   UNL     1      12.749   4.349  23.673  0.00  0.00    -0.744 OA
BRANCH  57  59
ATOM     59  O   UNL     1      11.766   5.988  22.045  0.00  0.00    -0.304 OA
ATOM     60  H   UNL     1      12.674   6.283  21.810  0.00  0.00    +0.239 HD
ENDBRANCH  57  59
BRANCH  57  61
ATOM     61  O   UNL     1      11.943   6.568  24.539  0.00  0.00    -0.304 OA
ATOM     62  H   UNL     1      11.164   6.683  25.116  0.00  0.00    +0.239 HD
ENDBRANCH  57  61
ENDBRANCH  54  57
ENDBRANCH  12  51
BRANCH  17  63
ATOM     63  C   UNL     1       6.560  -2.072  26.729  0.00  0.00    -0.014 A 
ATOM     64  C   UNL     1       6.362  -3.426  27.131  0.00  0.00    +0.010 A 
ATOM     65  C   UNL     1       7.172  -4.488  26.610  0.00  0.00    +0.024 A 
ATOM     66  C   UNL     1       8.145  -4.195  25.653  0.00  0.00    +0.047 A 
ATOM     67  C   UNL     1       8.385  -2.875  25.302  0.00  0.00    +0.024 A 
ATOM     68  C   UNL     1       7.623  -1.847  25.849  0.00  0.00    +0.010 A 
BRANCH  66  69
ATOM     69  S   UNL     1       9.215  -5.364  24.919  0.00  0.00    -0.225 S 
ATOM     70  O   UNL     1       8.791  -5.828  23.629  0.00  0.00    -0.744 OA
BRANCH  69  71
ATOM     71  O   UNL     1      10.700  -4.745  24.840  0.00  0.00    -0.304 OA
ATOM     72  H   UNL     1      11.196  -5.068  24.055  0.00  0.00    +0.239 HD
ENDBRANCH  69  71
BRANCH  69  73
ATOM     73  O   UNL     1       9.361  -6.588  25.955  0.00  0.00    -0.304 OA
ATOM     74  H   UNL     1       9.654  -7.410  25.510  0.00  0.00    +0.239 HD
ENDBRANCH  69  73
ENDBRANCH  66  69
ENDBRANCH  17  63
TORSDOF 16
ENDMDL
