MODEL 1
REMARK VINA RESULT:      -3.5      0.000      0.000
REMARK  Name = 
REMARK  6 active torsions:
REMARK  status: ('A' for Active; 'I' for Inactive)
REMARK    1  A    between atoms: N_1  and  C_2
REMARK    2  A    between atoms: C_2  and  C_3
REMARK    3  A    between atoms: C_3  and  C_5
REMARK    4  A    between atoms: C_3  and  C_7
REMARK    5  A    between atoms: C_5  and  O_6
REMARK    6  A    between atoms: C_7  and  O_8
REMARK                            x       y       z     vdW  Elec       q    Type
REMARK                         _______ _______ _______ _____ _____    ______ ____
ROOT
ATOM      1  C   UNL     1      10.528   0.295  23.178  0.00  0.00    +0.136 C 
ENDROOT
BRANCH   1   2
ATOM      2  C   UNL     1       9.607   1.190  22.354  0.00  0.00    +0.311 C 
ATOM      3  O   UNL     1       8.408   0.989  22.210  0.00  0.00    -0.251 OA
BRANCH   2   4
ATOM      4  O   UNL     1      10.226   2.211  21.717  0.00  0.00    -0.480 OA
ATOM      5  H   UNL     1      10.644   2.855  22.340  0.00  0.00    +0.295 HD
ENDBRANCH   2   4
ENDBRANCH   1   2
BRANCH   1   6
ATOM      6  C   UNL     1      10.138  -1.168  22.928  0.00  0.00    +0.094 C 
BRANCH   6   7
ATOM      7  N   UNL     1      10.055  -1.516  21.506  0.00  0.00    -0.329 NA
ATOM      8  H   UNL     1      10.132  -2.525  21.381  0.00  0.00    +0.118 HD
ATOM      9  H   UNL     1       9.117  -1.284  21.172  0.00  0.00    +0.118 HD
ENDBRANCH   6   7
ENDBRANCH   1   6
BRANCH   1  10
ATOM     10  C   UNL     1      10.456   0.655  24.660  0.00  0.00    +0.171 C 
BRANCH  10  11
ATOM     11  O   UNL     1       9.641   1.825  24.817  0.00  0.00    -0.394 OA
ATOM     12  H   UNL     1      10.245   2.561  25.040  0.00  0.00    +0.209 HD
ENDBRANCH  10  11
ENDBRANCH   1  10
TORSDOF 6
ENDMDL
MODEL 2
REMARK VINA RESULT:      -3.5      2.362      2.751
REMARK  Name = 
REMARK  6 active torsions:
REMARK  status: ('A' for Active; 'I' for Inactive)
REMARK    1  A    between atoms: N_1  and  C_2
REMARK    2  A    between atoms: C_2  and  C_3
REMARK    3  A    between atoms: C_3  and  C_5
REMARK    4  A    between atoms: C_3  and  C_7
REMARK    5  A    between atoms: C_5  and  O_6
REMARK    6  A    between atoms: C_7  and  O_8
REMARK                            x       y       z     vdW  Elec       q    Type
REMARK                         _______ _______ _______ _____ _____    ______ ____
ROOT
ATOM      1  C   UNL     1       9.659   0.135  23.077  0.00  0.00    +0.136 C 
ENDROOT
BRANCH   1   2
ATOM      2  C   UNL     1      10.031  -1.320  22.815  0.00  0.00    +0.311 C 
ATOM      3  O   UNL     1      10.152  -2.164  23.694  0.00  0.00    -0.251 OA
BRANCH   2   4
ATOM      4  O   UNL     1      10.293  -1.618  21.521  0.00  0.00    -0.480 OA
ATOM      5  H   UNL     1      11.031  -2.268  21.418  0.00  0.00    +0.295 HD
ENDBRANCH   2   4
ENDBRANCH   1   2
BRANCH   1   6
ATOM      6  C   UNL     1       9.529   0.856  21.728  0.00  0.00    +0.094 C 
BRANCH   6   7
ATOM      7  N   UNL     1      10.141   2.189  21.716  0.00  0.00    -0.329 NA
ATOM      8  H   UNL     1      10.087   2.614  22.641  0.00  0.00    +0.118 HD
ATOM      9  H   UNL     1      11.142   2.083  21.537  0.00  0.00    +0.118 HD
ENDBRANCH   6   7
ENDBRANCH   1   6
BRANCH   1  10
ATOM     10  C   UNL     1      10.687   0.809  23.982  0.00  0.00    +0.171 C 
BRANCH  10  11
ATOM     11  O   UNL     1      10.451   0.405  25.337  0.00  0.00    -0.394 OA
ATOM     12  H   UNL     1       9.609   0.819  25.613  0.00  0.00    +0.209 HD
ENDBRANCH  10  11
ENDBRANCH   1  10
TORSDOF 6
ENDMDL
MODEL 3
REMARK VINA RESULT:      -3.4      5.658      6.501
REMARK  Name = 
REMARK  6 active torsions:
REMARK  status: ('A' for Active; 'I' for Inactive)
REMARK    1  A    between atoms: N_1  and  C_2
REMARK    2  A    between atoms: C_2  and  C_3
REMARK    3  A    between atoms: C_3  and  C_5
REMARK    4  A    between atoms: C_3  and  C_7
REMARK    5  A    between atoms: C_5  and  O_6
REMARK    6  A    between atoms: C_7  and  O_8
REMARK                            x       y       z     vdW  Elec       q    Type
REMARK                         _______ _______ _______ _____ _____    ______ ____
ROOT
ATOM      1  C   UNL     1       8.106  -4.057  25.250  0.00  0.00    +0.136 C 
ENDROOT
BRANCH   1   2
ATOM      2  C   UNL     1       9.546  -4.135  24.752  0.00  0.00    +0.311 C 
ATOM      3  O   UNL     1      10.069  -3.289  24.038  0.00  0.00    -0.251 OA
BRANCH   2   4
ATOM      4  O   UNL     1      10.209  -5.262  25.102  0.00  0.00    -0.480 OA
ATOM      5  H   UNL     1      10.418  -5.300  26.068  0.00  0.00    +0.295 HD
ENDBRANCH   2   4
ENDBRANCH   1   2
BRANCH   1   6
ATOM      6  C   UNL     1       8.100  -4.301  26.765  0.00  0.00    +0.094 C 
BRANCH   6   7
ATOM      7  N   UNL     1       8.041  -5.721  27.128  0.00  0.00    -0.329 NA
ATOM      8  H   UNL     1       8.344  -5.855  28.092  0.00  0.00    +0.118 HD
ATOM      9  H   UNL     1       7.061  -6.015  27.121  0.00  0.00    +0.118 HD
ENDBRANCH   6   7
ENDBRANCH   1   6
BRANCH   1  10
ATOM     10  C   UNL     1       7.217  -5.055  24.512  0.00  0.00    +0.171 C 
BRANCH  10  11
ATOM     11  O   UNL     1       7.851  -5.421  23.279  0.00  0.00    -0.394 OA
ATOM     12  H   UNL     1       8.303  -6.274  23.435  0.00  0.00    +0.209 HD
ENDBRANCH  10  11
ENDBRANCH   1  10
TORSDOF 6
ENDMDL
MODEL 4
REMARK VINA RESULT:      -3.4      5.855      6.544
REMARK  Name = 
REMARK  6 active torsions:
REMARK  status: ('A' for Active; 'I' for Inactive)
REMARK    1  A    between atoms: N_1  and  C_2
REMARK    2  A    between atoms: C_2  and  C_3
REMARK    3  A    between atoms: C_3  and  C_5
REMARK    4  A    between atoms: C_3  and  C_7
REMARK    5  A    between atoms: C_5  and  O_6
REMARK    6  A    between atoms: C_7  and  O_8
REMARK                            x       y       z     vdW  Elec       q    Type
REMARK                         _______ _______ _______ _____ _____    ______ ____
ROOT
ATOM      1  C   UNL     1       7.989  -5.063  25.303  0.00  0.00    +0.136 C 
ENDROOT
BRANCH   1   2
ATOM      2  C   UNL     1       9.476  -4.770  25.128  0.00  0.00    +0.311 C 
ATOM      3  O   UNL     1       9.918  -3.879  24.415  0.00  0.00    -0.251 OA
BRANCH   2   4
ATOM      4  O   UNL     1      10.305  -5.623  25.775  0.00  0.00    -0.480 OA
ATOM      5  H   UNL     1       9.822  -6.256  26.362  0.00  0.00    +0.295 HD
ENDBRANCH   2   4
ENDBRANCH   1   2
BRANCH   1   6
ATOM      6  C   UNL     1       7.203  -4.222  24.288  0.00  0.00    +0.094 C 
BRANCH   6   7
ATOM      7  N   UNL     1       7.445  -4.611  22.894  0.00  0.00    -0.329 NA
ATOM      8  H   UNL     1       7.063  -3.912  22.258  0.00  0.00    +0.118 HD
ATOM      9  H   UNL     1       8.454  -4.593  22.726  0.00  0.00    +0.118 HD
ENDBRANCH   6   7
ENDBRANCH   1   6
BRANCH   1  10
ATOM     10  C   UNL     1       7.542  -4.784  26.736  0.00  0.00    +0.171 C 
BRANCH  10  11
ATOM     11  O   UNL     1       7.877  -5.912  27.556  0.00  0.00    -0.394 OA
ATOM     12  H   UNL     1       7.039  -6.246  27.934  0.00  0.00    +0.209 HD
ENDBRANCH  10  11
ENDBRANCH   1  10
TORSDOF 6
ENDMDL
MODEL 5
REMARK VINA RESULT:      -3.4     11.089     11.859
REMARK  Name = 
REMARK  6 active torsions:
REMARK  status: ('A' for Active; 'I' for Inactive)
REMARK    1  A    between atoms: N_1  and  C_2
REMARK    2  A    between atoms: C_2  and  C_3
REMARK    3  A    between atoms: C_3  and  C_5
REMARK    4  A    between atoms: C_3  and  C_7
REMARK    5  A    between atoms: C_5  and  O_6
REMARK    6  A    between atoms: C_7  and  O_8
REMARK                            x       y       z     vdW  Elec       q    Type
REMARK                         _______ _______ _______ _____ _____    ______ ____
ROOT
ATOM      1  C   UNL     1       1.502   5.874  15.679  0.00  0.00    +0.136 C 
ENDROOT
BRANCH   1   2
ATOM      2  C   UNL     1       1.821   4.582  14.934  0.00  0.00    +0.311 C 
ATOM      3  O   UNL     1       0.974   3.782  14.559  0.00  0.00    -0.251 OA
BRANCH   2   4
ATOM      4  O   UNL     1       3.141   4.332  14.766  0.00  0.00    -0.480 OA
ATOM      5  H   UNL     1       3.393   4.222  13.816  0.00  0.00    +0.295 HD
ENDBRANCH   2   4
ENDBRANCH   1   2
BRANCH   1   6
ATOM      6  C   UNL     1       2.440   6.977  15.168  0.00  0.00    +0.094 C 
BRANCH   6   7
ATOM      7  N   UNL     1       3.744   6.992  15.839  0.00  0.00    -0.329 NA
ATOM      8  H   UNL     1       4.000   6.053  16.142  0.00  0.00    +0.118 HD
ATOM      9  H   UNL     1       4.457   7.247  15.152  0.00  0.00    +0.118 HD
ENDBRANCH   6   7
ENDBRANCH   1   6
BRANCH   1  10
ATOM     10  C   UNL     1       1.626   5.681  17.188  0.00  0.00    +0.171 C 
BRANCH  10  11
ATOM     11  O   UNL     1       2.293   4.437  17.445  0.00  0.00    -0.394 OA
ATOM     12  H   UNL     1       2.364   3.972  16.587  0.00  0.00    +0.209 HD
ENDBRANCH  10  11
ENDBRANCH   1  10
TORSDOF 6
ENDMDL
MODEL 6
REMARK VINA RESULT:      -3.3      1.817      2.479
REMARK  Name = 
REMARK  6 active torsions:
REMARK  status: ('A' for Active; 'I' for Inactive)
REMARK    1  A    between atoms: N_1  and  C_2
REMARK    2  A    between atoms: C_2  and  C_3
REMARK    3  A    between atoms: C_3  and  C_5
REMARK    4  A    between atoms: C_3  and  C_7
REMARK    5  A    between atoms: C_5  and  O_6
REMARK    6  A    between atoms: C_7  and  O_8
REMARK                            x       y       z     vdW  Elec       q    Type
REMARK                         _______ _______ _______ _____ _____    ______ ____
ROOT
ATOM      1  C   UNL     1      10.472   0.379  23.153  0.00  0.00    +0.136 C 
ENDROOT
BRANCH   1   2
ATOM      2  C   UNL     1       9.649  -0.514  22.230  0.00  0.00    +0.311 C 
ATOM      3  O   UNL     1       8.451  -0.368  22.025  0.00  0.00    -0.251 OA
BRANCH   2   4
ATOM      4  O   UNL     1      10.329  -1.552  21.687  0.00  0.00    -0.480 OA
ATOM      5  H   UNL     1      11.063  -1.874  22.266  0.00  0.00    +0.295 HD
ENDBRANCH   2   4
ENDBRANCH   1   2
BRANCH   1   6
ATOM      6  C   UNL     1      10.231  -0.063  24.603  0.00  0.00    +0.094 C 
BRANCH   6   7
ATOM      7  N   UNL     1       9.473  -1.314  24.714  0.00  0.00    -0.329 NA
ATOM      8  H   UNL     1       9.919  -1.942  25.381  0.00  0.00    +0.118 HD
ATOM      9  H   UNL     1       8.561  -1.102  25.126  0.00  0.00    +0.118 HD
ENDBRANCH   6   7
ENDBRANCH   1   6
BRANCH   1  10
ATOM     10  C   UNL     1      10.121   1.850  22.944  0.00  0.00    +0.171 C 
BRANCH  10  11
ATOM     11  O   UNL     1      10.020   2.111  21.538  0.00  0.00    -0.394 OA
ATOM     12  H   UNL     1       9.916   1.244  21.096  0.00  0.00    +0.209 HD
ENDBRANCH  10  11
ENDBRANCH   1  10
TORSDOF 6
ENDMDL
MODEL 7
REMARK VINA RESULT:      -3.3      5.951      6.541
REMARK  Name = 
REMARK  6 active torsions:
REMARK  status: ('A' for Active; 'I' for Inactive)
REMARK    1  A    between atoms: N_1  and  C_2
REMARK    2  A    between atoms: C_2  and  C_3
REMARK    3  A    between atoms: C_3  and  C_5
REMARK    4  A    between atoms: C_3  and  C_7
REMARK    5  A    between atoms: C_5  and  O_6
REMARK    6  A    between atoms: C_7  and  O_8
REMARK                            x       y       z     vdW  Elec       q    Type
REMARK                         _______ _______ _______ _____ _____    ______ ____
ROOT
ATOM      1  C   UNL     1       8.173  -4.178  25.915  0.00  0.00    +0.136 C 
ENDROOT
BRANCH   1   2
ATOM      2  C   UNL     1       7.584  -4.618  24.579  0.00  0.00    +0.311 C 
ATOM      3  O   UNL     1       6.734  -5.491  24.460  0.00  0.00    -0.251 OA
BRANCH   2   4
ATOM      4  O   UNL     1       8.123  -4.016  23.493  0.00  0.00    -0.480 OA
ATOM      5  H   UNL     1       7.802  -3.088  23.371  0.00  0.00    +0.295 HD
ENDBRANCH   2   4
ENDBRANCH   1   2
BRANCH   1   6
ATOM      6  C   UNL     1       9.602  -4.729  26.025  0.00  0.00    +0.094 C 
BRANCH   6   7
ATOM      7  N   UNL     1       9.841  -5.905  25.181  0.00  0.00    -0.329 NA
ATOM      8  H   UNL     1       9.520  -5.732  24.229  0.00  0.00    +0.118 HD
ATOM      9  H   UNL     1      10.851  -6.039  25.094  0.00  0.00    +0.118 HD
ENDBRANCH   6   7
ENDBRANCH   1   6
BRANCH   1  10
ATOM     10  C   UNL     1       7.298  -4.641  27.077  0.00  0.00    +0.171 C 
BRANCH  10  11
ATOM     11  O   UNL     1       7.747  -5.931  27.514  0.00  0.00    -0.394 OA
ATOM     12  H   UNL     1       8.645  -5.808  27.882  0.00  0.00    +0.209 HD
ENDBRANCH  10  11
ENDBRANCH   1  10
TORSDOF 6
ENDMDL
MODEL 8
REMARK VINA RESULT:      -3.3      1.490      2.695
REMARK  Name = 
REMARK  6 active torsions:
REMARK  status: ('A' for Active; 'I' for Inactive)
REMARK    1  A    between atoms: N_1  and  C_2
REMARK    2  A    between atoms: C_2  and  C_3
REMARK    3  A    between atoms: C_3  and  C_5
REMARK    4  A    between atoms: C_3  and  C_7
REMARK    5  A    between atoms: C_5  and  O_6
REMARK    6  A    between atoms: C_7  and  O_8
REMARK                            x       y       z     vdW  Elec       q    Type
REMARK                         _______ _______ _______ _____ _____    ______ ____
ROOT
ATOM      1  C   UNL     1       9.006   0.453  22.656  0.00  0.00    +0.136 C 
ENDROOT
BRANCH   1   2
ATOM      2  C   UNL     1       9.938   0.096  23.810  0.00  0.00    +0.311 C 
ATOM      3  O   UNL     1      11.029   0.621  23.995  0.00  0.00    -0.251 OA
BRANCH   2   4
ATOM      4  O   UNL     1       9.504  -0.912  24.602  0.00  0.00    -0.480 OA
ATOM      5  H   UNL     1       8.653  -1.306  24.290  0.00  0.00    +0.295 HD
ENDBRANCH   2   4
ENDBRANCH   1   2
BRANCH   1   6
ATOM      6  C   UNL     1       9.399  -0.388  21.433  0.00  0.00    +0.094 C 
BRANCH   6   7
ATOM      7  N   UNL     1      10.277  -1.516  21.758  0.00  0.00    -0.329 NA
ATOM      8  H   UNL     1      10.104  -2.296  21.124  0.00  0.00    +0.118 HD
ATOM      9  H   UNL     1      11.243  -1.238  21.569  0.00  0.00    +0.118 HD
ENDBRANCH   6   7
ENDBRANCH   1   6
BRANCH   1  10
ATOM     10  C   UNL     1       9.055   1.948  22.355  0.00  0.00    +0.171 C 
BRANCH  10  11
ATOM     11  O   UNL     1      10.245   2.234  21.607  0.00  0.00    -0.394 OA
ATOM     12  H   UNL     1      10.929   2.498  22.253  0.00  0.00    +0.209 HD
ENDBRANCH  10  11
ENDBRANCH   1  10
TORSDOF 6
ENDMDL
MODEL 9
REMARK VINA RESULT:      -3.3      1.654      1.782
REMARK  Name = 
REMARK  6 active torsions:
REMARK  status: ('A' for Active; 'I' for Inactive)
REMARK    1  A    between atoms: N_1  and  C_2
REMARK    2  A    between atoms: C_2  and  C_3
REMARK    3  A    between atoms: C_3  and  C_5
REMARK    4  A    between atoms: C_3  and  C_7
REMARK    5  A    between atoms: C_5  and  O_6
REMARK    6  A    between atoms: C_7  and  O_8
REMARK                            x       y       z     vdW  Elec       q    Type
REMARK                         _______ _______ _______ _____ _____    ______ ____
ROOT
ATOM      1  C   UNL     1      10.347   0.573  23.265  0.00  0.00    +0.136 C 
ENDROOT
BRANCH   1   2
ATOM      2  C   UNL     1      10.119   2.018  22.833  0.00  0.00    +0.311 C 
ATOM      3  O   UNL     1       9.951   2.947  23.612  0.00  0.00    -0.251 OA
BRANCH   2   4
ATOM      4  O   UNL     1      10.045   2.208  21.494  0.00  0.00    -0.480 OA
ATOM      5  H   UNL     1       9.775   3.128  21.252  0.00  0.00    +0.295 HD
ENDBRANCH   2   4
ENDBRANCH   1   2
BRANCH   1   6
ATOM      6  C   UNL     1       9.051  -0.216  23.033  0.00  0.00    +0.094 C 
BRANCH   6   7
ATOM      7  N   UNL     1       7.849   0.624  23.027  0.00  0.00    -0.329 NA
ATOM      8  H   UNL     1       7.032   0.076  22.757  0.00  0.00    +0.118 HD
ATOM      9  H   UNL     1       7.657   0.920  23.987  0.00  0.00    +0.118 HD
ENDBRANCH   6   7
ENDBRANCH   1   6
BRANCH   1  10
ATOM     10  C   UNL     1      10.800   0.503  24.721  0.00  0.00    +0.171 C 
BRANCH  10  11
ATOM     11  O   UNL     1       9.664   0.706  25.573  0.00  0.00    -0.394 OA
ATOM     12  H   UNL     1       8.885   0.795  24.988  0.00  0.00    +0.209 HD
ENDBRANCH  10  11
ENDBRANCH   1  10
TORSDOF 6
ENDMDL
