MODEL 1
REMARK VINA RESULT:      -7.2      0.000      0.000
REMARK  Name = 
REMARK  5 active torsions:
REMARK  status: ('A' for Active; 'I' for Inactive)
REMARK    1  A    between atoms: C_2  and  C_3
REMARK    2  A    between atoms: C_6  and  N_7
REMARK    3  A    between atoms: C_10  and  C_12
REMARK    4  A    between atoms: C_18  and  O_19
REMARK    5  A    between atoms: C_24  and  C_25
REMARK                            x       y       z     vdW  Elec       q    Type
REMARK                         _______ _______ _______ _____ _____    ______ ____
ROOT
ATOM      1  N   UNL     1       7.185  -1.538  22.519  0.00  0.00    -0.199 NA
ATOM      2  C   UNL     1       7.320  -2.784  22.818  0.00  0.00    +0.287 C 
ATOM      3  N   UNL     1       6.435  -3.783  22.491  0.00  0.00    -0.276 N 
ATOM      4  C   UNL     1       6.591  -4.872  23.435  0.00  0.00    +0.156 C 
ATOM      5  C   UNL     1       6.313  -6.176  22.696  0.00  0.00    +0.140 C 
ATOM      6  C   UNL     1       5.988  -5.773  21.260  0.00  0.00    +0.052 C 
ATOM      7  C   UNL     1       8.034  -4.685  23.877  0.00  0.00    +0.302 C 
ATOM      8  C   UNL     1       6.310  -4.282  21.131  0.00  0.00    +0.112 C 
ATOM      9  O   UNL     1       8.329  -3.296  23.578  0.00  0.00    -0.451 OA
ENDROOT
BRANCH   1  15
ATOM     10  C   UNL     1       9.758   1.762  23.232  0.00  0.00    +0.070 A 
ATOM     11  C   UNL     1       8.623   1.640  24.038  0.00  0.00    +0.063 A 
ATOM     12 CL   UNL     1       8.360   2.819  25.297  0.00  0.00    -0.082 Cl
ATOM     13  C   UNL     1       7.689   0.579  23.842  0.00  0.00    -0.005 A 
ATOM     14  C   UNL     1       6.393   0.612  24.607  0.00  0.00    +0.047 C 
ATOM     15  C   UNL     1       7.995  -0.456  22.924  0.00  0.00    +0.073 A 
ATOM     16  C   UNL     1       9.163  -0.316  22.154  0.00  0.00    +0.029 A 
ATOM     17  C   UNL     1      10.020   0.782  22.276  0.00  0.00    +0.022 A 
BRANCH  10  19
ATOM     18  N   UNL     1      11.367   3.801  23.346  0.00  0.00    -0.191 NA
ATOM     19  C   UNL     1      10.646   2.893  23.316  0.00  0.00    +0.101 C 
ENDBRANCH  10  19
ENDBRANCH   1  15
BRANCH   7  20
ATOM     20  C   UNL     1       8.188  -5.034  25.355  0.00  0.00    +0.428 C 
ATOM     21  F   UNL     1       9.274  -5.826  25.535  0.00  0.00    -0.167 F 
ATOM     22  F   UNL     1       7.129  -5.722  25.840  0.00  0.00    -0.167 F 
ATOM     23  F   UNL     1       8.353  -3.951  26.140  0.00  0.00    -0.167 F 
ENDBRANCH   7  20
BRANCH   5  24
ATOM     24  O   UNL     1       5.175  -6.848  23.239  0.00  0.00    -0.390 OA
ATOM     25  H   UNL     1       5.216  -7.792  23.004  0.00  0.00    +0.210 HD
ENDBRANCH   5  24
TORSDOF 4
ENDMDL
MODEL 2
REMARK VINA RESULT:      -6.8      3.537      7.248
REMARK  Name = 
REMARK  5 active torsions:
REMARK  status: ('A' for Active; 'I' for Inactive)
REMARK    1  A    between atoms: C_2  and  C_3
REMARK    2  A    between atoms: C_6  and  N_7
REMARK    3  A    between atoms: C_10  and  C_12
REMARK    4  A    between atoms: C_18  and  O_19
REMARK    5  A    between atoms: C_24  and  C_25
REMARK                            x       y       z     vdW  Elec       q    Type
REMARK                         _______ _______ _______ _____ _____    ______ ____
ROOT
ATOM      1  N   UNL     1       7.812  -3.904  23.729  0.00  0.00    -0.199 NA
ATOM      2  C   UNL     1       8.057  -2.681  24.048  0.00  0.00    +0.287 C 
ATOM      3  N   UNL     1       9.194  -1.983  23.718  0.00  0.00    -0.276 N 
ATOM      4  C   UNL     1       9.382  -0.915  24.680  0.00  0.00    +0.156 C 
ATOM      5  C   UNL     1      10.024   0.262  23.955  0.00  0.00    +0.140 C 
ATOM      6  C   UNL     1      10.193  -0.192  22.507  0.00  0.00    +0.052 C 
ATOM      7  C   UNL     1       7.956  -0.675  25.149  0.00  0.00    +0.302 C 
ATOM      8  C   UNL     1       9.441  -1.517  22.363  0.00  0.00    +0.112 C 
ATOM      9  O   UNL     1       7.258  -1.908  24.836  0.00  0.00    -0.451 OA
ENDROOT
BRANCH   1  15
ATOM     10  C   UNL     1       4.577  -6.548  24.478  0.00  0.00    +0.070 A 
ATOM     11  C   UNL     1       5.367  -6.167  25.566  0.00  0.00    +0.063 A 
ATOM     12 CL   UNL     1       4.953  -6.767  27.152  0.00  0.00    -0.082 Cl
ATOM     13  C   UNL     1       6.494  -5.309  25.395  0.00  0.00    -0.005 A 
ATOM     14  C   UNL     1       7.417  -5.093  26.564  0.00  0.00    +0.047 C 
ATOM     15  C   UNL     1       6.724  -4.706  24.134  0.00  0.00    +0.073 A 
ATOM     16  C   UNL     1       5.887  -5.088  23.070  0.00  0.00    +0.029 A 
ATOM     17  C   UNL     1       4.850  -6.013  23.221  0.00  0.00    +0.022 A 
BRANCH  10  19
ATOM     18  N   UNL     1       2.690  -8.323  24.702  0.00  0.00    -0.191 NA
ATOM     19  C   UNL     1       3.518  -7.517  24.596  0.00  0.00    +0.101 C 
ENDBRANCH  10  19
ENDBRANCH   1  15
BRANCH   7  20
ATOM     20  C   UNL     1       7.934  -0.326  26.634  0.00  0.00    +0.428 C 
ATOM     21  F   UNL     1       9.068  -0.767  27.233  0.00  0.00    -0.167 F 
ATOM     22  F   UNL     1       6.905  -0.911  27.291  0.00  0.00    -0.167 F 
ATOM     23  F   UNL     1       7.852   0.999  26.866  0.00  0.00    -0.167 F 
ENDBRANCH   7  20
BRANCH   5  24
ATOM     24  O   UNL     1      11.318   0.555  24.484  0.00  0.00    -0.390 OA
ATOM     25  H   UNL     1      11.667  -0.234  24.936  0.00  0.00    +0.210 HD
ENDBRANCH   5  24
TORSDOF 4
ENDMDL
MODEL 3
REMARK VINA RESULT:      -6.7      2.705      3.399
REMARK  Name = 
REMARK  5 active torsions:
REMARK  status: ('A' for Active; 'I' for Inactive)
REMARK    1  A    between atoms: C_2  and  C_3
REMARK    2  A    between atoms: C_6  and  N_7
REMARK    3  A    between atoms: C_10  and  C_12
REMARK    4  A    between atoms: C_18  and  O_19
REMARK    5  A    between atoms: C_24  and  C_25
REMARK                            x       y       z     vdW  Elec       q    Type
REMARK                         _______ _______ _______ _____ _____    ______ ____
ROOT
ATOM      1  N   UNL     1       5.913  -2.374  24.763  0.00  0.00    -0.199 NA
ATOM      2  C   UNL     1       5.495  -3.352  24.036  0.00  0.00    +0.287 C 
ATOM      3  N   UNL     1       4.748  -4.415  24.482  0.00  0.00    -0.276 N 
ATOM      4  C   UNL     1       4.956  -5.539  23.591  0.00  0.00    +0.156 C 
ATOM      5  C   UNL     1       3.659  -6.337  23.531  0.00  0.00    +0.140 C 
ATOM      6  C   UNL     1       2.682  -5.600  24.444  0.00  0.00    +0.052 C 
ATOM      7  C   UNL     1       5.332  -4.834  22.298  0.00  0.00    +0.302 C 
ATOM      8  C   UNL     1       3.342  -4.274  24.828  0.00  0.00    +0.112 C 
ATOM      9  O   UNL     1       5.798  -3.526  22.719  0.00  0.00    -0.451 OA
ENDROOT
BRANCH   1  15
ATOM     10  C   UNL     1       8.224   1.095  23.964  0.00  0.00    +0.070 A 
ATOM     11  C   UNL     1       8.877  -0.140  23.930  0.00  0.00    +0.063 A 
ATOM     12 CL   UNL     1      10.575  -0.178  23.527  0.00  0.00    -0.082 Cl
ATOM     13  C   UNL     1       8.181  -1.351  24.220  0.00  0.00    -0.005 A 
ATOM     14  C   UNL     1       8.976  -2.622  24.360  0.00  0.00    +0.047 C 
ATOM     15  C   UNL     1       6.775  -1.322  24.390  0.00  0.00    +0.073 A 
ATOM     16  C   UNL     1       6.147  -0.063  24.385  0.00  0.00    +0.029 A 
ATOM     17  C   UNL     1       6.853   1.131  24.206  0.00  0.00    +0.022 A 
BRANCH  10  19
ATOM     18  N   UNL     1       9.522   3.332  23.695  0.00  0.00    -0.191 NA
ATOM     19  C   UNL     1       8.926   2.344  23.809  0.00  0.00    +0.101 C 
ENDBRANCH  10  19
ENDBRANCH   1  15
BRANCH   7  20
ATOM     20  C   UNL     1       6.385  -5.637  21.539  0.00  0.00    +0.428 C 
ATOM     21  F   UNL     1       7.584  -5.005  21.597  0.00  0.00    -0.167 F 
ATOM     22  F   UNL     1       6.089  -5.772  20.226  0.00  0.00    -0.167 F 
ATOM     23  F   UNL     1       6.566  -6.876  22.036  0.00  0.00    -0.167 F 
ENDBRANCH   7  20
BRANCH   5  24
ATOM     24  O   UNL     1       3.837  -7.658  24.043  0.00  0.00    -0.390 OA
ATOM     25  H   UNL     1       3.723  -8.302  23.321  0.00  0.00    +0.210 HD
ENDBRANCH   5  24
TORSDOF 4
ENDMDL
MODEL 4
REMARK VINA RESULT:      -6.7      4.297      7.483
REMARK  Name = 
REMARK  5 active torsions:
REMARK  status: ('A' for Active; 'I' for Inactive)
REMARK    1  A    between atoms: C_2  and  C_3
REMARK    2  A    between atoms: C_6  and  N_7
REMARK    3  A    between atoms: C_10  and  C_12
REMARK    4  A    between atoms: C_18  and  O_19
REMARK    5  A    between atoms: C_24  and  C_25
REMARK                            x       y       z     vdW  Elec       q    Type
REMARK                         _______ _______ _______ _____ _____    ______ ____
ROOT
ATOM      1  N   UNL     1       6.417  -0.137  23.940  0.00  0.00    -0.199 NA
ATOM      2  C   UNL     1       7.040   0.989  23.892  0.00  0.00    +0.287 C 
ATOM      3  N   UNL     1       6.639   2.094  23.180  0.00  0.00    -0.276 N 
ATOM      4  C   UNL     1       7.800   2.913  22.896  0.00  0.00    +0.156 C 
ATOM      5  C   UNL     1       7.357   4.371  22.893  0.00  0.00    +0.140 C 
ATOM      6  C   UNL     1       5.861   4.345  23.198  0.00  0.00    +0.052 C 
ATOM      7  C   UNL     1       8.728   2.531  24.038  0.00  0.00    +0.302 C 
ATOM      8  C   UNL     1       5.512   2.911  23.602  0.00  0.00    +0.112 C 
ATOM      9  O   UNL     1       8.243   1.237  24.482  0.00  0.00    -0.451 OA
ENDROOT
BRANCH   1  15
ATOM     10  C   UNL     1       7.265  -3.684  26.111  0.00  0.00    +0.070 A 
ATOM     11  C   UNL     1       7.589  -3.664  24.752  0.00  0.00    +0.063 A 
ATOM     12 CL   UNL     1       8.349  -5.071  24.052  0.00  0.00    -0.082 Cl
ATOM     13  C   UNL     1       7.306  -2.523  23.942  0.00  0.00    -0.005 A 
ATOM     14  C   UNL     1       7.497  -2.633  22.454  0.00  0.00    +0.047 C 
ATOM     15  C   UNL     1       6.835  -1.335  24.554  0.00  0.00    +0.073 A 
ATOM     16  C   UNL     1       6.552  -1.383  25.931  0.00  0.00    +0.029 A 
ATOM     17  C   UNL     1       6.731  -2.539  26.698  0.00  0.00    +0.022 A 
BRANCH  10  19
ATOM     18  N   UNL     1       7.498  -5.811  27.588  0.00  0.00    -0.191 NA
ATOM     19  C   UNL     1       7.414  -4.865  26.922  0.00  0.00    +0.101 C 
ENDBRANCH  10  19
ENDBRANCH   1  15
BRANCH   7  20
ATOM     20  C   UNL     1      10.178   2.505  23.563  0.00  0.00    +0.428 C 
ATOM     21  F   UNL     1      10.901   1.645  24.322  0.00  0.00    -0.167 F 
ATOM     22  F   UNL     1      10.782   3.710  23.672  0.00  0.00    -0.167 F 
ATOM     23  F   UNL     1      10.308   2.109  22.281  0.00  0.00    -0.167 F 
ENDBRANCH   7  20
BRANCH   5  24
ATOM     24  O   UNL     1       7.539   4.967  21.608  0.00  0.00    -0.390 OA
ATOM     25  H   UNL     1       6.669   5.126  21.199  0.00  0.00    +0.210 HD
ENDBRANCH   5  24
TORSDOF 4
ENDMDL
MODEL 5
REMARK VINA RESULT:      -6.6      3.695      7.224
REMARK  Name = 
REMARK  5 active torsions:
REMARK  status: ('A' for Active; 'I' for Inactive)
REMARK    1  A    between atoms: C_2  and  C_3
REMARK    2  A    between atoms: C_6  and  N_7
REMARK    3  A    between atoms: C_10  and  C_12
REMARK    4  A    between atoms: C_18  and  O_19
REMARK    5  A    between atoms: C_24  and  C_25
REMARK                            x       y       z     vdW  Elec       q    Type
REMARK                         _______ _______ _______ _____ _____    ______ ____
ROOT
ATOM      1  N   UNL     1       9.012  -2.330  23.819  0.00  0.00    -0.199 NA
ATOM      2  C   UNL     1       8.746  -1.071  23.857  0.00  0.00    +0.287 C 
ATOM      3  N   UNL     1       9.588  -0.065  23.448  0.00  0.00    -0.276 N 
ATOM      4  C   UNL     1       9.229   1.156  24.142  0.00  0.00    +0.156 C 
ATOM      5  C   UNL     1       9.501   2.327  23.205  0.00  0.00    +0.140 C 
ATOM      6  C   UNL     1      10.039   1.705  21.918  0.00  0.00    +0.052 C 
ATOM      7  C   UNL     1       7.760   0.911  24.447  0.00  0.00    +0.302 C 
ATOM      8  C   UNL     1       9.849   0.191  22.040  0.00  0.00    +0.112 C 
ATOM      9  O   UNL     1       7.612  -0.532  24.387  0.00  0.00    -0.451 OA
ENDROOT
BRANCH   1  15
ATOM     10  C   UNL     1       6.673  -5.266  25.800  0.00  0.00    +0.070 A 
ATOM     11  C   UNL     1       6.480  -5.104  24.425  0.00  0.00    +0.063 A 
ATOM     12 CL   UNL     1       5.328  -6.135  23.615  0.00  0.00    -0.082 Cl
ATOM     13  C   UNL     1       7.201  -4.116  23.690  0.00  0.00    -0.005 A 
ATOM     14  C   UNL     1       6.810  -3.857  22.260  0.00  0.00    +0.047 C 
ATOM     15  C   UNL     1       8.241  -3.396  24.328  0.00  0.00    +0.073 A 
ATOM     16  C   UNL     1       8.429  -3.611  25.705  0.00  0.00    +0.029 A 
ATOM     17  C   UNL     1       7.646  -4.504  26.443  0.00  0.00    +0.022 A 
BRANCH  10  19
ATOM     18  N   UNL     1       5.248  -6.897  27.239  0.00  0.00    -0.191 NA
ATOM     19  C   UNL     1       5.866  -6.159  26.593  0.00  0.00    +0.101 C 
ENDBRANCH  10  19
ENDBRANCH   1  15
BRANCH   7  20
ATOM     20  C   UNL     1       7.390   1.503  25.804  0.00  0.00    +0.428 C 
ATOM     21  F   UNL     1       7.842   0.702  26.800  0.00  0.00    -0.167 F 
ATOM     22  F   UNL     1       6.052   1.607  25.977  0.00  0.00    -0.167 F 
ATOM     23  F   UNL     1       7.915   2.726  26.008  0.00  0.00    -0.167 F 
ENDBRANCH   7  20
BRANCH   5  24
ATOM     24  O   UNL     1      10.505   3.193  23.734  0.00  0.00    -0.390 OA
ATOM     25  H   UNL     1      10.327   3.354  24.678  0.00  0.00    +0.210 HD
ENDBRANCH   5  24
TORSDOF 4
ENDMDL
MODEL 6
REMARK VINA RESULT:      -6.5      3.480      7.236
REMARK  Name = 
REMARK  5 active torsions:
REMARK  status: ('A' for Active; 'I' for Inactive)
REMARK    1  A    between atoms: C_2  and  C_3
REMARK    2  A    between atoms: C_6  and  N_7
REMARK    3  A    between atoms: C_10  and  C_12
REMARK    4  A    between atoms: C_18  and  O_19
REMARK    5  A    between atoms: C_24  and  C_25
REMARK                            x       y       z     vdW  Elec       q    Type
REMARK                         _______ _______ _______ _____ _____    ______ ____
ROOT
ATOM      1  N   UNL     1       8.250  -2.624  23.409  0.00  0.00    -0.199 NA
ATOM      2  C   UNL     1       8.224  -1.347  23.572  0.00  0.00    +0.287 C 
ATOM      3  N   UNL     1       9.227  -0.476  23.217  0.00  0.00    -0.276 N 
ATOM      4  C   UNL     1       9.120   0.717  24.033  0.00  0.00    +0.156 C 
ATOM      5  C   UNL     1       9.580   1.902  23.192  0.00  0.00    +0.140 C 
ATOM      6  C   UNL     1       9.959   1.319  21.833  0.00  0.00    +0.052 C 
ATOM      7  C   UNL     1       7.639   0.716  24.378  0.00  0.00    +0.302 C 
ATOM      8  C   UNL     1       9.494  -0.139  21.828  0.00  0.00    +0.112 C 
ATOM      9  O   UNL     1       7.224  -0.663  24.196  0.00  0.00    -0.451 OA
ENDROOT
BRANCH   1  15
ATOM     10  C   UNL     1       5.460  -5.704  24.274  0.00  0.00    +0.070 A 
ATOM     11  C   UNL     1       6.251  -5.233  25.326  0.00  0.00    +0.063 A 
ATOM     12 CL   UNL     1       6.016  -5.908  26.918  0.00  0.00    -0.082 Cl
ATOM     13  C   UNL     1       7.237  -4.223  25.113  0.00  0.00    -0.005 A 
ATOM     14  C   UNL     1       8.187  -3.898  26.234  0.00  0.00    +0.047 C 
ATOM     15  C   UNL     1       7.309  -3.575  23.855  0.00  0.00    +0.073 A 
ATOM     16  C   UNL     1       6.473  -4.054  22.830  0.00  0.00    +0.029 A 
ATOM     17  C   UNL     1       5.584  -5.117  23.017  0.00  0.00    +0.022 A 
BRANCH  10  19
ATOM     18  N   UNL     1       3.805  -7.686  24.577  0.00  0.00    -0.191 NA
ATOM     19  C   UNL     1       4.554  -6.812  24.427  0.00  0.00    +0.101 C 
ENDBRANCH  10  19
ENDBRANCH   1  15
BRANCH   7  20
ATOM     20  C   UNL     1       7.421   1.233  25.797  0.00  0.00    +0.428 C 
ATOM     21  F   UNL     1       6.095   1.348  26.052  0.00  0.00    -0.167 F 
ATOM     22  F   UNL     1       7.954   2.462  25.990  0.00  0.00    -0.167 F 
ATOM     23  F   UNL     1       7.938   0.422  26.741  0.00  0.00    -0.167 F 
ENDBRANCH   7  20
BRANCH   5  24
ATOM     24  O   UNL     1      10.741   2.517  23.753  0.00  0.00    -0.390 OA
ATOM     25  H   UNL     1      10.502   2.956  24.589  0.00  0.00    +0.210 HD
ENDBRANCH   5  24
TORSDOF 4
ENDMDL
MODEL 7
REMARK VINA RESULT:      -6.3      3.716      7.110
REMARK  Name = 
REMARK  5 active torsions:
REMARK  status: ('A' for Active; 'I' for Inactive)
REMARK    1  A    between atoms: C_2  and  C_3
REMARK    2  A    between atoms: C_6  and  N_7
REMARK    3  A    between atoms: C_10  and  C_12
REMARK    4  A    between atoms: C_18  and  O_19
REMARK    5  A    between atoms: C_24  and  C_25
REMARK                            x       y       z     vdW  Elec       q    Type
REMARK                         _______ _______ _______ _____ _____    ______ ____
ROOT
ATOM      1  N   UNL     1       5.865  -0.873  24.599  0.00  0.00    -0.199 NA
ATOM      2  C   UNL     1       7.057  -0.511  24.272  0.00  0.00    +0.287 C 
ATOM      3  N   UNL     1       7.463   0.781  24.040  0.00  0.00    -0.276 N 
ATOM      4  C   UNL     1       8.625   0.757  23.174  0.00  0.00    +0.156 C 
ATOM      5  C   UNL     1       9.519   1.931  23.556  0.00  0.00    +0.140 C 
ATOM      6  C   UNL     1       8.800   2.637  24.703  0.00  0.00    +0.052 C 
ATOM      7  C   UNL     1       9.205  -0.614  23.484  0.00  0.00    +0.302 C 
ATOM      8  C   UNL     1       7.635   1.738  25.121  0.00  0.00    +0.112 C 
ATOM      9  O   UNL     1       8.089  -1.366  24.027  0.00  0.00    -0.451 OA
ENDROOT
BRANCH   1  15
ATOM     10  C   UNL     1       4.673  -4.947  24.619  0.00  0.00    +0.070 A 
ATOM     11  C   UNL     1       4.683  -4.270  25.841  0.00  0.00    +0.063 A 
ATOM     12 CL   UNL     1       4.174  -5.124  27.275  0.00  0.00    -0.082 Cl
ATOM     13  C   UNL     1       5.103  -2.909  25.927  0.00  0.00    -0.005 A 
ATOM     14  C   UNL     1       5.279  -2.295  27.290  0.00  0.00    +0.047 C 
ATOM     15  C   UNL     1       5.363  -2.184  24.737  0.00  0.00    +0.073 A 
ATOM     16  C   UNL     1       5.310  -2.891  23.523  0.00  0.00    +0.029 A 
ATOM     17  C   UNL     1       5.002  -4.253  23.456  0.00  0.00    +0.022 A 
BRANCH  10  19
ATOM     18  N   UNL     1       4.163  -7.492  24.474  0.00  0.00    -0.191 NA
ATOM     19  C   UNL     1       4.385  -6.355  24.519  0.00  0.00    +0.101 C 
ENDBRANCH  10  19
ENDBRANCH   1  15
BRANCH   7  20
ATOM     20  C   UNL     1       9.801  -1.238  22.225  0.00  0.00    +0.428 C 
ATOM     21  F   UNL     1       9.982  -0.288  21.275  0.00  0.00    -0.167 F 
ATOM     22  F   UNL     1       8.993  -2.176  21.677  0.00  0.00    -0.167 F 
ATOM     23  F   UNL     1      10.998  -1.819  22.439  0.00  0.00    -0.167 F 
ENDBRANCH   7  20
BRANCH   5  24
ATOM     24  O   UNL     1       9.651   2.856  22.475  0.00  0.00    -0.390 OA
ATOM     25  H   UNL     1      10.228   2.473  21.791  0.00  0.00    +0.210 HD
ENDBRANCH   5  24
TORSDOF 4
ENDMDL
MODEL 8
REMARK VINA RESULT:      -6.3      2.704      3.221
REMARK  Name = 
REMARK  5 active torsions:
REMARK  status: ('A' for Active; 'I' for Inactive)
REMARK    1  A    between atoms: C_2  and  C_3
REMARK    2  A    between atoms: C_6  and  N_7
REMARK    3  A    between atoms: C_10  and  C_12
REMARK    4  A    between atoms: C_18  and  O_19
REMARK    5  A    between atoms: C_24  and  C_25
REMARK                            x       y       z     vdW  Elec       q    Type
REMARK                         _______ _______ _______ _____ _____    ______ ____
ROOT
ATOM      1  N   UNL     1       7.026  -2.732  25.849  0.00  0.00    -0.199 NA
ATOM      2  C   UNL     1       6.315  -3.410  25.016  0.00  0.00    +0.287 C 
ATOM      3  N   UNL     1       5.721  -4.622  25.275  0.00  0.00    -0.276 N 
ATOM      4  C   UNL     1       5.523  -5.322  24.022  0.00  0.00    +0.156 C 
ATOM      5  C   UNL     1       4.249  -6.150  24.143  0.00  0.00    +0.140 C 
ATOM      6  C   UNL     1       3.719  -5.882  25.549  0.00  0.00    +0.052 C 
ATOM      7  C   UNL     1       5.441  -4.166  23.038  0.00  0.00    +0.302 C 
ATOM      8  C   UNL     1       4.550  -4.736  26.130  0.00  0.00    +0.112 C 
ATOM      9  O   UNL     1       6.104  -3.066  23.714  0.00  0.00    -0.451 OA
ENDROOT
BRANCH   1  15
ATOM     10  C   UNL     1       9.399   0.593  24.696  0.00  0.00    +0.070 A 
ATOM     11  C   UNL     1       8.189   0.855  25.345  0.00  0.00    +0.063 A 
ATOM     12 CL   UNL     1       7.756   2.514  25.669  0.00  0.00    -0.082 Cl
ATOM     13  C   UNL     1       7.317  -0.204  25.735  0.00  0.00    -0.005 A 
ATOM     14  C   UNL     1       5.946   0.145  26.249  0.00  0.00    +0.047 C 
ATOM     15  C   UNL     1       7.752  -1.547  25.608  0.00  0.00    +0.073 A 
ATOM     16  C   UNL     1       8.990  -1.771  24.981  0.00  0.00    +0.029 A 
ATOM     17  C   UNL     1       9.793  -0.730  24.503  0.00  0.00    +0.022 A 
BRANCH  10  19
ATOM     18  N   UNL     1      10.895   2.479  23.714  0.00  0.00    -0.191 NA
ATOM     19  C   UNL     1      10.236   1.641  24.171  0.00  0.00    +0.101 C 
ENDBRANCH  10  19
ENDBRANCH   1  15
BRANCH   7  20
ATOM     20  C   UNL     1       6.095  -4.545  21.713  0.00  0.00    +0.428 C 
ATOM     21  F   UNL     1       7.440  -4.629  21.864  0.00  0.00    -0.167 F 
ATOM     22  F   UNL     1       5.878  -3.625  20.744  0.00  0.00    -0.167 F 
ATOM     23  F   UNL     1       5.675  -5.733  21.235  0.00  0.00    -0.167 F 
ENDBRANCH   7  20
BRANCH   5  24
ATOM     24  O   UNL     1       4.525  -7.547  24.030  0.00  0.00    -0.390 OA
ATOM     25  H   UNL     1       5.328  -7.675  23.494  0.00  0.00    +0.210 HD
ENDBRANCH   5  24
TORSDOF 4
ENDMDL
MODEL 9
REMARK VINA RESULT:      -6.3      2.835      3.788
REMARK  Name = 
REMARK  5 active torsions:
REMARK  status: ('A' for Active; 'I' for Inactive)
REMARK    1  A    between atoms: C_2  and  C_3
REMARK    2  A    between atoms: C_6  and  N_7
REMARK    3  A    between atoms: C_10  and  C_12
REMARK    4  A    between atoms: C_18  and  O_19
REMARK    5  A    between atoms: C_24  and  C_25
REMARK                            x       y       z     vdW  Elec       q    Type
REMARK                         _______ _______ _______ _____ _____    ______ ____
ROOT
ATOM      1  N   UNL     1       8.169   0.021  25.725  0.00  0.00    -0.199 NA
ATOM      2  C   UNL     1       7.583  -1.007  25.218  0.00  0.00    +0.287 C 
ATOM      3  N   UNL     1       7.380  -2.206  25.857  0.00  0.00    -0.276 N 
ATOM      4  C   UNL     1       7.242  -3.250  24.861  0.00  0.00    +0.156 C 
ATOM      5  C   UNL     1       6.267  -4.289  25.402  0.00  0.00    +0.140 C 
ATOM      6  C   UNL     1       5.846  -3.779  26.778  0.00  0.00    +0.052 C 
ATOM      7  C   UNL     1       6.733  -2.461  23.665  0.00  0.00    +0.302 C 
ATOM      8  C   UNL     1       6.390  -2.355  26.912  0.00  0.00    +0.112 C 
ATOM      9  O   UNL     1       7.139  -1.093  23.932  0.00  0.00    -0.451 OA
ENDROOT
BRANCH   1  15
ATOM     10  C   UNL     1       8.916   3.902  24.175  0.00  0.00    +0.070 A 
ATOM     11  C   UNL     1       9.909   2.934  24.003  0.00  0.00    +0.063 A 
ATOM     12 CL   UNL     1      11.361   3.369  23.138  0.00  0.00    -0.082 Cl
ATOM     13  C   UNL     1       9.752   1.614  24.523  0.00  0.00    -0.005 A 
ATOM     14  C   UNL     1      10.930   0.679  24.479  0.00  0.00    +0.047 C 
ATOM     15  C   UNL     1       8.508   1.231  25.084  0.00  0.00    +0.073 A 
ATOM     16  C   UNL     1       7.520   2.224  25.210  0.00  0.00    +0.029 A 
ATOM     17  C   UNL     1       7.720   3.544  24.794  0.00  0.00    +0.022 A 
BRANCH  10  19
ATOM     18  N   UNL     1       9.263   6.388  23.498  0.00  0.00    -0.191 NA
ATOM     19  C   UNL     1       9.100   5.275  23.781  0.00  0.00    +0.101 C 
ENDBRANCH  10  19
ENDBRANCH   1  15
BRANCH   7  20
ATOM     20  C   UNL     1       7.311  -3.023  22.369  0.00  0.00    +0.428 C 
ATOM     21  F   UNL     1       6.332  -3.157  21.442  0.00  0.00    -0.167 F 
ATOM     22  F   UNL     1       7.852  -4.253  22.532  0.00  0.00    -0.167 F 
ATOM     23  F   UNL     1       8.264  -2.238  21.830  0.00  0.00    -0.167 F 
ENDBRANCH   7  20
BRANCH   5  24
ATOM     24  O   UNL     1       6.902  -5.557  25.572  0.00  0.00    -0.390 OA
ATOM     25  H   UNL     1       7.123  -5.684  26.512  0.00  0.00    +0.210 HD
ENDBRANCH   5  24
TORSDOF 4
ENDMDL
