MODEL 1
REMARK VINA RESULT:      -9.0      0.000      0.000
REMARK  Name = 
REMARK  5 active torsions:
REMARK  status: ('A' for Active; 'I' for Inactive)
REMARK    1  A    between atoms: C_2  and  C_3
REMARK    2  A    between atoms: C_3  and  C_4
REMARK    3  A    between atoms: C_16  and  C_20
REMARK    4  A    between atoms: N_22  and  C_23
REMARK    5  A    between atoms: C_23  and  C_24
REMARK                            x       y       z     vdW  Elec       q    Type
REMARK                         _______ _______ _______ _____ _____    ______ ____
ROOT
ATOM      1  C   UNL     1       9.771   4.106  23.390  0.00  0.00    +0.029 C 
ATOM      2  C   UNL     1       8.992   2.976  24.047  0.00  0.00    -0.019 A 
ATOM      3  C   UNL     1       8.982   1.587  23.678  0.00  0.00    +0.076 A 
ATOM      4  C   UNL     1       9.643   0.910  22.577  0.00  0.00    +0.260 A 
ATOM      5  O   UNL     1      10.247   1.487  21.679  0.00  0.00    -0.267 OA
ATOM      6  N   UNL     1       9.543  -0.458  22.638  0.00  0.00    -0.303 N 
ATOM      7  H   UNL     1      10.010  -1.002  21.921  0.00  0.00    +0.171 HD
ATOM      8  C   UNL     1       8.847  -1.126  23.625  0.00  0.00    +0.198 A 
ATOM      9  N   UNL     1       8.188  -0.555  24.587  0.00  0.00    -0.217 NA
ATOM     10  C   UNL     1       8.281   0.805  24.579  0.00  0.00    +0.116 A 
ATOM     11  S   UNL     1       7.530   1.750  25.783  0.00  0.00    -0.073 S 
ATOM     12  C   UNL     1       8.228   3.183  25.183  0.00  0.00    -0.004 A 
ATOM     13  C   UNL     1       7.994   4.499  25.858  0.00  0.00    +0.043 C 
ATOM     14  C   UNL     1       8.949   5.577  25.326  0.00  0.00    +0.006 C 
ATOM     15  C   UNL     1       9.154   5.469  23.807  0.00  0.00    +0.009 C 
ENDROOT
BRANCH   8  16
ATOM     16  C   UNL     1       8.921  -2.646  23.523  0.00  0.00    +0.280 C 
ATOM     17  N   UNL     1       7.810  -3.249  22.983  0.00  0.00    -0.305 N 
ATOM     18  H   UNL     1       6.991  -2.664  22.836  0.00  0.00    +0.149 HD
ATOM     19  O   UNL     1       9.923  -3.209  23.938  0.00  0.00    -0.267 OA
BRANCH  17  20
ATOM     20  C   UNL     1       7.678  -4.688  22.951  0.00  0.00    +0.140 C 
BRANCH  20  21
ATOM     21  C   UNL     1       6.843  -5.243  24.083  0.00  0.00    -0.028 A 
ATOM     22  C   UNL     1       7.289  -5.227  25.415  0.00  0.00    +0.032 A 
ATOM     23  C   UNL     1       6.466  -5.710  26.437  0.00  0.00    +0.076 A 
ATOM     24  C   UNL     1       5.197  -6.211  26.148  0.00  0.00    +0.142 A 
ATOM     25  O   UNL     1       4.335  -6.680  27.105  0.00  0.00    -0.481 OA
ATOM     26  C   UNL     1       4.984  -7.034  28.320  0.00  0.00    +0.325 C 
ATOM     27  C   UNL     1       6.145  -6.158  28.782  0.00  0.00    +0.255 C 
ATOM     28  O   UNL     1       6.454  -6.001  29.960  0.00  0.00    -0.272 OA
ATOM     29  C   UNL     1       4.721  -6.180  24.841  0.00  0.00    +0.048 A 
ATOM     30  N   UNL     1       6.896  -5.636  27.762  0.00  0.00    -0.280 N 
ATOM     31  H   UNL     1       7.735  -5.135  28.016  0.00  0.00    +0.155 HD
ATOM     32  C   UNL     1       5.540  -5.698  23.814  0.00  0.00    +0.009 A 
ENDBRANCH  20  21
ENDBRANCH  17  20
ENDBRANCH   8  16
BRANCH   1  33
ATOM     33  C   UNL     1      11.260   3.991  23.777  0.00  0.00    +0.103 C 
BRANCH  33  34
ATOM     34  C   UNL     1      12.110   5.177  23.386  0.00  0.00    +0.211 C 
ATOM     35  O   UNL     1      12.516   6.004  24.195  0.00  0.00    -0.276 OA
ATOM     36  N   UNL     1      12.429   5.278  22.067  0.00  0.00    -0.329 N 
ATOM     37  H   UNL     1      13.091   6.006  21.822  0.00  0.00    +0.145 HD
ATOM     38  H   UNL     1      12.340   4.493  21.435  0.00  0.00    +0.145 HD
ENDBRANCH  33  34
ENDBRANCH   1  33
TORSDOF 5
ENDMDL
MODEL 2
REMARK VINA RESULT:      -8.9      3.070     10.266
REMARK  Name = 
REMARK  5 active torsions:
REMARK  status: ('A' for Active; 'I' for Inactive)
REMARK    1  A    between atoms: C_2  and  C_3
REMARK    2  A    between atoms: C_3  and  C_4
REMARK    3  A    between atoms: C_16  and  C_20
REMARK    4  A    between atoms: N_22  and  C_23
REMARK    5  A    between atoms: C_23  and  C_24
REMARK                            x       y       z     vdW  Elec       q    Type
REMARK                         _______ _______ _______ _____ _____    ______ ____
ROOT
ATOM      1  C   UNL     1       4.031  -6.274  23.828  0.00  0.00    +0.029 C 
ATOM      2  C   UNL     1       5.323  -5.722  24.412  0.00  0.00    -0.019 A 
ATOM      3  C   UNL     1       6.308  -4.910  23.752  0.00  0.00    +0.076 A 
ATOM      4  C   UNL     1       6.371  -4.458  22.373  0.00  0.00    +0.260 A 
ATOM      5  O   UNL     1       5.603  -4.829  21.493  0.00  0.00    -0.267 OA
ATOM      6  N   UNL     1       7.377  -3.551  22.142  0.00  0.00    -0.303 N 
ATOM      7  H   UNL     1       7.463  -3.164  21.209  0.00  0.00    +0.171 HD
ATOM      8  C   UNL     1       8.267  -3.140  23.113  0.00  0.00    +0.198 A 
ATOM      9  N   UNL     1       8.285  -3.571  24.338  0.00  0.00    -0.217 NA
ATOM     10  C   UNL     1       7.287  -4.456  24.618  0.00  0.00    +0.116 A 
ATOM     11  S   UNL     1       7.097  -5.109  26.181  0.00  0.00    -0.073 S 
ATOM     12  C   UNL     1       5.653  -5.899  25.745  0.00  0.00    -0.004 A 
ATOM     13  C   UNL     1       4.872  -6.693  26.747  0.00  0.00    +0.043 C 
ATOM     14  C   UNL     1       3.480  -7.055  26.210  0.00  0.00    +0.006 C 
ATOM     15  C   UNL     1       3.515  -7.435  24.721  0.00  0.00    +0.009 C 
ENDROOT
BRANCH   8  16
ATOM     16  C   UNL     1       9.262  -2.085  22.642  0.00  0.00    +0.280 C 
ATOM     17  N   UNL     1       8.701  -0.969  22.068  0.00  0.00    -0.305 N 
ATOM     18  H   UNL     1       7.704  -1.000  21.874  0.00  0.00    +0.149 HD
ATOM     19  O   UNL     1      10.456  -2.307  22.781  0.00  0.00    -0.267 OA
BRANCH  17  20
ATOM     20  C   UNL     1       9.521   0.050  21.451  0.00  0.00    +0.140 C 
BRANCH  20  21
ATOM     21  C   UNL     1       9.315   1.428  22.040  0.00  0.00    -0.028 A 
ATOM     22  C   UNL     1       8.182   2.203  21.741  0.00  0.00    +0.032 A 
ATOM     23  C   UNL     1       8.009   3.454  22.341  0.00  0.00    +0.076 A 
ATOM     24  C   UNL     1       8.955   3.945  23.242  0.00  0.00    +0.142 A 
ATOM     25  O   UNL     1       8.834   5.152  23.878  0.00  0.00    -0.481 OA
ATOM     26  C   UNL     1       7.935   6.043  23.228  0.00  0.00    +0.325 C 
ATOM     27  C   UNL     1       6.679   5.446  22.601  0.00  0.00    +0.255 C 
ATOM     28  O   UNL     1       5.622   6.059  22.475  0.00  0.00    -0.272 OA
ATOM     29  C   UNL     1      10.051   3.163  23.589  0.00  0.00    +0.048 A 
ATOM     30  N   UNL     1       6.852   4.190  22.081  0.00  0.00    -0.280 N 
ATOM     31  H   UNL     1       6.081   3.794  21.564  0.00  0.00    +0.155 HD
ATOM     32  C   UNL     1      10.230   1.910  22.992  0.00  0.00    +0.009 A 
ENDBRANCH  20  21
ENDBRANCH  17  20
ENDBRANCH   8  16
BRANCH   1  33
ATOM     33  C   UNL     1       3.002  -5.133  23.693  0.00  0.00    +0.103 C 
BRANCH  33  34
ATOM     34  C   UNL     1       1.619  -5.572  23.275  0.00  0.00    +0.211 C 
ATOM     35  O   UNL     1       1.388  -6.127  22.206  0.00  0.00    -0.276 OA
ATOM     36  N   UNL     1       0.619  -5.338  24.168  0.00  0.00    -0.329 N 
ATOM     37  H   UNL     1      -0.286  -5.733  23.939  0.00  0.00    +0.145 HD
ATOM     38  H   UNL     1       0.810  -5.135  25.140  0.00  0.00    +0.145 HD
ENDBRANCH  33  34
ENDBRANCH   1  33
TORSDOF 5
ENDMDL
MODEL 3
REMARK VINA RESULT:      -8.8      1.564      2.310
REMARK  Name = 
REMARK  5 active torsions:
REMARK  status: ('A' for Active; 'I' for Inactive)
REMARK    1  A    between atoms: C_2  and  C_3
REMARK    2  A    between atoms: C_3  and  C_4
REMARK    3  A    between atoms: C_16  and  C_20
REMARK    4  A    between atoms: N_22  and  C_23
REMARK    5  A    between atoms: C_23  and  C_24
REMARK                            x       y       z     vdW  Elec       q    Type
REMARK                         _______ _______ _______ _____ _____    ______ ____
ROOT
ATOM      1  C   UNL     1      10.312   5.323  23.616  0.00  0.00    +0.029 C 
ATOM      2  C   UNL     1       9.392   4.226  24.131  0.00  0.00    -0.019 A 
ATOM      3  C   UNL     1       9.334   2.856  23.701  0.00  0.00    +0.076 A 
ATOM      4  C   UNL     1      10.070   2.177  22.649  0.00  0.00    +0.260 A 
ATOM      5  O   UNL     1      10.808   2.745  21.851  0.00  0.00    -0.267 OA
ATOM      6  N   UNL     1       9.876   0.818  22.637  0.00  0.00    -0.303 N 
ATOM      7  H   UNL     1      10.385   0.270  21.951  0.00  0.00    +0.171 HD
ATOM      8  C   UNL     1       9.031   0.163  23.510  0.00  0.00    +0.198 A 
ATOM      9  N   UNL     1       8.305   0.742  24.418  0.00  0.00    -0.217 NA
ATOM     10  C   UNL     1       8.486   2.091  24.482  0.00  0.00    +0.116 A 
ATOM     11  S   UNL     1       7.666   3.039  25.637  0.00  0.00    -0.073 S 
ATOM     12  C   UNL     1       8.519   4.442  25.184  0.00  0.00    -0.004 A 
ATOM     13  C   UNL     1       8.296   5.745  25.888  0.00  0.00    +0.043 C 
ATOM     14  C   UNL     1       9.372   6.774  25.514  0.00  0.00    +0.006 C 
ATOM     15  C   UNL     1       9.741   6.709  24.024  0.00  0.00    +0.009 C 
ENDROOT
BRANCH   8  16
ATOM     16  C   UNL     1       9.017  -1.353  23.348  0.00  0.00    +0.280 C 
ATOM     17  N   UNL     1       9.444  -2.061  24.446  0.00  0.00    -0.305 N 
ATOM     18  H   UNL     1       9.863  -1.531  25.204  0.00  0.00    +0.149 HD
ATOM     19  O   UNL     1       8.661  -1.821  22.276  0.00  0.00    -0.267 OA
BRANCH  17  20
ATOM     20  C   UNL     1       9.616  -3.496  24.392  0.00  0.00    +0.140 C 
BRANCH  20  21
ATOM     21  C   UNL     1       8.505  -4.263  25.074  0.00  0.00    -0.028 A 
ATOM     22  C   UNL     1       7.453  -4.848  24.351  0.00  0.00    +0.032 A 
ATOM     23  C   UNL     1       6.469  -5.587  25.016  0.00  0.00    +0.076 A 
ATOM     24  C   UNL     1       6.522  -5.752  26.400  0.00  0.00    +0.142 A 
ATOM     25  O   UNL     1       5.602  -6.480  27.108  0.00  0.00    -0.481 OA
ATOM     26  C   UNL     1       4.375  -6.665  26.412  0.00  0.00    +0.325 C 
ATOM     27  C   UNL     1       4.446  -6.890  24.905  0.00  0.00    +0.255 C 
ATOM     28  O   UNL     1       3.617  -7.538  24.272  0.00  0.00    -0.272 OA
ATOM     29  C   UNL     1       7.589  -5.226  27.120  0.00  0.00    +0.048 A 
ATOM     30  N   UNL     1       5.461  -6.212  24.281  0.00  0.00    -0.280 N 
ATOM     31  H   UNL     1       5.487  -6.245  23.273  0.00  0.00    +0.155 HD
ATOM     32  C   UNL     1       8.576  -4.485  26.460  0.00  0.00    +0.009 A 
ENDBRANCH  20  21
ENDBRANCH  17  20
ENDBRANCH   8  16
BRANCH   1  33
ATOM     33  C   UNL     1      11.737   5.091  24.159  0.00  0.00    +0.103 C 
BRANCH  33  34
ATOM     34  C   UNL     1      12.825   5.113  23.113  0.00  0.00    +0.211 C 
ATOM     35  O   UNL     1      13.995   4.839  23.359  0.00  0.00    -0.276 OA
ATOM     36  N   UNL     1      12.437   5.437  21.849  0.00  0.00    -0.329 N 
ATOM     37  H   UNL     1      13.142   5.342  21.126  0.00  0.00    +0.145 HD
ATOM     38  H   UNL     1      11.466   5.406  21.565  0.00  0.00    +0.145 HD
ENDBRANCH  33  34
ENDBRANCH   1  33
TORSDOF 5
ENDMDL
MODEL 4
REMARK VINA RESULT:      -8.6      2.028      2.799
REMARK  Name = 
REMARK  5 active torsions:
REMARK  status: ('A' for Active; 'I' for Inactive)
REMARK    1  A    between atoms: C_2  and  C_3
REMARK    2  A    between atoms: C_3  and  C_4
REMARK    3  A    between atoms: C_16  and  C_20
REMARK    4  A    between atoms: N_22  and  C_23
REMARK    5  A    between atoms: C_23  and  C_24
REMARK                            x       y       z     vdW  Elec       q    Type
REMARK                         _______ _______ _______ _____ _____    ______ ____
ROOT
ATOM      1  C   UNL     1       8.728   5.513  23.326  0.00  0.00    +0.029 C 
ATOM      2  C   UNL     1       8.056   4.180  23.035  0.00  0.00    -0.019 A 
ATOM      3  C   UNL     1       8.677   2.888  22.931  0.00  0.00    +0.076 A 
ATOM      4  C   UNL     1      10.079   2.519  23.012  0.00  0.00    +0.260 A 
ATOM      5  O   UNL     1      11.001   3.326  23.067  0.00  0.00    -0.267 OA
ATOM      6  N   UNL     1      10.286   1.161  23.038  0.00  0.00    -0.303 N 
ATOM      7  H   UNL     1      11.238   0.826  23.128  0.00  0.00    +0.171 HD
ATOM      8  C   UNL     1       9.265   0.236  22.952  0.00  0.00    +0.198 A 
ATOM      9  N   UNL     1       8.007   0.526  22.811  0.00  0.00    -0.217 NA
ATOM     10  C   UNL     1       7.754   1.865  22.805  0.00  0.00    +0.116 A 
ATOM     11  S   UNL     1       6.163   2.464  22.679  0.00  0.00    -0.073 S 
ATOM     12  C   UNL     1       6.681   4.070  22.909  0.00  0.00    -0.004 A 
ATOM     13  C   UNL     1       5.700   5.201  22.954  0.00  0.00    +0.043 C 
ATOM     14  C   UNL     1       6.359   6.491  23.462  0.00  0.00    +0.006 C 
ATOM     15  C   UNL     1       7.781   6.671  22.908  0.00  0.00    +0.009 C 
ENDROOT
BRANCH   8  16
ATOM     16  C   UNL     1       9.726  -1.214  23.058  0.00  0.00    +0.280 C 
ATOM     17  N   UNL     1       9.116  -1.949  24.047  0.00  0.00    -0.305 N 
ATOM     18  H   UNL     1       8.532  -1.442  24.706  0.00  0.00    +0.149 HD
ATOM     19  O   UNL     1      10.596  -1.606  22.295  0.00  0.00    -0.267 OA
BRANCH  17  20
ATOM     20  C   UNL     1       9.547  -3.293  24.357  0.00  0.00    +0.140 C 
BRANCH  20  21
ATOM     21  C   UNL     1       8.484  -4.127  25.037  0.00  0.00    -0.028 A 
ATOM     22  C   UNL     1       7.430  -4.717  24.321  0.00  0.00    +0.032 A 
ATOM     23  C   UNL     1       6.493  -5.516  24.982  0.00  0.00    +0.076 A 
ATOM     24  C   UNL     1       6.594  -5.739  26.355  0.00  0.00    +0.142 A 
ATOM     25  O   UNL     1       5.721  -6.528  27.058  0.00  0.00    -0.481 OA
ATOM     26  C   UNL     1       4.480  -6.725  26.391  0.00  0.00    +0.325 C 
ATOM     27  C   UNL     1       4.511  -6.883  24.874  0.00  0.00    +0.255 C 
ATOM     28  O   UNL     1       3.685  -7.532  24.238  0.00  0.00    -0.272 OA
ATOM     29  C   UNL     1       7.665  -5.207  27.065  0.00  0.00    +0.048 A 
ATOM     30  N   UNL     1       5.483  -6.145  24.251  0.00  0.00    -0.280 N 
ATOM     31  H   UNL     1       5.479  -6.133  23.241  0.00  0.00    +0.155 HD
ATOM     32  C   UNL     1       8.606  -4.406  26.409  0.00  0.00    +0.009 A 
ENDBRANCH  20  21
ENDBRANCH  17  20
ENDBRANCH   8  16
BRANCH   1  33
ATOM     33  C   UNL     1       9.113   5.576  24.819  0.00  0.00    +0.103 C 
BRANCH  33  34
ATOM     34  C   UNL     1      10.375   6.349  25.116  0.00  0.00    +0.211 C 
ATOM     35  O   UNL     1      10.484   7.108  26.074  0.00  0.00    -0.276 OA
ATOM     36  N   UNL     1      11.418   6.147  24.266  0.00  0.00    -0.329 N 
ATOM     37  H   UNL     1      12.299   6.575  24.528  0.00  0.00    +0.145 HD
ATOM     38  H   UNL     1      11.451   5.349  23.644  0.00  0.00    +0.145 HD
ENDBRANCH  33  34
ENDBRANCH   1  33
TORSDOF 5
ENDMDL
MODEL 5
REMARK VINA RESULT:      -8.5      1.587      2.055
REMARK  Name = 
REMARK  5 active torsions:
REMARK  status: ('A' for Active; 'I' for Inactive)
REMARK    1  A    between atoms: C_2  and  C_3
REMARK    2  A    between atoms: C_3  and  C_4
REMARK    3  A    between atoms: C_16  and  C_20
REMARK    4  A    between atoms: N_22  and  C_23
REMARK    5  A    between atoms: C_23  and  C_24
REMARK                            x       y       z     vdW  Elec       q    Type
REMARK                         _______ _______ _______ _____ _____    ______ ____
ROOT
ATOM      1  C   UNL     1       8.903   5.039  22.881  0.00  0.00    +0.029 C 
ATOM      2  C   UNL     1       7.976   3.833  22.929  0.00  0.00    -0.019 A 
ATOM      3  C   UNL     1       8.302   2.464  22.637  0.00  0.00    +0.076 A 
ATOM      4  C   UNL     1       9.548   1.881  22.172  0.00  0.00    +0.260 A 
ATOM      5  O   UNL     1      10.527   2.535  21.828  0.00  0.00    -0.267 OA
ATOM      6  N   UNL     1       9.539   0.507  22.165  0.00  0.00    -0.303 N 
ATOM      7  H   UNL     1      10.387   0.027  21.885  0.00  0.00    +0.171 HD
ATOM      8  C   UNL     1       8.441  -0.247  22.524  0.00  0.00    +0.198 A 
ATOM      9  N   UNL     1       7.289   0.237  22.880  0.00  0.00    -0.217 NA
ATOM     10  C   UNL     1       7.261   1.599  22.925  0.00  0.00    +0.116 A 
ATOM     11  S   UNL     1       5.861   2.439  23.415  0.00  0.00    -0.073 S 
ATOM     12  C   UNL     1       6.665   3.939  23.361  0.00  0.00    -0.004 A 
ATOM     13  C   UNL     1       5.966   5.206  23.747  0.00  0.00    +0.043 C 
ATOM     14  C   UNL     1       6.959   6.366  23.904  0.00  0.00    +0.006 C 
ATOM     15  C   UNL     1       8.055   6.339  22.827  0.00  0.00    +0.009 C 
ENDROOT
BRANCH   8  16
ATOM     16  C   UNL     1       8.680  -1.753  22.495  0.00  0.00    +0.280 C 
ATOM     17  N   UNL     1       7.543  -2.525  22.530  0.00  0.00    -0.305 N 
ATOM     18  H   UNL     1       6.665  -2.048  22.717  0.00  0.00    +0.149 HD
ATOM     19  O   UNL     1       9.833  -2.159  22.467  0.00  0.00    -0.267 OA
BRANCH  17  20
ATOM     20  C   UNL     1       7.617  -3.964  22.647  0.00  0.00    +0.140 C 
BRANCH  20  21
ATOM     21  C   UNL     1       7.508  -4.460  24.072  0.00  0.00    -0.028 A 
ATOM     22  C   UNL     1       6.307  -4.972  24.591  0.00  0.00    +0.032 A 
ATOM     23  C   UNL     1       6.261  -5.461  25.900  0.00  0.00    +0.076 A 
ATOM     24  C   UNL     1       7.402  -5.448  26.703  0.00  0.00    +0.142 A 
ATOM     25  O   UNL     1       7.427  -5.931  27.985  0.00  0.00    -0.481 OA
ATOM     26  C   UNL     1       6.137  -6.021  28.578  0.00  0.00    +0.325 C 
ATOM     27  C   UNL     1       4.978  -6.451  27.683  0.00  0.00    +0.255 C 
ATOM     28  O   UNL     1       3.985  -7.047  28.093  0.00  0.00    -0.272 OA
ATOM     29  C   UNL     1       8.609  -4.996  26.182  0.00  0.00    +0.048 A 
ATOM     30  N   UNL     1       5.078  -6.021  26.386  0.00  0.00    -0.280 N 
ATOM     31  H   UNL     1       4.288  -6.191  25.781  0.00  0.00    +0.155 HD
ATOM     32  C   UNL     1       8.662  -4.505  24.872  0.00  0.00    +0.009 A 
ENDBRANCH  20  21
ENDBRANCH  17  20
ENDBRANCH   8  16
BRANCH   1  33
ATOM     33  C   UNL     1       9.851   5.003  24.097  0.00  0.00    +0.103 C 
BRANCH  33  34
ATOM     34  C   UNL     1      11.231   5.560  23.841  0.00  0.00    +0.211 C 
ATOM     35  O   UNL     1      11.770   6.378  24.579  0.00  0.00    -0.276 OA
ATOM     36  N   UNL     1      11.875   5.086  22.739  0.00  0.00    -0.329 N 
ATOM     37  H   UNL     1      12.842   5.372  22.629  0.00  0.00    +0.145 HD
ATOM     38  H   UNL     1      11.579   4.238  22.273  0.00  0.00    +0.145 HD
ENDBRANCH  33  34
ENDBRANCH   1  33
TORSDOF 5
ENDMDL
MODEL 6
REMARK VINA RESULT:      -8.4      2.660      3.636
REMARK  Name = 
REMARK  5 active torsions:
REMARK  status: ('A' for Active; 'I' for Inactive)
REMARK    1  A    between atoms: C_2  and  C_3
REMARK    2  A    between atoms: C_3  and  C_4
REMARK    3  A    between atoms: C_16  and  C_20
REMARK    4  A    between atoms: N_22  and  C_23
REMARK    5  A    between atoms: C_23  and  C_24
REMARK                            x       y       z     vdW  Elec       q    Type
REMARK                         _______ _______ _______ _____ _____    ______ ____
ROOT
ATOM      1  C   UNL     1       7.497   4.964  24.111  0.00  0.00    +0.029 C 
ATOM      2  C   UNL     1       8.637   3.982  23.891  0.00  0.00    -0.019 A 
ATOM      3  C   UNL     1       8.545   2.563  23.684  0.00  0.00    +0.076 A 
ATOM      4  C   UNL     1       7.382   1.694  23.688  0.00  0.00    +0.260 A 
ATOM      5  O   UNL     1       6.254   2.056  24.007  0.00  0.00    -0.267 OA
ATOM      6  N   UNL     1       7.657   0.411  23.282  0.00  0.00    -0.303 N 
ATOM      7  H   UNL     1       6.887  -0.246  23.226  0.00  0.00    +0.171 HD
ATOM      8  C   UNL     1       8.922  -0.023  22.943  0.00  0.00    +0.198 A 
ATOM      9  N   UNL     1       9.997   0.704  22.991  0.00  0.00    -0.217 NA
ATOM     10  C   UNL     1       9.765   1.993  23.366  0.00  0.00    +0.116 A 
ATOM     11  S   UNL     1      11.032   3.132  23.448  0.00  0.00    -0.073 S 
ATOM     12  C   UNL     1       9.952   4.404  23.787  0.00  0.00    -0.004 A 
ATOM     13  C   UNL     1      10.440   5.810  23.952  0.00  0.00    +0.043 C 
ATOM     14  C   UNL     1       9.274   6.809  23.953  0.00  0.00    +0.006 C 
ATOM     15  C   UNL     1       8.057   6.276  24.725  0.00  0.00    +0.009 C 
ENDROOT
BRANCH   8  16
ATOM     16  C   UNL     1       8.980  -1.472  22.468  0.00  0.00    +0.280 C 
ATOM     17  N   UNL     1       7.827  -2.195  22.661  0.00  0.00    -0.305 N 
ATOM     18  H   UNL     1       7.099  -1.764  23.224  0.00  0.00    +0.149 HD
ATOM     19  O   UNL     1      10.024  -1.884  21.983  0.00  0.00    -0.267 OA
BRANCH  17  20
ATOM     20  C   UNL     1       7.778  -3.614  22.388  0.00  0.00    +0.140 C 
BRANCH  20  21
ATOM     21  C   UNL     1       7.066  -4.410  23.459  0.00  0.00    -0.028 A 
ATOM     22  C   UNL     1       5.965  -5.233  23.166  0.00  0.00    +0.032 A 
ATOM     23  C   UNL     1       5.363  -5.986  24.178  0.00  0.00    +0.076 A 
ATOM     24  C   UNL     1       5.846  -5.932  25.486  0.00  0.00    +0.142 A 
ATOM     25  O   UNL     1       5.315  -6.661  26.517  0.00  0.00    -0.481 OA
ATOM     26  C   UNL     1       3.989  -7.110  26.264  0.00  0.00    +0.325 C 
ATOM     27  C   UNL     1       3.652  -7.548  24.841  0.00  0.00    +0.255 C 
ATOM     28  O   UNL     1       2.799  -8.389  24.571  0.00  0.00    -0.272 OA
ATOM     29  C   UNL     1       6.970  -5.166  25.777  0.00  0.00    +0.048 A 
ATOM     30  N   UNL     1       4.307  -6.844  23.865  0.00  0.00    -0.280 N 
ATOM     31  H   UNL     1       4.042  -7.025  22.908  0.00  0.00    +0.155 HD
ATOM     32  C   UNL     1       7.577  -4.410  24.768  0.00  0.00    +0.009 A 
ENDBRANCH  20  21
ENDBRANCH  17  20
ENDBRANCH   8  16
BRANCH   1  33
ATOM     33  C   UNL     1       6.765   5.205  22.775  0.00  0.00    +0.103 C 
BRANCH  33  34
ATOM     34  C   UNL     1       5.261   5.089  22.846  0.00  0.00    +0.211 C 
ATOM     35  O   UNL     1       4.556   5.890  23.450  0.00  0.00    -0.276 OA
ATOM     36  N   UNL     1       4.707   4.041  22.177  0.00  0.00    -0.329 N 
ATOM     37  H   UNL     1       3.695   4.026  22.129  0.00  0.00    +0.145 HD
ATOM     38  H   UNL     1       5.219   3.532  21.468  0.00  0.00    +0.145 HD
ENDBRANCH  33  34
ENDBRANCH   1  33
TORSDOF 5
ENDMDL
MODEL 7
REMARK VINA RESULT:      -8.4      2.221      3.016
REMARK  Name = 
REMARK  5 active torsions:
REMARK  status: ('A' for Active; 'I' for Inactive)
REMARK    1  A    between atoms: C_2  and  C_3
REMARK    2  A    between atoms: C_3  and  C_4
REMARK    3  A    between atoms: C_16  and  C_20
REMARK    4  A    between atoms: N_22  and  C_23
REMARK    5  A    between atoms: C_23  and  C_24
REMARK                            x       y       z     vdW  Elec       q    Type
REMARK                         _______ _______ _______ _____ _____    ______ ____
ROOT
ATOM      1  C   UNL     1       7.292   4.125  23.968  0.00  0.00    +0.029 C 
ATOM      2  C   UNL     1       8.464   3.155  23.960  0.00  0.00    -0.019 A 
ATOM      3  C   UNL     1       8.415   1.720  24.017  0.00  0.00    +0.076 A 
ATOM      4  C   UNL     1       7.276   0.831  24.156  0.00  0.00    +0.260 A 
ATOM      5  O   UNL     1       6.131   1.210  24.376  0.00  0.00    -0.267 OA
ATOM      6  N   UNL     1       7.596  -0.496  24.000  0.00  0.00    -0.303 N 
ATOM      7  H   UNL     1       6.846  -1.176  24.049  0.00  0.00    +0.171 HD
ATOM      8  C   UNL     1       8.882  -0.945  23.776  0.00  0.00    +0.198 A 
ATOM      9  N   UNL     1       9.936  -0.188  23.713  0.00  0.00    -0.217 NA
ATOM     10  C   UNL     1       9.659   1.140  23.837  0.00  0.00    +0.116 A 
ATOM     11  S   UNL     1      10.892   2.313  23.736  0.00  0.00    -0.073 S 
ATOM     12  C   UNL     1       9.769   3.592  23.809  0.00  0.00    -0.004 A 
ATOM     13  C   UNL     1      10.215   5.019  23.722  0.00  0.00    +0.043 C 
ATOM     14  C   UNL     1       9.023   5.964  23.512  0.00  0.00    +0.006 C 
ATOM     15  C   UNL     1       7.800   5.545  24.342  0.00  0.00    +0.009 C 
ENDROOT
BRANCH   8  16
ATOM     16  C   UNL     1       8.991  -2.454  23.578  0.00  0.00    +0.280 C 
ATOM     17  N   UNL     1       7.842  -3.070  23.143  0.00  0.00    -0.305 N 
ATOM     18  H   UNL     1       6.994  -2.510  23.129  0.00  0.00    +0.149 HD
ATOM     19  O   UNL     1      10.055  -2.999  23.836  0.00  0.00    -0.267 OA
BRANCH  17  20
ATOM     20  C   UNL     1       7.754  -4.509  23.044  0.00  0.00    +0.140 C 
BRANCH  20  21
ATOM     21  C   UNL     1       6.916  -5.139  24.133  0.00  0.00    -0.028 A 
ATOM     22  C   UNL     1       7.318  -5.135  25.479  0.00  0.00    +0.032 A 
ATOM     23  C   UNL     1       6.492  -5.690  26.461  0.00  0.00    +0.076 A 
ATOM     24  C   UNL     1       5.261  -6.250  26.118  0.00  0.00    +0.142 A 
ATOM     25  O   UNL     1       4.397  -6.790  27.034  0.00  0.00    -0.481 OA
ATOM     26  C   UNL     1       5.026  -7.142  28.260  0.00  0.00    +0.325 C 
ATOM     27  C   UNL     1       6.123  -6.219  28.782  0.00  0.00    +0.255 C 
ATOM     28  O   UNL     1       6.386  -6.078  29.973  0.00  0.00    -0.272 OA
ATOM     29  C   UNL     1       4.825  -6.209  24.797  0.00  0.00    +0.048 A 
ATOM     30  N   UNL     1       6.876  -5.629  27.801  0.00  0.00    -0.280 N 
ATOM     31  H   UNL     1       7.679  -5.092  28.095  0.00  0.00    +0.155 HD
ATOM     32  C   UNL     1       5.648  -5.655  23.810  0.00  0.00    +0.009 A 
ENDBRANCH  20  21
ENDBRANCH  17  20
ENDBRANCH   8  16
BRANCH   1  33
ATOM     33  C   UNL     1       6.591   4.093  22.595  0.00  0.00    +0.103 C 
BRANCH  33  34
ATOM     34  C   UNL     1       5.083   4.064  22.653  0.00  0.00    +0.211 C 
ATOM     35  O   UNL     1       4.397   5.077  22.734  0.00  0.00    -0.276 OA
ATOM     36  N   UNL     1       4.502   2.834  22.590  0.00  0.00    -0.329 N 
ATOM     37  H   UNL     1       3.492   2.820  22.514  0.00  0.00    +0.145 HD
ATOM     38  H   UNL     1       5.010   2.022  22.261  0.00  0.00    +0.145 HD
ENDBRANCH  33  34
ENDBRANCH   1  33
TORSDOF 5
ENDMDL
MODEL 8
REMARK VINA RESULT:      -8.3      2.890     10.212
REMARK  Name = 
REMARK  5 active torsions:
REMARK  status: ('A' for Active; 'I' for Inactive)
REMARK    1  A    between atoms: C_2  and  C_3
REMARK    2  A    between atoms: C_3  and  C_4
REMARK    3  A    between atoms: C_16  and  C_20
REMARK    4  A    between atoms: N_22  and  C_23
REMARK    5  A    between atoms: C_23  and  C_24
REMARK                            x       y       z     vdW  Elec       q    Type
REMARK                         _______ _______ _______ _____ _____    ______ ____
ROOT
ATOM      1  C   UNL     1       3.419  -6.708  25.036  0.00  0.00    +0.029 C 
ATOM      2  C   UNL     1       4.648  -6.041  25.635  0.00  0.00    -0.019 A 
ATOM      3  C   UNL     1       5.734  -5.413  24.934  0.00  0.00    +0.076 A 
ATOM      4  C   UNL     1       5.982  -5.300  23.508  0.00  0.00    +0.260 A 
ATOM      5  O   UNL     1       5.314  -5.864  22.647  0.00  0.00    -0.267 OA
ATOM      6  N   UNL     1       7.039  -4.479  23.200  0.00  0.00    -0.303 N 
ATOM      7  H   UNL     1       7.252  -4.323  22.221  0.00  0.00    +0.171 HD
ATOM      8  C   UNL     1       7.817  -3.854  24.153  0.00  0.00    +0.198 A 
ATOM      9  N   UNL     1       7.670  -3.984  25.437  0.00  0.00    -0.217 NA
ATOM     10  C   UNL     1       6.615  -4.772  25.787  0.00  0.00    +0.116 A 
ATOM     11  S   UNL     1       6.213  -5.036  27.423  0.00  0.00    -0.073 S 
ATOM     12  C   UNL     1       4.806  -5.899  27.003  0.00  0.00    -0.004 A 
ATOM     13  C   UNL     1       3.881  -6.430  28.055  0.00  0.00    +0.043 C 
ATOM     14  C   UNL     1       2.553  -6.901  27.445  0.00  0.00    +0.006 C 
ATOM     15  C   UNL     1       2.757  -7.623  26.104  0.00  0.00    +0.009 C 
ENDROOT
BRANCH   8  16
ATOM     16  C   UNL     1       8.899  -2.945  23.579  0.00  0.00    +0.280 C 
ATOM     17  N   UNL     1       8.454  -2.002  22.684  0.00  0.00    -0.305 N 
ATOM     18  H   UNL     1       7.490  -2.079  22.371  0.00  0.00    +0.149 HD
ATOM     19  O   UNL     1      10.057  -3.127  23.926  0.00  0.00    -0.267 OA
BRANCH  17  20
ATOM     20  C   UNL     1       9.379  -1.164  21.955  0.00  0.00    +0.140 C 
BRANCH  20  21
ATOM     21  C   UNL     1       9.446   0.255  22.474  0.00  0.00    -0.028 A 
ATOM     22  C   UNL     1       8.582   1.260  22.006  0.00  0.00    +0.032 A 
ATOM     23  C   UNL     1       8.648   2.548  22.544  0.00  0.00    +0.076 A 
ATOM     24  C   UNL     1       9.566   2.851  23.550  0.00  0.00    +0.142 A 
ATOM     25  O   UNL     1       9.666   4.087  24.133  0.00  0.00    -0.481 OA
ATOM     26  C   UNL     1       9.100   5.127  23.346  0.00  0.00    +0.325 C 
ATOM     27  C   UNL     1       7.823   4.812  22.572  0.00  0.00    +0.255 C 
ATOM     28  O   UNL     1       6.972   5.651  22.289  0.00  0.00    -0.272 OA
ATOM     29  C   UNL     1      10.386   1.851  24.062  0.00  0.00    +0.048 A 
ATOM     30  N   UNL     1       7.747   3.523  22.113  0.00  0.00    -0.280 N 
ATOM     31  H   UNL     1       6.972   3.293  21.508  0.00  0.00    +0.155 HD
ATOM     32  C   UNL     1      10.326   0.559  23.527  0.00  0.00    +0.009 A 
ENDBRANCH  20  21
ENDBRANCH  17  20
ENDBRANCH   8  16
BRANCH   1  33
ATOM     33  C   UNL     1       2.455  -5.626  24.509  0.00  0.00    +0.103 C 
BRANCH  33  34
ATOM     34  C   UNL     1       1.846  -5.923  23.159  0.00  0.00    +0.211 C 
ATOM     35  O   UNL     1       0.911  -5.282  22.692  0.00  0.00    -0.276 OA
ATOM     36  N   UNL     1       2.406  -6.947  22.459  0.00  0.00    -0.329 N 
ATOM     37  H   UNL     1       2.075  -7.074  21.509  0.00  0.00    +0.145 HD
ATOM     38  H   UNL     1       3.322  -7.311  22.689  0.00  0.00    +0.145 HD
ENDBRANCH  33  34
ENDBRANCH   1  33
TORSDOF 5
ENDMDL
MODEL 9
REMARK VINA RESULT:      -8.0      2.551     10.169
REMARK  Name = 
REMARK  5 active torsions:
REMARK  status: ('A' for Active; 'I' for Inactive)
REMARK    1  A    between atoms: C_2  and  C_3
REMARK    2  A    between atoms: C_3  and  C_4
REMARK    3  A    between atoms: C_16  and  C_20
REMARK    4  A    between atoms: N_22  and  C_23
REMARK    5  A    between atoms: C_23  and  C_24
REMARK                            x       y       z     vdW  Elec       q    Type
REMARK                         _______ _______ _______ _____ _____    ______ ____
ROOT
ATOM      1  C   UNL     1       5.250  -5.120  26.297  0.00  0.00    +0.029 C 
ATOM      2  C   UNL     1       5.740  -4.754  24.904  0.00  0.00    -0.019 A 
ATOM      3  C   UNL     1       6.647  -3.699  24.542  0.00  0.00    +0.076 A 
ATOM      4  C   UNL     1       7.278  -2.687  25.370  0.00  0.00    +0.260 A 
ATOM      5  O   UNL     1       7.015  -2.507  26.554  0.00  0.00    -0.267 OA
ATOM      6  N   UNL     1       8.223  -1.947  24.703  0.00  0.00    -0.303 N 
ATOM      7  H   UNL     1       8.731  -1.242  25.225  0.00  0.00    +0.171 HD
ATOM      8  C   UNL     1       8.516  -2.117  23.365  0.00  0.00    +0.198 A 
ATOM      9  N   UNL     1       7.927  -2.964  22.575  0.00  0.00    -0.217 NA
ATOM     10  C   UNL     1       6.998  -3.738  23.204  0.00  0.00    +0.116 A 
ATOM     11  S   UNL     1       6.141  -4.948  22.363  0.00  0.00    -0.073 S 
ATOM     12  C   UNL     1       5.394  -5.501  23.790  0.00  0.00    -0.004 A 
ATOM     13  C   UNL     1       4.463  -6.674  23.772  0.00  0.00    +0.043 C 
ATOM     14  C   UNL     1       4.154  -7.162  25.195  0.00  0.00    +0.006 C 
ATOM     15  C   UNL     1       3.974  -5.998  26.181  0.00  0.00    +0.009 C 
ENDROOT
BRANCH   8  16
ATOM     16  C   UNL     1       9.639  -1.222  22.852  0.00  0.00    +0.280 C 
ATOM     17  N   UNL     1       9.487   0.117  23.120  0.00  0.00    -0.305 N 
ATOM     18  H   UNL     1       8.592   0.415  23.499  0.00  0.00    +0.149 HD
ATOM     19  O   UNL     1      10.559  -1.739  22.234  0.00  0.00    -0.267 OA
BRANCH  17  20
ATOM     20  C   UNL     1      10.399   1.099  22.578  0.00  0.00    +0.140 C 
BRANCH  20  21
ATOM     21  C   UNL     1      10.046   2.521  22.952  0.00  0.00    -0.028 A 
ATOM     22  C   UNL     1       8.715   2.968  23.009  0.00  0.00    +0.032 A 
ATOM     23  C   UNL     1       8.430   4.279  23.402  0.00  0.00    +0.076 A 
ATOM     24  C   UNL     1       9.460   5.157  23.743  0.00  0.00    +0.142 A 
ATOM     25  O   UNL     1       9.247   6.446  24.156  0.00  0.00    -0.481 OA
ATOM     26  C   UNL     1       7.971   6.952  23.782  0.00  0.00    +0.325 C 
ATOM     27  C   UNL     1       6.788   5.989  23.831  0.00  0.00    +0.255 C 
ATOM     28  O   UNL     1       5.631   6.341  24.041  0.00  0.00    -0.272 OA
ATOM     29  C   UNL     1      10.778   4.710  23.745  0.00  0.00    +0.048 A 
ATOM     30  N   UNL     1       7.102   4.694  23.511  0.00  0.00    -0.280 N 
ATOM     31  H   UNL     1       6.338   4.040  23.428  0.00  0.00    +0.155 HD
ATOM     32  C   UNL     1      11.069   3.399  23.353  0.00  0.00    +0.009 A 
ENDBRANCH  20  21
ENDBRANCH  17  20
ENDBRANCH   8  16
BRANCH   1  33
ATOM     33  C   UNL     1       6.384  -5.828  27.067  0.00  0.00    +0.103 C 
BRANCH  33  34
ATOM     34  C   UNL     1       6.039  -6.219  28.484  0.00  0.00    +0.211 C 
ATOM     35  O   UNL     1       6.060  -5.428  29.420  0.00  0.00    -0.276 OA
ATOM     36  N   UNL     1       5.674  -7.517  28.678  0.00  0.00    -0.329 N 
ATOM     37  H   UNL     1       5.334  -7.752  29.603  0.00  0.00    +0.145 HD
ATOM     38  H   UNL     1       5.393  -8.111  27.908  0.00  0.00    +0.145 HD
ENDBRANCH  33  34
ENDBRANCH   1  33
TORSDOF 5
ENDMDL
