MODEL 1
REMARK VINA RESULT:      -5.2      0.000      0.000
REMARK  Name = 
REMARK  8 active torsions:
REMARK  status: ('A' for Active; 'I' for Inactive)
REMARK    1  A    between atoms: C_1  and  C_2
REMARK    2  A    between atoms: C_2  and  N_4
REMARK    3  A    between atoms: C_2  and  C_5
REMARK    4  A    between atoms: C_8  and  C_10
REMARK    5  A    between atoms: C_10  and  N_11
REMARK    6  A    between atoms: N_14  and  C_15
REMARK    7  A    between atoms: C_15  and  C_16
REMARK    8  A    between atoms: C_16  and  O_17
REMARK                            x       y       z     vdW  Elec       q    Type
REMARK                         _______ _______ _______ _____ _____    ______ ____
ROOT
ATOM      1  C   UNL     1       8.605  -2.889  23.200  0.00  0.00    +0.162 C 
ATOM      2  N   UNL     1       7.306  -2.877  23.838  0.00  0.00    -0.272 N 
ATOM      3  C   UNL     1       7.208  -3.844  24.836  0.00  0.00    +0.236 C 
ATOM      4  O   UNL     1       6.198  -4.174  25.431  0.00  0.00    -0.274 OA
ATOM      5  C   UNL     1       8.589  -4.446  24.973  0.00  0.00    +0.156 C 
ATOM      6  N   UNL     1       9.466  -3.491  24.247  0.00  0.00    -0.285 NA
ATOM      7  H   UNL     1       9.661  -2.733  24.904  0.00  0.00    +0.124 HD
ENDROOT
BRANCH   1   9
ATOM      8  C   UNL     1       9.994  -0.800  23.922  0.00  0.00    +0.027 C 
ATOM      9  C   UNL     1       9.208  -1.493  22.810  0.00  0.00    +0.083 C 
BRANCH   9  10
ATOM     10  N   UNL     1      10.050  -1.602  21.592  0.00  0.00    -0.325 NA
ATOM     11  H   UNL     1      11.024  -1.435  21.865  0.00  0.00    +0.119 HD
ATOM     12  H   UNL     1      10.063  -2.582  21.288  0.00  0.00    +0.119 HD
ENDBRANCH   9  10
ENDBRANCH   1   9
BRANCH   2  13
ATOM     13  C   UNL     1       6.082  -2.423  23.180  0.00  0.00    +0.229 C 
BRANCH  13  14
ATOM     14  C   UNL     1       5.450  -3.464  22.263  0.00  0.00    +0.322 C 
ATOM     15  O   UNL     1       5.777  -3.611  21.092  0.00  0.00    -0.249 OA
BRANCH  14  16
ATOM     16  O   UNL     1       4.436  -4.166  22.814  0.00  0.00    -0.480 OA
ATOM     17  H   UNL     1       4.696  -5.092  23.035  0.00  0.00    +0.295 HD
ENDBRANCH  14  16
ENDBRANCH  13  14
ENDBRANCH   2  13
BRANCH   5  18
ATOM     18  C   UNL     1       8.966  -4.638  26.450  0.00  0.00    +0.105 C 
BRANCH  18  19
ATOM     19  N   UNL     1       8.145  -5.655  27.120  0.00  0.00    -0.328 NA
ATOM     20  H   UNL     1       8.674  -6.046  27.902  0.00  0.00    +0.118 HD
ATOM     21  H   UNL     1       7.343  -5.195  27.553  0.00  0.00    +0.118 HD
ENDBRANCH  18  19
ENDBRANCH   5  18
TORSDOF 7
ENDMDL
MODEL 2
REMARK VINA RESULT:      -5.0      2.587      3.684
REMARK  Name = 
REMARK  8 active torsions:
REMARK  status: ('A' for Active; 'I' for Inactive)
REMARK    1  A    between atoms: C_1  and  C_2
REMARK    2  A    between atoms: C_2  and  N_4
REMARK    3  A    between atoms: C_2  and  C_5
REMARK    4  A    between atoms: C_8  and  C_10
REMARK    5  A    between atoms: C_10  and  N_11
REMARK    6  A    between atoms: N_14  and  C_15
REMARK    7  A    between atoms: C_15  and  C_16
REMARK    8  A    between atoms: C_16  and  O_17
REMARK                            x       y       z     vdW  Elec       q    Type
REMARK                         _______ _______ _______ _____ _____    ______ ____
ROOT
ATOM      1  C   UNL     1       6.872  -3.844  23.284  0.00  0.00    +0.162 C 
ATOM      2  N   UNL     1       7.966  -2.963  23.636  0.00  0.00    -0.272 N 
ATOM      3  C   UNL     1       8.347  -3.116  24.967  0.00  0.00    +0.236 C 
ATOM      4  O   UNL     1       9.121  -2.409  25.586  0.00  0.00    -0.274 OA
ATOM      5  C   UNL     1       7.550  -4.285  25.501  0.00  0.00    +0.156 C 
ATOM      6  N   UNL     1       7.013  -4.936  24.278  0.00  0.00    -0.285 NA
ATOM      7  H   UNL     1       7.766  -5.529  23.921  0.00  0.00    +0.124 HD
ENDROOT
BRANCH   1   9
ATOM      8  C   UNL     1       7.058  -5.998  21.820  0.00  0.00    +0.027 C 
ATOM      9  C   UNL     1       6.916  -4.477  21.847  0.00  0.00    +0.083 C 
BRANCH   9  10
ATOM     10  N   UNL     1       5.730  -4.068  21.053  0.00  0.00    -0.325 NA
ATOM     11  H   UNL     1       5.290  -3.274  21.529  0.00  0.00    +0.119 HD
ATOM     12  H   UNL     1       6.051  -3.657  20.170  0.00  0.00    +0.119 HD
ENDBRANCH   9  10
ENDBRANCH   1   9
BRANCH   2  13
ATOM     13  C   UNL     1       8.224  -1.686  22.975  0.00  0.00    +0.229 C 
BRANCH  13  14
ATOM     14  C   UNL     1       9.520  -1.656  22.172  0.00  0.00    +0.322 C 
ATOM     15  O   UNL     1      10.556  -2.185  22.554  0.00  0.00    -0.249 OA
BRANCH  14  16
ATOM     16  O   UNL     1       9.468  -0.928  21.036  0.00  0.00    -0.480 OA
ATOM     17  H   UNL     1       8.747  -1.226  20.431  0.00  0.00    +0.295 HD
ENDBRANCH  14  16
ENDBRANCH  13  14
ENDBRANCH   2  13
BRANCH   5  18
ATOM     18  C   UNL     1       8.426  -5.206  26.363  0.00  0.00    +0.105 C 
BRANCH  18  19
ATOM     19  N   UNL     1       9.698  -5.552  25.714  0.00  0.00    -0.328 NA
ATOM     20  H   UNL     1       9.540  -5.664  24.711  0.00  0.00    +0.118 HD
ATOM     21  H   UNL     1      10.330  -4.754  25.789  0.00  0.00    +0.118 HD
ENDBRANCH  18  19
ENDBRANCH   5  18
TORSDOF 7
ENDMDL
MODEL 3
REMARK VINA RESULT:      -4.9      2.092      3.993
REMARK  Name = 
REMARK  8 active torsions:
REMARK  status: ('A' for Active; 'I' for Inactive)
REMARK    1  A    between atoms: C_1  and  C_2
REMARK    2  A    between atoms: C_2  and  N_4
REMARK    3  A    between atoms: C_2  and  C_5
REMARK    4  A    between atoms: C_8  and  C_10
REMARK    5  A    between atoms: C_10  and  N_11
REMARK    6  A    between atoms: N_14  and  C_15
REMARK    7  A    between atoms: C_15  and  C_16
REMARK    8  A    between atoms: C_16  and  O_17
REMARK                            x       y       z     vdW  Elec       q    Type
REMARK                         _______ _______ _______ _____ _____    ______ ____
ROOT
ATOM      1  C   UNL     1       7.739  -2.764  23.749  0.00  0.00    +0.162 C 
ATOM      2  N   UNL     1       7.368  -3.881  24.592  0.00  0.00    -0.272 N 
ATOM      3  C   UNL     1       6.523  -4.771  23.934  0.00  0.00    +0.236 C 
ATOM      4  O   UNL     1       5.926  -5.708  24.431  0.00  0.00    -0.274 OA
ATOM      5  C   UNL     1       6.441  -4.290  22.502  0.00  0.00    +0.156 C 
ATOM      6  N   UNL     1       7.566  -3.325  22.387  0.00  0.00    -0.285 NA
ATOM      7  H   UNL     1       8.403  -3.887  22.219  0.00  0.00    +0.124 HD
ENDROOT
BRANCH   1   9
ATOM      8  C   UNL     1       9.418  -1.153  24.934  0.00  0.00    +0.027 C 
ATOM      9  C   UNL     1       9.215  -2.243  23.883  0.00  0.00    +0.083 C 
BRANCH   9  10
ATOM     10  N   UNL     1      10.150  -3.368  24.137  0.00  0.00    -0.325 NA
ATOM     11  H   UNL     1      11.078  -3.089  23.801  0.00  0.00    +0.119 HD
ATOM     12  H   UNL     1      10.291  -3.457  25.149  0.00  0.00    +0.119 HD
ENDBRANCH   9  10
ENDBRANCH   1   9
BRANCH   2  13
ATOM     13  C   UNL     1       7.316  -3.813  26.051  0.00  0.00    +0.229 C 
BRANCH  13  14
ATOM     14  C   UNL     1       8.118  -4.905  26.750  0.00  0.00    +0.322 C 
ATOM     15  O   UNL     1       7.622  -5.699  27.540  0.00  0.00    -0.249 OA
BRANCH  14  16
ATOM     16  O   UNL     1       9.445  -4.884  26.499  0.00  0.00    -0.480 OA
ATOM     17  H   UNL     1       9.916  -5.651  26.904  0.00  0.00    +0.295 HD
ENDBRANCH  14  16
ENDBRANCH  13  14
ENDBRANCH   2  13
BRANCH   5  18
ATOM     18  C   UNL     1       6.528  -5.466  21.517  0.00  0.00    +0.105 C 
BRANCH  18  19
ATOM     19  N   UNL     1       5.319  -6.301  21.520  0.00  0.00    -0.328 NA
ATOM     20  H   UNL     1       4.779  -6.101  22.363  0.00  0.00    +0.118 HD
ATOM     21  H   UNL     1       4.717  -6.006  20.750  0.00  0.00    +0.118 HD
ENDBRANCH  18  19
ENDBRANCH   5  18
TORSDOF 7
ENDMDL
MODEL 4
REMARK VINA RESULT:      -4.9      2.490      4.019
REMARK  Name = 
REMARK  8 active torsions:
REMARK  status: ('A' for Active; 'I' for Inactive)
REMARK    1  A    between atoms: C_1  and  C_2
REMARK    2  A    between atoms: C_2  and  N_4
REMARK    3  A    between atoms: C_2  and  C_5
REMARK    4  A    between atoms: C_8  and  C_10
REMARK    5  A    between atoms: C_10  and  N_11
REMARK    6  A    between atoms: N_14  and  C_15
REMARK    7  A    between atoms: C_15  and  C_16
REMARK    8  A    between atoms: C_16  and  O_17
REMARK                            x       y       z     vdW  Elec       q    Type
REMARK                         _______ _______ _______ _____ _____    ______ ____
ROOT
ATOM      1  C   UNL     1       8.309  -4.210  23.913  0.00  0.00    +0.162 C 
ATOM      2  N   UNL     1       7.079  -3.451  23.831  0.00  0.00    -0.272 N 
ATOM      3  C   UNL     1       6.362  -3.748  22.674  0.00  0.00    +0.236 C 
ATOM      4  O   UNL     1       5.381  -3.160  22.257  0.00  0.00    -0.274 OA
ATOM      5  C   UNL     1       7.094  -4.893  22.009  0.00  0.00    +0.156 C 
ATOM      6  N   UNL     1       8.009  -5.392  23.068  0.00  0.00    -0.285 NA
ATOM      7  H   UNL     1       7.447  -6.008  23.659  0.00  0.00    +0.124 HD
ENDROOT
BRANCH   1   9
ATOM      8  C   UNL     1       7.604  -5.377  26.139  0.00  0.00    +0.027 C 
ATOM      9  C   UNL     1       8.726  -4.718  25.339  0.00  0.00    +0.083 C 
BRANCH   9  10
ATOM     10  N   UNL     1       9.890  -5.636  25.254  0.00  0.00    -0.325 NA
ATOM     11  H   UNL     1      10.484  -5.322  24.480  0.00  0.00    +0.119 HD
ATOM     12  H   UNL     1      10.487  -5.488  26.075  0.00  0.00    +0.119 HD
ENDBRANCH   9  10
ENDBRANCH   1   9
BRANCH   2  13
ATOM     13  C   UNL     1       6.887  -2.146  24.459  0.00  0.00    +0.229 C 
BRANCH  13  14
ATOM     14  C   UNL     1       7.410  -0.978  23.631  0.00  0.00    +0.322 C 
ATOM     15  O   UNL     1       8.581  -0.620  23.644  0.00  0.00    -0.249 OA
BRANCH  14  16
ATOM     16  O   UNL     1       6.467  -0.306  22.936  0.00  0.00    -0.480 OA
ATOM     17  H   UNL     1       6.418   0.646  23.191  0.00  0.00    +0.295 HD
ENDBRANCH  14  16
ENDBRANCH  13  14
ENDBRANCH   2  13
BRANCH   5  18
ATOM     18  C   UNL     1       6.110  -5.951  21.488  0.00  0.00    +0.105 C 
BRANCH  18  19
ATOM     19  N   UNL     1       4.855  -5.987  22.251  0.00  0.00    -0.328 NA
ATOM     20  H   UNL     1       5.042  -5.694  23.212  0.00  0.00    +0.118 HD
ATOM     21  H   UNL     1       4.228  -5.272  21.880  0.00  0.00    +0.118 HD
ENDBRANCH  18  19
ENDBRANCH   5  18
TORSDOF 7
ENDMDL
MODEL 5
REMARK VINA RESULT:      -4.9      1.775      3.957
REMARK  Name = 
REMARK  8 active torsions:
REMARK  status: ('A' for Active; 'I' for Inactive)
REMARK    1  A    between atoms: C_1  and  C_2
REMARK    2  A    between atoms: C_2  and  N_4
REMARK    3  A    between atoms: C_2  and  C_5
REMARK    4  A    between atoms: C_8  and  C_10
REMARK    5  A    between atoms: C_10  and  N_11
REMARK    6  A    between atoms: N_14  and  C_15
REMARK    7  A    between atoms: C_15  and  C_16
REMARK    8  A    between atoms: C_16  and  O_17
REMARK                            x       y       z     vdW  Elec       q    Type
REMARK                         _______ _______ _______ _____ _____    ______ ____
ROOT
ATOM      1  C   UNL     1       8.448  -3.427  25.004  0.00  0.00    +0.162 C 
ATOM      2  N   UNL     1       7.740  -3.688  23.768  0.00  0.00    -0.272 N 
ATOM      3  C   UNL     1       8.003  -2.717  22.804  0.00  0.00    +0.236 C 
ATOM      4  O   UNL     1       7.436  -2.583  21.735  0.00  0.00    -0.274 OA
ATOM      5  C   UNL     1       9.076  -1.825  23.389  0.00  0.00    +0.156 C 
ATOM      6  N   UNL     1       9.593  -2.603  24.545  0.00  0.00    -0.285 NA
ATOM      7  H   UNL     1      10.265  -3.269  24.158  0.00  0.00    +0.124 HD
ENDROOT
BRANCH   1   9
ATOM      8  C   UNL     1       8.015  -5.379  26.682  0.00  0.00    +0.027 C 
ATOM      9  C   UNL     1       9.015  -4.678  25.765  0.00  0.00    +0.083 C 
BRANCH   9  10
ATOM     10  N   UNL     1       9.596  -5.657  24.812  0.00  0.00    -0.325 NA
ATOM     11  H   UNL     1       8.891  -6.380  24.633  0.00  0.00    +0.119 HD
ATOM     12  H   UNL     1       9.697  -5.205  23.897  0.00  0.00    +0.119 HD
ENDBRANCH   9  10
ENDBRANCH   1   9
BRANCH   2  13
ATOM     13  C   UNL     1       6.481  -4.426  23.694  0.00  0.00    +0.229 C 
BRANCH  13  14
ATOM     14  C   UNL     1       6.565  -5.713  22.883  0.00  0.00    +0.322 C 
ATOM     15  O   UNL     1       7.601  -6.110  22.363  0.00  0.00    -0.249 OA
BRANCH  14  16
ATOM     16  O   UNL     1       5.388  -6.351  22.704  0.00  0.00    -0.480 OA
ATOM     17  H   UNL     1       4.618  -5.808  22.998  0.00  0.00    +0.295 HD
ENDBRANCH  14  16
ENDBRANCH  13  14
ENDBRANCH   2  13
BRANCH   5  18
ATOM     18  C   UNL     1      10.146  -1.486  22.340  0.00  0.00    +0.105 C 
BRANCH  18  19
ATOM     19  N   UNL     1       9.611  -0.713  21.210  0.00  0.00    -0.328 NA
ATOM     20  H   UNL     1       8.991  -1.312  20.662  0.00  0.00    +0.118 HD
ATOM     21  H   UNL     1       9.004   0.022  21.576  0.00  0.00    +0.118 HD
ENDBRANCH  18  19
ENDBRANCH   5  18
TORSDOF 7
ENDMDL
MODEL 6
REMARK VINA RESULT:      -4.9      2.566      4.250
REMARK  Name = 
REMARK  8 active torsions:
REMARK  status: ('A' for Active; 'I' for Inactive)
REMARK    1  A    between atoms: C_1  and  C_2
REMARK    2  A    between atoms: C_2  and  N_4
REMARK    3  A    between atoms: C_2  and  C_5
REMARK    4  A    between atoms: C_8  and  C_10
REMARK    5  A    between atoms: C_10  and  N_11
REMARK    6  A    between atoms: N_14  and  C_15
REMARK    7  A    between atoms: C_15  and  C_16
REMARK    8  A    between atoms: C_16  and  O_17
REMARK                            x       y       z     vdW  Elec       q    Type
REMARK                         _______ _______ _______ _____ _____    ______ ____
ROOT
ATOM      1  C   UNL     1       8.606  -4.101  24.592  0.00  0.00    +0.162 C 
ATOM      2  N   UNL     1       8.009  -3.132  23.696  0.00  0.00    -0.272 N 
ATOM      3  C   UNL     1       7.283  -3.745  22.677  0.00  0.00    +0.236 C 
ATOM      4  O   UNL     1       6.808  -3.203  21.697  0.00  0.00    -0.274 OA
ATOM      5  C   UNL     1       7.274  -5.223  22.999  0.00  0.00    +0.156 C 
ATOM      6  N   UNL     1       7.725  -5.281  24.414  0.00  0.00    -0.285 NA
ATOM      7  H   UNL     1       6.897  -5.085  24.981  0.00  0.00    +0.124 HD
ENDROOT
BRANCH   1   9
ATOM      8  C   UNL     1       7.261  -3.401  26.716  0.00  0.00    +0.027 C 
ATOM      9  C   UNL     1       8.627  -3.727  26.116  0.00  0.00    +0.083 C 
BRANCH   9  10
ATOM     10  N   UNL     1       9.285  -4.792  26.913  0.00  0.00    -0.325 NA
ATOM     11  H   UNL     1       8.946  -4.721  27.878  0.00  0.00    +0.119 HD
ATOM     12  H   UNL     1       8.921  -5.702  26.610  0.00  0.00    +0.119 HD
ENDBRANCH   9  10
ENDBRANCH   1   9
BRANCH   2  13
ATOM     13  C   UNL     1       8.557  -1.798  23.461  0.00  0.00    +0.229 C 
BRANCH  13  14
ATOM     14  C   UNL     1       9.672  -1.761  22.422  0.00  0.00    +0.322 C 
ATOM     15  O   UNL     1      10.814  -2.138  22.652  0.00  0.00    -0.249 OA
BRANCH  14  16
ATOM     16  O   UNL     1       9.329  -1.202  21.241  0.00  0.00    -0.480 OA
ATOM     17  H   UNL     1       9.105  -1.876  20.556  0.00  0.00    +0.295 HD
ENDBRANCH  14  16
ENDBRANCH  13  14
ENDBRANCH   2  13
BRANCH   5  18
ATOM     18  C   UNL     1       5.884  -5.833  22.764  0.00  0.00    +0.105 C 
BRANCH  18  19
ATOM     19  N   UNL     1       5.594  -6.059  21.342  0.00  0.00    -0.328 NA
ATOM     20  H   UNL     1       4.812  -5.464  21.063  0.00  0.00    +0.118 HD
ATOM     21  H   UNL     1       6.385  -5.723  20.791  0.00  0.00    +0.118 HD
ENDBRANCH  18  19
ENDBRANCH   5  18
TORSDOF 7
ENDMDL
MODEL 7
REMARK VINA RESULT:      -4.9      2.702      4.845
REMARK  Name = 
REMARK  8 active torsions:
REMARK  status: ('A' for Active; 'I' for Inactive)
REMARK    1  A    between atoms: C_1  and  C_2
REMARK    2  A    between atoms: C_2  and  N_4
REMARK    3  A    between atoms: C_2  and  C_5
REMARK    4  A    between atoms: C_8  and  C_10
REMARK    5  A    between atoms: C_10  and  N_11
REMARK    6  A    between atoms: N_14  and  C_15
REMARK    7  A    between atoms: C_15  and  C_16
REMARK    8  A    between atoms: C_16  and  O_17
REMARK                            x       y       z     vdW  Elec       q    Type
REMARK                         _______ _______ _______ _____ _____    ______ ____
ROOT
ATOM      1  C   UNL     1       7.353  -4.628  22.725  0.00  0.00    +0.162 C 
ATOM      2  N   UNL     1       8.175  -4.333  23.880  0.00  0.00    -0.272 N 
ATOM      3  C   UNL     1       8.767  -3.075  23.789  0.00  0.00    +0.236 C 
ATOM      4  O   UNL     1       9.625  -2.622  24.523  0.00  0.00    -0.274 OA
ATOM      5  C   UNL     1       8.182  -2.425  22.555  0.00  0.00    +0.156 C 
ATOM      6  N   UNL     1       7.006  -3.274  22.230  0.00  0.00    -0.285 NA
ATOM      7  H   UNL     1       6.250  -2.952  22.838  0.00  0.00    +0.124 HD
ENDROOT
BRANCH   1   9
ATOM      8  C   UNL     1       4.771  -4.536  23.100  0.00  0.00    +0.027 C 
ATOM      9  C   UNL     1       6.019  -5.411  22.996  0.00  0.00    +0.083 C 
BRANCH   9  10
ATOM     10  N   UNL     1       5.810  -6.467  21.973  0.00  0.00    -0.325 NA
ATOM     11  H   UNL     1       6.453  -7.238  22.179  0.00  0.00    +0.119 HD
ATOM     12  H   UNL     1       4.888  -6.892  22.123  0.00  0.00    +0.119 HD
ENDBRANCH   9  10
ENDBRANCH   1   9
BRANCH   2  13
ATOM     13  C   UNL     1       8.826  -5.356  24.696  0.00  0.00    +0.229 C 
BRANCH  13  14
ATOM     14  C   UNL     1       8.410  -5.336  26.162  0.00  0.00    +0.322 C 
ATOM     15  O   UNL     1       7.351  -5.801  26.564  0.00  0.00    -0.249 OA
BRANCH  14  16
ATOM     16  O   UNL     1       9.262  -4.688  26.986  0.00  0.00    -0.480 OA
ATOM     17  H   UNL     1       8.808  -4.314  27.778  0.00  0.00    +0.295 HD
ENDBRANCH  14  16
ENDBRANCH  13  14
ENDBRANCH   2  13
BRANCH   5  18
ATOM     18  C   UNL     1       7.832  -0.952  22.817  0.00  0.00    +0.105 C 
BRANCH  18  19
ATOM     19  N   UNL     1       6.399  -0.742  23.061  0.00  0.00    -0.328 NA
ATOM     20  H   UNL     1       6.054  -1.484  23.673  0.00  0.00    +0.118 HD
ATOM     21  H   UNL     1       6.283   0.116  23.603  0.00  0.00    +0.118 HD
ENDBRANCH  18  19
ENDBRANCH   5  18
TORSDOF 7
ENDMDL
MODEL 8
REMARK VINA RESULT:      -4.8      2.519      3.349
REMARK  Name = 
REMARK  8 active torsions:
REMARK  status: ('A' for Active; 'I' for Inactive)
REMARK    1  A    between atoms: C_1  and  C_2
REMARK    2  A    between atoms: C_2  and  N_4
REMARK    3  A    between atoms: C_2  and  C_5
REMARK    4  A    between atoms: C_8  and  C_10
REMARK    5  A    between atoms: C_10  and  N_11
REMARK    6  A    between atoms: N_14  and  C_15
REMARK    7  A    between atoms: C_15  and  C_16
REMARK    8  A    between atoms: C_16  and  O_17
REMARK                            x       y       z     vdW  Elec       q    Type
REMARK                         _______ _______ _______ _____ _____    ______ ____
ROOT
ATOM      1  C   UNL     1       8.265  -1.748  25.824  0.00  0.00    +0.162 C 
ATOM      2  N   UNL     1       8.935  -2.505  24.787  0.00  0.00    -0.272 N 
ATOM      3  C   UNL     1       9.101  -3.841  25.143  0.00  0.00    +0.236 C 
ATOM      4  O   UNL     1       9.762  -4.674  24.551  0.00  0.00    -0.274 OA
ATOM      5  C   UNL     1       8.359  -4.022  26.449  0.00  0.00    +0.156 C 
ATOM      6  N   UNL     1       7.515  -2.803  26.549  0.00  0.00    -0.285 NA
ATOM      7  H   UNL     1       6.687  -2.985  25.978  0.00  0.00    +0.124 HD
ENDROOT
BRANCH   1   9
ATOM      8  C   UNL     1       7.874   0.654  24.879  0.00  0.00    +0.027 C 
ATOM      9  C   UNL     1       7.243  -0.657  25.346  0.00  0.00    +0.083 C 
BRANCH   9  10
ATOM     10  N   UNL     1       6.354  -1.193  24.285  0.00  0.00    -0.325 NA
ATOM     11  H   UNL     1       5.814  -0.412  23.900  0.00  0.00    +0.119 HD
ATOM     12  H   UNL     1       6.932  -1.486  23.488  0.00  0.00    +0.119 HD
ENDBRANCH   9  10
ENDBRANCH   1   9
BRANCH   2  13
ATOM     13  C   UNL     1       9.864  -1.916  23.824  0.00  0.00    +0.229 C 
BRANCH  13  14
ATOM     14  C   UNL     1       9.324  -1.857  22.400  0.00  0.00    +0.322 C 
ATOM     15  O   UNL     1       8.174  -2.158  22.107  0.00  0.00    -0.249 OA
BRANCH  14  16
ATOM     16  O   UNL     1      10.235  -1.525  21.460  0.00  0.00    -0.480 OA
ATOM     17  H   UNL     1       9.957  -0.744  20.925  0.00  0.00    +0.295 HD
ENDBRANCH  14  16
ENDBRANCH  13  14
ENDBRANCH   2  13
BRANCH   5  18
ATOM     18  C   UNL     1       7.558  -5.334  26.454  0.00  0.00    +0.105 C 
BRANCH  18  19
ATOM     19  N   UNL     1       7.544  -5.987  27.769  0.00  0.00    -0.328 NA
ATOM     20  H   UNL     1       7.710  -6.987  27.645  0.00  0.00    +0.118 HD
ATOM     21  H   UNL     1       8.347  -5.656  28.306  0.00  0.00    +0.118 HD
ENDBRANCH  18  19
ENDBRANCH   5  18
TORSDOF 7
ENDMDL
MODEL 9
REMARK VINA RESULT:      -4.8      3.360      4.331
REMARK  Name = 
REMARK  8 active torsions:
REMARK  status: ('A' for Active; 'I' for Inactive)
REMARK    1  A    between atoms: C_1  and  C_2
REMARK    2  A    between atoms: C_2  and  N_4
REMARK    3  A    between atoms: C_2  and  C_5
REMARK    4  A    between atoms: C_8  and  C_10
REMARK    5  A    between atoms: C_10  and  N_11
REMARK    6  A    between atoms: N_14  and  C_15
REMARK    7  A    between atoms: C_15  and  C_16
REMARK    8  A    between atoms: C_16  and  O_17
REMARK                            x       y       z     vdW  Elec       q    Type
REMARK                         _______ _______ _______ _____ _____    ______ ____
ROOT
ATOM      1  C   UNL     1       8.235  -0.436  24.735  0.00  0.00    +0.162 C 
ATOM      2  N   UNL     1       9.235  -0.722  23.729  0.00  0.00    -0.272 N 
ATOM      3  C   UNL     1       9.639  -2.055  23.762  0.00  0.00    +0.236 C 
ATOM      4  O   UNL     1      10.570  -2.547  23.150  0.00  0.00    -0.274 OA
ATOM      5  C   UNL     1       8.739  -2.742  24.765  0.00  0.00    +0.156 C 
ATOM      6  N   UNL     1       7.632  -1.771  24.970  0.00  0.00    -0.285 NA
ATOM      7  H   UNL     1       6.984  -1.914  24.192  0.00  0.00    +0.124 HD
ENDROOT
BRANCH   1   9
ATOM      8  C   UNL     1       7.451   2.036  24.436  0.00  0.00    +0.027 C 
ATOM      9  C   UNL     1       7.089   0.556  24.324  0.00  0.00    +0.083 C 
BRANCH   9  10
ATOM     10  N   UNL     1       6.601   0.260  22.953  0.00  0.00    -0.325 NA
ATOM     11  H   UNL     1       7.377   0.414  22.301  0.00  0.00    +0.119 HD
ATOM     12  H   UNL     1       6.434  -0.749  22.874  0.00  0.00    +0.119 HD
ENDBRANCH   9  10
ENDBRANCH   1   9
BRANCH   2  13
ATOM     13  C   UNL     1      10.159   0.277  23.196  0.00  0.00    +0.229 C 
BRANCH  13  14
ATOM     14  C   UNL     1       9.760   0.821  21.829  0.00  0.00    +0.322 C 
ATOM     15  O   UNL     1       9.162   0.156  20.992  0.00  0.00    -0.249 OA
BRANCH  14  16
ATOM     16  O   UNL     1      10.187   2.076  21.570  0.00  0.00    -0.480 OA
ATOM     17  H   UNL     1      10.555   2.521  22.370  0.00  0.00    +0.295 HD
ENDBRANCH  14  16
ENDBRANCH  13  14
ENDBRANCH   2  13
BRANCH   5  18
ATOM     18  C   UNL     1       8.276  -4.112  24.246  0.00  0.00    +0.105 C 
BRANCH  18  19
ATOM     19  N   UNL     1       9.274  -5.168  24.460  0.00  0.00    -0.328 NA
ATOM     20  H   UNL     1       9.406  -5.682  23.587  0.00  0.00    +0.118 HD
ATOM     21  H   UNL     1      10.178  -4.731  24.643  0.00  0.00    +0.118 HD
ENDBRANCH  18  19
ENDBRANCH   5  18
TORSDOF 7
ENDMDL
