MODEL 1
REMARK VINA RESULT:      -2.9      0.000      0.000
REMARK  Name = 
REMARK  4 active torsions:
REMARK  status: ('A' for Active; 'I' for Inactive)
REMARK    1  A    between atoms: C_1  and  C_2
REMARK    2  A    between atoms: C_2  and  C_3
REMARK    3  A    between atoms: C_2  and  C_4
REMARK    4  A    between atoms: C_2  and  O_5
REMARK                            x       y       z     vdW  Elec       q    Type
REMARK                         _______ _______ _______ _____ _____    ______ ____
ROOT
ATOM      1  C   UNL     1       7.980   1.976  21.701  0.00  0.00    +0.041 C 
ATOM      2  C   UNL     1       9.363   1.472  22.112  0.00  0.00    +0.058 C 
ATOM      3  C   UNL     1       9.611   0.071  21.556  0.00  0.00    +0.041 C 
ATOM      4  C   UNL     1       9.517   1.482  23.632  0.00  0.00    +0.041 C 
ENDROOT
BRANCH   2   5
ATOM      5  O   UNL     1      10.348   2.340  21.549  0.00  0.00    -0.389 OA
ATOM      6  H   UNL     1      11.118   2.344  22.143  0.00  0.00    +0.210 HD
ENDBRANCH   2   5
TORSDOF 1
ENDMDL
MODEL 2
REMARK VINA RESULT:      -2.9      0.086      1.980
REMARK  Name = 
REMARK  4 active torsions:
REMARK  status: ('A' for Active; 'I' for Inactive)
REMARK    1  A    between atoms: C_1  and  C_2
REMARK    2  A    between atoms: C_2  and  C_3
REMARK    3  A    between atoms: C_2  and  C_4
REMARK    4  A    between atoms: C_2  and  O_5
REMARK                            x       y       z     vdW  Elec       q    Type
REMARK                         _______ _______ _______ _____ _____    ______ ____
ROOT
ATOM      1  C   UNL     1       9.504   1.386  23.608  0.00  0.00    +0.041 C 
ATOM      2  C   UNL     1       9.329   1.445  22.091  0.00  0.00    +0.058 C 
ATOM      3  C   UNL     1       7.964   2.028  21.730  0.00  0.00    +0.041 C 
ATOM      4  C   UNL     1       9.503   0.060  21.468  0.00  0.00    +0.041 C 
ENDROOT
BRANCH   2   5
ATOM      5  O   UNL     1      10.326   2.315  21.552  0.00  0.00    -0.389 OA
ATOM      6  H   UNL     1      11.194   1.992  21.844  0.00  0.00    +0.210 HD
ENDBRANCH   2   5
TORSDOF 1
ENDMDL
MODEL 3
REMARK VINA RESULT:      -2.9      0.087      1.935
REMARK  Name = 
REMARK  4 active torsions:
REMARK  status: ('A' for Active; 'I' for Inactive)
REMARK    1  A    between atoms: C_1  and  C_2
REMARK    2  A    between atoms: C_2  and  C_3
REMARK    3  A    between atoms: C_2  and  C_4
REMARK    4  A    between atoms: C_2  and  O_5
REMARK                            x       y       z     vdW  Elec       q    Type
REMARK                         _______ _______ _______ _____ _____    ______ ____
ROOT
ATOM      1  C   UNL     1       9.531   0.039  21.476  0.00  0.00    +0.041 C 
ATOM      2  C   UNL     1       9.307   1.432  22.064  0.00  0.00    +0.058 C 
ATOM      3  C   UNL     1       9.461   1.405  23.584  0.00  0.00    +0.041 C 
ATOM      4  C   UNL     1       7.933   1.975  21.673  0.00  0.00    +0.041 C 
ENDROOT
BRANCH   2   5
ATOM      5  O   UNL     1      10.308   2.310  21.545  0.00  0.00    -0.389 OA
ATOM      6  H   UNL     1      10.486   2.991  22.216  0.00  0.00    +0.210 HD
ENDBRANCH   2   5
TORSDOF 1
ENDMDL
MODEL 4
REMARK VINA RESULT:      -2.6      6.223      6.663
REMARK  Name = 
REMARK  4 active torsions:
REMARK  status: ('A' for Active; 'I' for Inactive)
REMARK    1  A    between atoms: C_1  and  C_2
REMARK    2  A    between atoms: C_2  and  C_3
REMARK    3  A    between atoms: C_2  and  C_4
REMARK    4  A    between atoms: C_2  and  O_5
REMARK                            x       y       z     vdW  Elec       q    Type
REMARK                         _______ _______ _______ _____ _____    ______ ____
ROOT
ATOM      1  C   UNL     1       9.625  -3.066  24.293  0.00  0.00    +0.041 C 
ATOM      2  C   UNL     1       9.227  -4.379  24.967  0.00  0.00    +0.058 C 
ATOM      3  C   UNL     1       8.135  -5.085  24.164  0.00  0.00    +0.041 C 
ATOM      4  C   UNL     1       8.767  -4.137  26.404  0.00  0.00    +0.041 C 
ENDROOT
BRANCH   2   5
ATOM      5  O   UNL     1      10.367  -5.240  24.992  0.00  0.00    -0.389 OA
ATOM      6  H   UNL     1      10.984  -4.940  24.305  0.00  0.00    +0.210 HD
ENDBRANCH   2   5
TORSDOF 1
ENDMDL
MODEL 5
REMARK VINA RESULT:      -2.6      2.241      2.504
REMARK  Name = 
REMARK  4 active torsions:
REMARK  status: ('A' for Active; 'I' for Inactive)
REMARK    1  A    between atoms: C_1  and  C_2
REMARK    2  A    between atoms: C_2  and  C_3
REMARK    3  A    between atoms: C_2  and  C_4
REMARK    4  A    between atoms: C_2  and  O_5
REMARK                            x       y       z     vdW  Elec       q    Type
REMARK                         _______ _______ _______ _____ _____    ______ ____
ROOT
ATOM      1  C   UNL     1       9.405   0.757  21.540  0.00  0.00    +0.041 C 
ATOM      2  C   UNL     1       9.532  -0.555  22.314  0.00  0.00    +0.058 C 
ATOM      3  C   UNL     1       8.152  -1.123  22.639  0.00  0.00    +0.041 C 
ATOM      4  C   UNL     1      10.348  -0.359  23.590  0.00  0.00    +0.041 C 
ENDROOT
BRANCH   2   5
ATOM      5  O   UNL     1      10.205  -1.507  21.486  0.00  0.00    -0.389 OA
ATOM      6  H   UNL     1      10.305  -1.116  20.602  0.00  0.00    +0.210 HD
ENDBRANCH   2   5
TORSDOF 1
ENDMDL
MODEL 6
REMARK VINA RESULT:      -2.6      2.248      2.941
REMARK  Name = 
REMARK  4 active torsions:
REMARK  status: ('A' for Active; 'I' for Inactive)
REMARK    1  A    between atoms: C_1  and  C_2
REMARK    2  A    between atoms: C_2  and  C_3
REMARK    3  A    between atoms: C_2  and  C_4
REMARK    4  A    between atoms: C_2  and  O_5
REMARK                            x       y       z     vdW  Elec       q    Type
REMARK                         _______ _______ _______ _____ _____    ______ ____
ROOT
ATOM      1  C   UNL     1      10.449  -0.152  23.474  0.00  0.00    +0.041 C 
ATOM      2  C   UNL     1       9.559  -0.589  22.311  0.00  0.00    +0.058 C 
ATOM      3  C   UNL     1       9.245   0.597  21.401  0.00  0.00    +0.041 C 
ATOM      4  C   UNL     1       8.270  -1.231  22.822  0.00  0.00    +0.041 C 
ENDROOT
BRANCH   2   5
ATOM      5  O   UNL     1      10.270  -1.553  21.532  0.00  0.00    -0.389 OA
ATOM      6  H   UNL     1      10.844  -2.057  22.132  0.00  0.00    +0.210 HD
ENDBRANCH   2   5
TORSDOF 1
ENDMDL
MODEL 7
REMARK VINA RESULT:      -2.6      2.273      2.879
REMARK  Name = 
REMARK  4 active torsions:
REMARK  status: ('A' for Active; 'I' for Inactive)
REMARK    1  A    between atoms: C_1  and  C_2
REMARK    2  A    between atoms: C_2  and  C_3
REMARK    3  A    between atoms: C_2  and  C_4
REMARK    4  A    between atoms: C_2  and  O_5
REMARK                            x       y       z     vdW  Elec       q    Type
REMARK                         _______ _______ _______ _____ _____    ______ ____
ROOT
ATOM      1  C   UNL     1       8.170  -1.296  22.626  0.00  0.00    +0.041 C 
ATOM      2  C   UNL     1       9.508  -0.647  22.274  0.00  0.00    +0.058 C 
ATOM      3  C   UNL     1      10.315  -0.361  23.539  0.00  0.00    +0.041 C 
ATOM      4  C   UNL     1       9.297   0.635  21.470  0.00  0.00    +0.041 C 
ENDROOT
BRANCH   2   5
ATOM      5  O   UNL     1      10.263  -1.563  21.480  0.00  0.00    -0.389 OA
ATOM      6  H   UNL     1      10.109  -1.347  20.545  0.00  0.00    +0.210 HD
ENDBRANCH   2   5
TORSDOF 1
ENDMDL
MODEL 8
REMARK VINA RESULT:      -2.5      6.637      7.274
REMARK  Name = 
REMARK  4 active torsions:
REMARK  status: ('A' for Active; 'I' for Inactive)
REMARK    1  A    between atoms: C_1  and  C_2
REMARK    2  A    between atoms: C_2  and  C_3
REMARK    3  A    between atoms: C_2  and  C_4
REMARK    4  A    between atoms: C_2  and  O_5
REMARK                            x       y       z     vdW  Elec       q    Type
REMARK                         _______ _______ _______ _____ _____    ______ ____
ROOT
ATOM      1  C   UNL     1       7.999  -5.146  26.071  0.00  0.00    +0.041 C 
ATOM      2  C   UNL     1       8.680  -4.922  24.721  0.00  0.00    +0.058 C 
ATOM      3  C   UNL     1       9.269  -3.514  24.643  0.00  0.00    +0.041 C 
ATOM      4  C   UNL     1       7.703  -5.161  23.571  0.00  0.00    +0.041 C 
ENDROOT
BRANCH   2   5
ATOM      5  O   UNL     1       9.762  -5.848  24.599  0.00  0.00    -0.389 OA
ATOM      6  H   UNL     1       9.944  -5.972  23.653  0.00  0.00    +0.210 HD
ENDBRANCH   2   5
TORSDOF 1
ENDMDL
MODEL 9
REMARK VINA RESULT:      -2.5      1.451      2.072
REMARK  Name = 
REMARK  4 active torsions:
REMARK  status: ('A' for Active; 'I' for Inactive)
REMARK    1  A    between atoms: C_1  and  C_2
REMARK    2  A    between atoms: C_2  and  C_3
REMARK    3  A    between atoms: C_2  and  C_4
REMARK    4  A    between atoms: C_2  and  O_5
REMARK                            x       y       z     vdW  Elec       q    Type
REMARK                         _______ _______ _______ _____ _____    ______ ____
ROOT
ATOM      1  C   UNL     1       9.766   1.569  21.907  0.00  0.00    +0.041 C 
ATOM      2  C   UNL     1      10.098   2.277  23.220  0.00  0.00    +0.058 C 
ATOM      3  C   UNL     1      10.814   1.327  24.178  0.00  0.00    +0.041 C 
ATOM      4  C   UNL     1       8.835   2.843  23.868  0.00  0.00    +0.041 C 
ENDROOT
BRANCH   2   5
ATOM      5  O   UNL     1      10.989   3.358  22.940  0.00  0.00    -0.389 OA
ATOM      6  H   UNL     1      10.459   4.110  22.626  0.00  0.00    +0.210 HD
ENDBRANCH   2   5
TORSDOF 1
ENDMDL
