MODEL 1
REMARK VINA RESULT:      -4.8      0.000      0.000
REMARK  Name = 
REMARK  4 active torsions:
REMARK  status: ('A' for Active; 'I' for Inactive)
REMARK    1  A    between atoms: C_2  and  C_3
REMARK    2  A    between atoms: C_2  and  N_5
REMARK    3  A    between atoms: C_2  and  C_8
REMARK    4  A    between atoms: C_3  and  C_4
REMARK                            x       y       z     vdW  Elec       q    Type
REMARK                         _______ _______ _______ _____ _____    ______ ____
ROOT
ATOM      1  C   UNL     1      10.413   3.540  23.676  0.00  0.00    +0.103 C 
ENDROOT
BRANCH   1   2
ATOM      2  C   UNL     1      10.271   2.087  23.226  0.00  0.00    -0.027 A 
ATOM      3  C   UNL     1      10.599   1.051  24.117  0.00  0.00    +0.005 A 
ATOM      4  C   UNL     1      10.431  -0.288  23.751  0.00  0.00    +0.000 A 
ATOM      5  C   UNL     1       9.930  -0.613  22.493  0.00  0.00    +0.000 A 
ATOM      6  C   UNL     1       9.590   0.399  21.601  0.00  0.00    +0.000 A 
ATOM      7  C   UNL     1       9.750   1.736  21.969  0.00  0.00    +0.005 A 
ENDBRANCH   1   2
BRANCH   1   8
ATOM      8  N   UNL     1       9.293   4.288  23.125  0.00  0.00    -0.311 N 
ATOM      9  H   UNL     1       9.248   4.405  22.122  0.00  0.00    +0.149 HD
ATOM     10  C   UNL     1       8.260   4.760  23.890  0.00  0.00    +0.326 C 
ATOM     11  O   UNL     1       8.152   4.646  25.102  0.00  0.00    -0.280 OA
ENDBRANCH   1   8
BRANCH   1  12
ATOM     12  C   UNL     1      11.775   4.153  23.276  0.00  0.00    +0.024 C 
ATOM     13  C   UNL     1      11.961   5.616  23.648  0.00  0.00    +0.006 C 
ENDBRANCH   1  12
TORSDOF 3
ENDMDL
MODEL 2
REMARK VINA RESULT:      -4.8      1.931      4.633
REMARK  Name = 
REMARK  4 active torsions:
REMARK  status: ('A' for Active; 'I' for Inactive)
REMARK    1  A    between atoms: C_2  and  C_3
REMARK    2  A    between atoms: C_2  and  N_5
REMARK    3  A    between atoms: C_2  and  C_8
REMARK    4  A    between atoms: C_3  and  C_4
REMARK                            x       y       z     vdW  Elec       q    Type
REMARK                         _______ _______ _______ _____ _____    ______ ____
ROOT
ATOM      1  C   UNL     1       9.889   1.937  23.369  0.00  0.00    +0.103 C 
ENDROOT
BRANCH   1   2
ATOM      2  C   UNL     1      10.257   3.394  23.640  0.00  0.00    -0.027 A 
ATOM      3  C   UNL     1      11.544   3.855  23.314  0.00  0.00    +0.005 A 
ATOM      4  C   UNL     1      11.894   5.195  23.504  0.00  0.00    +0.000 A 
ATOM      5  C   UNL     1      10.964   6.096  24.018  0.00  0.00    +0.000 A 
ATOM      6  C   UNL     1       9.682   5.661  24.337  0.00  0.00    +0.000 A 
ATOM      7  C   UNL     1       9.330   4.324  24.140  0.00  0.00    +0.005 A 
ENDBRANCH   1   2
BRANCH   1   8
ATOM      8  N   UNL     1      10.820   1.097  24.108  0.00  0.00    -0.311 N 
ATOM      9  H   UNL     1      11.810   1.229  23.946  0.00  0.00    +0.149 HD
ATOM     10  C   UNL     1      10.424   0.205  25.067  0.00  0.00    +0.326 C 
ATOM     11  O   UNL     1       9.272  -0.022  25.406  0.00  0.00    -0.280 OA
ENDBRANCH   1   8
BRANCH   1  12
ATOM     12  C   UNL     1       9.875   1.601  21.860  0.00  0.00    +0.024 C 
ATOM     13  C   UNL     1       9.468   0.176  21.516  0.00  0.00    +0.006 C 
ENDBRANCH   1  12
TORSDOF 3
ENDMDL
MODEL 3
REMARK VINA RESULT:      -4.8      2.145      4.687
REMARK  Name = 
REMARK  4 active torsions:
REMARK  status: ('A' for Active; 'I' for Inactive)
REMARK    1  A    between atoms: C_2  and  C_3
REMARK    2  A    between atoms: C_2  and  N_5
REMARK    3  A    between atoms: C_2  and  C_8
REMARK    4  A    between atoms: C_3  and  C_4
REMARK                            x       y       z     vdW  Elec       q    Type
REMARK                         _______ _______ _______ _____ _____    ______ ____
ROOT
ATOM      1  C   UNL     1      10.253   2.240  23.086  0.00  0.00    +0.103 C 
ENDROOT
BRANCH   1   2
ATOM      2  C   UNL     1      10.597   3.684  23.449  0.00  0.00    -0.027 A 
ATOM      3  C   UNL     1       9.612   4.507  24.021  0.00  0.00    +0.005 A 
ATOM      4  C   UNL     1       9.912   5.817  24.410  0.00  0.00    +0.000 A 
ATOM      5  C   UNL     1      11.199   6.322  24.239  0.00  0.00    +0.000 A 
ATOM      6  C   UNL     1      12.189   5.518  23.684  0.00  0.00    +0.000 A 
ATOM      7  C   UNL     1      11.893   4.208  23.302  0.00  0.00    +0.005 A 
ENDBRANCH   1   2
BRANCH   1   8
ATOM      8  N   UNL     1       9.282   2.274  22.002  0.00  0.00    -0.311 N 
ATOM      9  H   UNL     1       8.854   3.161  21.775  0.00  0.00    +0.149 HD
ATOM     10  C   UNL     1       8.992   1.186  21.224  0.00  0.00    +0.326 C 
ATOM     11  O   UNL     1       9.470   0.067  21.345  0.00  0.00    -0.280 OA
ENDBRANCH   1   8
BRANCH   1  12
ATOM     12  C   UNL     1       9.741   1.431  24.300  0.00  0.00    +0.024 C 
ATOM     13  C   UNL     1      10.715   0.400  24.849  0.00  0.00    +0.006 C 
ENDBRANCH   1  12
TORSDOF 3
ENDMDL
MODEL 4
REMARK VINA RESULT:      -4.5      3.288      5.007
REMARK  Name = 
REMARK  4 active torsions:
REMARK  status: ('A' for Active; 'I' for Inactive)
REMARK    1  A    between atoms: C_2  and  C_3
REMARK    2  A    between atoms: C_2  and  N_5
REMARK    3  A    between atoms: C_2  and  C_8
REMARK    4  A    between atoms: C_3  and  C_4
REMARK                            x       y       z     vdW  Elec       q    Type
REMARK                         _______ _______ _______ _____ _____    ______ ____
ROOT
ATOM      1  C   UNL     1       9.734  -0.892  22.928  0.00  0.00    +0.103 C 
ENDROOT
BRANCH   1   2
ATOM      2  C   UNL     1       9.057  -2.229  23.228  0.00  0.00    -0.027 A 
ATOM      3  C   UNL     1       8.012  -2.676  22.402  0.00  0.00    +0.005 A 
ATOM      4  C   UNL     1       7.408  -3.918  22.621  0.00  0.00    +0.000 A 
ATOM      5  C   UNL     1       7.840  -4.733  23.665  0.00  0.00    +0.000 A 
ATOM      6  C   UNL     1       8.880  -4.312  24.487  0.00  0.00    +0.000 A 
ATOM      7  C   UNL     1       9.489  -3.075  24.264  0.00  0.00    +0.005 A 
ENDBRANCH   1   2
BRANCH   1   8
ATOM      8  N   UNL     1       9.288   0.067  23.929  0.00  0.00    -0.311 N 
ATOM      9  H   UNL     1       8.292   0.209  24.039  0.00  0.00    +0.149 HD
ATOM     10  C   UNL     1      10.143   0.713  24.779  0.00  0.00    +0.326 C 
ATOM     11  O   UNL     1      11.360   0.600  24.799  0.00  0.00    -0.280 OA
ENDBRANCH   1   8
BRANCH   1  12
ATOM     12  C   UNL     1       9.460  -0.400  21.489  0.00  0.00    +0.024 C 
ATOM     13  C   UNL     1       8.924   1.019  21.380  0.00  0.00    +0.006 C 
ENDBRANCH   1  12
TORSDOF 3
ENDMDL
MODEL 5
REMARK VINA RESULT:      -4.5      4.647      6.837
REMARK  Name = 
REMARK  4 active torsions:
REMARK  status: ('A' for Active; 'I' for Inactive)
REMARK    1  A    between atoms: C_2  and  C_3
REMARK    2  A    between atoms: C_2  and  N_5
REMARK    3  A    between atoms: C_2  and  C_8
REMARK    4  A    between atoms: C_3  and  C_4
REMARK                            x       y       z     vdW  Elec       q    Type
REMARK                         _______ _______ _______ _____ _____    ______ ____
ROOT
ATOM      1  C   UNL     1       8.845  -3.285  23.576  0.00  0.00    +0.103 C 
ENDROOT
BRANCH   1   2
ATOM      2  C   UNL     1       9.328  -1.891  23.182  0.00  0.00    -0.027 A 
ATOM      3  C   UNL     1       9.111  -1.427  21.873  0.00  0.00    +0.005 A 
ATOM      4  C   UNL     1       9.496  -0.136  21.498  0.00  0.00    +0.000 A 
ATOM      5  C   UNL     1      10.100   0.712  22.423  0.00  0.00    +0.000 A 
ATOM      6  C   UNL     1      10.313   0.274  23.726  0.00  0.00    +0.000 A 
ATOM      7  C   UNL     1       9.922  -1.011  24.104  0.00  0.00    +0.005 A 
ENDBRANCH   1   2
BRANCH   1   8
ATOM      8  N   UNL     1       7.479  -3.435  23.096  0.00  0.00    -0.311 N 
ATOM      9  H   UNL     1       6.892  -2.612  23.070  0.00  0.00    +0.149 HD
ATOM     10  C   UNL     1       6.985  -4.611  22.600  0.00  0.00    +0.326 C 
ATOM     11  O   UNL     1       7.592  -5.669  22.519  0.00  0.00    -0.280 OA
ENDBRANCH   1   8
BRANCH   1  12
ATOM     12  C   UNL     1       8.958  -3.543  25.096  0.00  0.00    +0.024 C 
ATOM     13  C   UNL     1       9.596  -4.869  25.483  0.00  0.00    +0.006 C 
ENDBRANCH   1  12
TORSDOF 3
ENDMDL
MODEL 6
REMARK VINA RESULT:      -4.5      4.611      6.886
REMARK  Name = 
REMARK  4 active torsions:
REMARK  status: ('A' for Active; 'I' for Inactive)
REMARK    1  A    between atoms: C_2  and  C_3
REMARK    2  A    between atoms: C_2  and  N_5
REMARK    3  A    between atoms: C_2  and  C_8
REMARK    4  A    between atoms: C_3  and  C_4
REMARK                            x       y       z     vdW  Elec       q    Type
REMARK                         _______ _______ _______ _____ _____    ______ ____
ROOT
ATOM      1  C   UNL     1       7.901  -3.474  23.013  0.00  0.00    +0.103 C 
ENDROOT
BRANCH   1   2
ATOM      2  C   UNL     1       8.793  -2.235  23.056  0.00  0.00    -0.027 A 
ATOM      3  C   UNL     1       9.030  -1.511  21.876  0.00  0.00    +0.005 A 
ATOM      4  C   UNL     1       9.800  -0.344  21.894  0.00  0.00    +0.000 A 
ATOM      5  C   UNL     1      10.342   0.120  23.090  0.00  0.00    +0.000 A 
ATOM      6  C   UNL     1      10.110  -0.578  24.271  0.00  0.00    +0.000 A 
ATOM      7  C   UNL     1       9.335  -1.739  24.255  0.00  0.00    +0.005 A 
ENDBRANCH   1   2
BRANCH   1   8
ATOM      8  N   UNL     1       6.523  -3.037  23.185  0.00  0.00    -0.311 N 
ATOM      9  H   UNL     1       6.289  -2.529  24.027  0.00  0.00    +0.149 HD
ATOM     10  C   UNL     1       5.561  -3.205  22.227  0.00  0.00    +0.326 C 
ATOM     11  O   UNL     1       5.711  -3.749  21.143  0.00  0.00    -0.280 OA
ENDBRANCH   1   8
BRANCH   1  12
ATOM     12  C   UNL     1       8.310  -4.534  24.062  0.00  0.00    +0.024 C 
ATOM     13  C   UNL     1       7.289  -4.785  25.161  0.00  0.00    +0.006 C 
ENDBRANCH   1  12
TORSDOF 3
ENDMDL
MODEL 7
REMARK VINA RESULT:      -4.5      3.710      5.507
REMARK  Name = 
REMARK  4 active torsions:
REMARK  status: ('A' for Active; 'I' for Inactive)
REMARK    1  A    between atoms: C_2  and  C_3
REMARK    2  A    between atoms: C_2  and  N_5
REMARK    3  A    between atoms: C_2  and  C_8
REMARK    4  A    between atoms: C_3  and  C_4
REMARK                            x       y       z     vdW  Elec       q    Type
REMARK                         _______ _______ _______ _____ _____    ______ ____
ROOT
ATOM      1  C   UNL     1       9.489  -1.271  24.896  0.00  0.00    +0.103 C 
ENDROOT
BRANCH   1   2
ATOM      2  C   UNL     1       9.770  -0.093  23.964  0.00  0.00    -0.027 A 
ATOM      3  C   UNL     1       9.421  -0.186  22.606  0.00  0.00    +0.005 A 
ATOM      4  C   UNL     1       9.620   0.895  21.741  0.00  0.00    +0.000 A 
ATOM      5  C   UNL     1      10.165   2.084  22.218  0.00  0.00    +0.000 A 
ATOM      6  C   UNL     1      10.507   2.198  23.561  0.00  0.00    +0.000 A 
ATOM      7  C   UNL     1      10.302   1.123  24.428  0.00  0.00    +0.005 A 
ENDBRANCH   1   2
BRANCH   1   8
ATOM      8  N   UNL     1       8.631  -2.206  24.184  0.00  0.00    -0.311 N 
ATOM      9  H   UNL     1       7.828  -1.834  23.693  0.00  0.00    +0.149 HD
ATOM     10  C   UNL     1       8.907  -3.542  24.077  0.00  0.00    +0.326 C 
ATOM     11  O   UNL     1       9.864  -4.120  24.568  0.00  0.00    -0.280 OA
ENDBRANCH   1   8
BRANCH   1  12
ATOM     12  C   UNL     1       8.874  -0.826  26.243  0.00  0.00    +0.024 C 
ATOM     13  C   UNL     1       7.397  -0.468  26.193  0.00  0.00    +0.006 C 
ENDBRANCH   1  12
TORSDOF 3
ENDMDL
MODEL 8
REMARK VINA RESULT:      -4.5      1.413      2.312
REMARK  Name = 
REMARK  4 active torsions:
REMARK  status: ('A' for Active; 'I' for Inactive)
REMARK    1  A    between atoms: C_2  and  C_3
REMARK    2  A    between atoms: C_2  and  N_5
REMARK    3  A    between atoms: C_2  and  C_8
REMARK    4  A    between atoms: C_3  and  C_4
REMARK                            x       y       z     vdW  Elec       q    Type
REMARK                         _______ _______ _______ _____ _____    ______ ____
ROOT
ATOM      1  C   UNL     1       9.844   3.297  23.299  0.00  0.00    +0.103 C 
ENDROOT
BRANCH   1   2
ATOM      2  C   UNL     1       9.916   1.826  22.892  0.00  0.00    -0.027 A 
ATOM      3  C   UNL     1      10.470   0.889  23.779  0.00  0.00    +0.005 A 
ATOM      4  C   UNL     1      10.503  -0.471  23.455  0.00  0.00    +0.000 A 
ATOM      5  C   UNL     1       9.980  -0.916  22.243  0.00  0.00    +0.000 A 
ATOM      6  C   UNL     1       9.418  -0.003  21.356  0.00  0.00    +0.000 A 
ATOM      7  C   UNL     1       9.378   1.353  21.682  0.00  0.00    +0.005 A 
ENDBRANCH   1   2
BRANCH   1   8
ATOM      8  N   UNL     1      11.207   3.794  23.414  0.00  0.00    -0.311 N 
ATOM      9  H   UNL     1      11.961   3.120  23.403  0.00  0.00    +0.149 HD
ATOM     10  C   UNL     1      11.517   5.127  23.447  0.00  0.00    +0.326 C 
ATOM     11  O   UNL     1      10.719   6.052  23.413  0.00  0.00    -0.280 OA
ENDBRANCH   1   8
BRANCH   1  12
ATOM     12  C   UNL     1       9.035   3.512  24.599  0.00  0.00    +0.024 C 
ATOM     13  C   UNL     1       7.565   3.131  24.518  0.00  0.00    +0.006 C 
ENDBRANCH   1  12
TORSDOF 3
ENDMDL
MODEL 9
REMARK VINA RESULT:      -4.4      3.826      6.094
REMARK  Name = 
REMARK  4 active torsions:
REMARK  status: ('A' for Active; 'I' for Inactive)
REMARK    1  A    between atoms: C_2  and  C_3
REMARK    2  A    between atoms: C_2  and  N_5
REMARK    3  A    between atoms: C_2  and  C_8
REMARK    4  A    between atoms: C_3  and  C_4
REMARK                            x       y       z     vdW  Elec       q    Type
REMARK                         _______ _______ _______ _____ _____    ______ ____
ROOT
ATOM      1  C   UNL     1       8.729  -1.908  23.541  0.00  0.00    +0.103 C 
ENDROOT
BRANCH   1   2
ATOM      2  C   UNL     1       9.385  -0.539  23.366  0.00  0.00    -0.027 A 
ATOM      3  C   UNL     1       9.302   0.114  22.125  0.00  0.00    +0.005 A 
ATOM      4  C   UNL     1       9.849   1.389  21.949  0.00  0.00    +0.000 A 
ATOM      5  C   UNL     1      10.481   2.033  23.010  0.00  0.00    +0.000 A 
ATOM      6  C   UNL     1      10.563   1.406  24.250  0.00  0.00    +0.000 A 
ATOM      7  C   UNL     1      10.011   0.136  24.428  0.00  0.00    +0.005 A 
ENDBRANCH   1   2
BRANCH   1   8
ATOM      8  N   UNL     1       9.755  -2.839  23.989  0.00  0.00    -0.311 N 
ATOM      9  H   UNL     1      10.715  -2.643  23.738  0.00  0.00    +0.149 HD
ATOM     10  C   UNL     1       9.491  -3.909  24.800  0.00  0.00    +0.326 C 
ATOM     11  O   UNL     1       8.393  -4.236  25.226  0.00  0.00    -0.280 OA
ENDBRANCH   1   8
BRANCH   1  12
ATOM     12  C   UNL     1       8.023  -2.395  22.255  0.00  0.00    +0.024 C 
ATOM     13  C   UNL     1       6.561  -2.779  22.424  0.00  0.00    +0.006 C 
ENDBRANCH   1  12
TORSDOF 3
ENDMDL
