MODEL 1
REMARK VINA RESULT:      -7.5      0.000      0.000
REMARK  Name = 
REMARK  8 active torsions:
REMARK  status: ('A' for Active; 'I' for Inactive)
REMARK    1  A    between atoms: C_2  and  C_3
REMARK    2  A    between atoms: C_2  and  N_10
REMARK    3  A    between atoms: C_2  and  C_18
REMARK    4  A    between atoms: C_3  and  C_4
REMARK    5  A    between atoms: C_4  and  C_5
REMARK    6  A    between atoms: C_5  and  N_6
REMARK    7  A    between atoms: C_11  and  C_13
REMARK    8  A    between atoms: C_18  and  C_20
REMARK                            x       y       z     vdW  Elec       q    Type
REMARK                         _______ _______ _______ _____ _____    ______ ____
ROOT
ATOM      1  C   UNL     1       8.424  -0.797  23.450  0.00  0.00    +0.146 C 
ENDROOT
BRANCH   1   2
ATOM      2  N   UNL     1       7.782  -1.951  22.793  0.00  0.00    -0.305 N 
ATOM      3  H   UNL     1       8.302  -2.437  22.072  0.00  0.00    +0.149 HD
ATOM      4  C   UNL     1       6.477  -2.320  23.042  0.00  0.00    +0.217 C 
ATOM      5  O   UNL     1       5.773  -1.751  23.868  0.00  0.00    -0.275 OA
BRANCH   4   6
ATOM      6  C   UNL     1       5.992  -3.535  22.266  0.00  0.00    +0.075 C 
ATOM      7  C   UNL     1       4.799  -4.251  22.902  0.00  0.00    +0.013 C 
ATOM      8  C   UNL     1       5.005  -5.747  22.645  0.00  0.00    +0.001 C 
ATOM      9  C   UNL     1       6.286  -5.869  21.832  0.00  0.00    +0.001 C 
ATOM     10  C   UNL     1       7.067  -4.621  22.190  0.00  0.00    +0.013 C 
ENDBRANCH   4   6
ENDBRANCH   1   2
BRANCH   1  11
ATOM     11  C   UNL     1       9.144   0.116  22.425  0.00  0.00    +0.208 C 
ATOM     12  O   UNL     1       9.418  -0.296  21.295  0.00  0.00    -0.288 OA
BRANCH  11  13
ATOM     13  C   UNL     1       9.483   1.462  22.875  0.00  0.00    +0.147 A 
ATOM     14  S   UNL     1       8.265   2.441  23.583  0.00  0.00    -0.064 S 
ATOM     15  C   UNL     1       9.390   3.727  23.746  0.00  0.00    +0.040 A 
ATOM     16  C   UNL     1       9.183   5.012  24.275  0.00  0.00    +0.017 A 
ATOM     17  C   UNL     1      10.263   5.896  24.308  0.00  0.00    +0.001 A 
ATOM     18  C   UNL     1      11.510   5.512  23.827  0.00  0.00    +0.002 A 
ATOM     19  C   UNL     1      11.706   4.229  23.298  0.00  0.00    +0.029 A 
ATOM     20  C   UNL     1      10.631   3.315  23.254  0.00  0.00    +0.079 A 
ATOM     21  N   UNL     1      10.672   2.017  22.754  0.00  0.00    -0.236 NA
ENDBRANCH  11  13
ENDBRANCH   1  11
BRANCH   1  22
ATOM     22  C   UNL     1       9.363  -1.253  24.587  0.00  0.00    +0.033 C 
BRANCH  22  23
ATOM     23  C   UNL     1       8.748  -1.222  25.992  0.00  0.00    +0.039 C 
BRANCH  23  24
ATOM     24  C   UNL     1       8.162  -2.596  26.326  0.00  0.00    +0.196 C 
BRANCH  24  25
ATOM     25  N   UNL     1       8.953  -3.666  25.757  0.00  0.00    -0.276 N 
ATOM     26  H   UNL     1       9.808  -3.360  25.304  0.00  0.00    +0.258 HD
ATOM     27  C   UNL     1       8.970  -4.948  26.172  0.00  0.00    +0.376 C 
ATOM     28  N   UNL     1       8.243  -5.504  27.067  0.00  0.00    -0.130 NA
ATOM     29  H   UNL     1       7.614  -4.811  27.472  0.00  0.00    +0.306 HD
ATOM     30  N   UNL     1       9.866  -5.688  25.494  0.00  0.00    -0.289 N 
ATOM     31  H   UNL     1       9.701  -6.671  25.690  0.00  0.00    +0.255 HD
ATOM     32  H   UNL     1       9.853  -5.518  24.497  0.00  0.00    +0.255 HD
ENDBRANCH  24  25
ENDBRANCH  23  24
ENDBRANCH  22  23
ENDBRANCH   1  22
TORSDOF 8
ENDMDL
MODEL 2
REMARK VINA RESULT:      -7.3      2.533      3.836
REMARK  Name = 
REMARK  8 active torsions:
REMARK  status: ('A' for Active; 'I' for Inactive)
REMARK    1  A    between atoms: C_2  and  C_3
REMARK    2  A    between atoms: C_2  and  N_10
REMARK    3  A    between atoms: C_2  and  C_18
REMARK    4  A    between atoms: C_3  and  C_4
REMARK    5  A    between atoms: C_4  and  C_5
REMARK    6  A    between atoms: C_5  and  N_6
REMARK    7  A    between atoms: C_11  and  C_13
REMARK    8  A    between atoms: C_18  and  C_20
REMARK                            x       y       z     vdW  Elec       q    Type
REMARK                         _______ _______ _______ _____ _____    ______ ____
ROOT
ATOM      1  C   UNL     1       7.362  -4.366  24.116  0.00  0.00    +0.146 C 
ENDROOT
BRANCH   1   2
ATOM      2  N   UNL     1       6.029  -4.998  24.105  0.00  0.00    -0.305 N 
ATOM      3  H   UNL     1       5.842  -5.698  23.397  0.00  0.00    +0.149 HD
ATOM      4  C   UNL     1       5.006  -4.598  24.938  0.00  0.00    +0.217 C 
ATOM      5  O   UNL     1       5.146  -3.727  25.789  0.00  0.00    -0.275 OA
BRANCH   4   6
ATOM      6  C   UNL     1       3.704  -5.368  24.775  0.00  0.00    +0.075 C 
ATOM      7  C   UNL     1       3.748  -6.796  25.321  0.00  0.00    +0.013 C 
ATOM      8  C   UNL     1       2.897  -7.647  24.374  0.00  0.00    +0.001 C 
ATOM      9  C   UNL     1       2.343  -6.695  23.323  0.00  0.00    +0.001 C 
ATOM     10  C   UNL     1       3.340  -5.554  23.301  0.00  0.00    +0.013 C 
ENDBRANCH   4   6
ENDBRANCH   1   2
BRANCH   1  11
ATOM     11  C   UNL     1       7.627  -3.566  22.816  0.00  0.00    +0.208 C 
ATOM     12  O   UNL     1       7.316  -4.029  21.715  0.00  0.00    -0.288 OA
BRANCH  11  13
ATOM     13  C   UNL     1       8.266  -2.264  22.970  0.00  0.00    +0.147 A 
ATOM     14  S   UNL     1       8.533  -1.641  24.546  0.00  0.00    -0.064 S 
ATOM     15  C   UNL     1       9.197  -0.210  23.872  0.00  0.00    +0.040 A 
ATOM     16  C   UNL     1       9.700   0.922  24.536  0.00  0.00    +0.017 A 
ATOM     17  C   UNL     1      10.198   1.974  23.766  0.00  0.00    +0.001 A 
ATOM     18  C   UNL     1      10.195   1.901  22.377  0.00  0.00    +0.002 A 
ATOM     19  C   UNL     1       9.688   0.769  21.724  0.00  0.00    +0.029 A 
ATOM     20  C   UNL     1       9.179  -0.309  22.479  0.00  0.00    +0.079 A 
ATOM     21  N   UNL     1       8.640  -1.488  21.972  0.00  0.00    -0.236 NA
ENDBRANCH  11  13
ENDBRANCH   1  11
BRANCH   1  22
ATOM     22  C   UNL     1       8.468  -5.404  24.400  0.00  0.00    +0.033 C 
BRANCH  22  23
ATOM     23  C   UNL     1       9.280  -5.160  25.679  0.00  0.00    +0.039 C 
BRANCH  23  24
ATOM     24  C   UNL     1       8.335  -4.766  26.817  0.00  0.00    +0.196 C 
BRANCH  24  25
ATOM     25  N   UNL     1       7.620  -5.911  27.339  0.00  0.00    -0.276 N 
ATOM     26  H   UNL     1       8.180  -6.753  27.418  0.00  0.00    +0.258 HD
ATOM     27  C   UNL     1       6.550  -5.872  28.156  0.00  0.00    +0.376 C 
ATOM     28  N   UNL     1       5.893  -4.850  28.561  0.00  0.00    -0.130 NA
ATOM     29  H   UNL     1       6.313  -4.005  28.177  0.00  0.00    +0.306 HD
ATOM     30  N   UNL     1       6.156  -7.103  28.533  0.00  0.00    -0.289 N 
ATOM     31  H   UNL     1       5.241  -7.040  28.970  0.00  0.00    +0.255 HD
ATOM     32  H   UNL     1       6.141  -7.769  27.771  0.00  0.00    +0.255 HD
ENDBRANCH  24  25
ENDBRANCH  23  24
ENDBRANCH  22  23
ENDBRANCH   1  22
TORSDOF 8
ENDMDL
MODEL 3
REMARK VINA RESULT:      -7.3      1.463      7.328
REMARK  Name = 
REMARK  8 active torsions:
REMARK  status: ('A' for Active; 'I' for Inactive)
REMARK    1  A    between atoms: C_2  and  C_3
REMARK    2  A    between atoms: C_2  and  N_10
REMARK    3  A    between atoms: C_2  and  C_18
REMARK    4  A    between atoms: C_3  and  C_4
REMARK    5  A    between atoms: C_4  and  C_5
REMARK    6  A    between atoms: C_5  and  N_6
REMARK    7  A    between atoms: C_11  and  C_13
REMARK    8  A    between atoms: C_18  and  C_20
REMARK                            x       y       z     vdW  Elec       q    Type
REMARK                         _______ _______ _______ _____ _____    ______ ____
ROOT
ATOM      1  C   UNL     1       9.067  -0.298  23.483  0.00  0.00    +0.146 C 
ENDROOT
BRANCH   1   2
ATOM      2  N   UNL     1       9.336   1.066  23.978  0.00  0.00    -0.305 N 
ATOM      3  H   UNL     1       9.020   1.303  24.911  0.00  0.00    +0.149 HD
ATOM      4  C   UNL     1       9.893   2.050  23.189  0.00  0.00    +0.217 C 
ATOM      5  O   UNL     1      10.258   1.848  22.037  0.00  0.00    -0.275 OA
BRANCH   4   6
ATOM      6  C   UNL     1      10.090   3.392  23.877  0.00  0.00    +0.075 C 
ATOM      7  C   UNL     1       8.953   4.390  23.643  0.00  0.00    +0.013 C 
ATOM      8  C   UNL     1       9.605   5.772  23.546  0.00  0.00    +0.001 C 
ATOM      9  C   UNL     1      11.096   5.559  23.765  0.00  0.00    +0.001 C 
ATOM     10  C   UNL     1      11.326   4.121  23.347  0.00  0.00    +0.013 C 
ENDBRANCH   4   6
ENDBRANCH   1   2
BRANCH   1  11
ATOM     11  C   UNL     1       7.591  -0.463  23.038  0.00  0.00    +0.208 C 
ATOM     12  O   UNL     1       6.898   0.521  22.769  0.00  0.00    -0.288 OA
BRANCH  11  13
ATOM     13  C   UNL     1       7.080  -1.828  22.971  0.00  0.00    +0.147 A 
ATOM     14  S   UNL     1       5.746  -2.273  23.955  0.00  0.00    -0.064 S 
ATOM     15  C   UNL     1       5.836  -3.879  23.355  0.00  0.00    +0.040 A 
ATOM     16  C   UNL     1       5.033  -4.984  23.683  0.00  0.00    +0.017 A 
ATOM     17  C   UNL     1       5.295  -6.203  23.054  0.00  0.00    +0.001 A 
ATOM     18  C   UNL     1       6.325  -6.315  22.126  0.00  0.00    +0.002 A 
ATOM     19  C   UNL     1       7.123  -5.208  21.809  0.00  0.00    +0.029 A 
ATOM     20  C   UNL     1       6.879  -3.964  22.430  0.00  0.00    +0.079 A 
ATOM     21  N   UNL     1       7.587  -2.785  22.220  0.00  0.00    -0.236 NA
ENDBRANCH  11  13
ENDBRANCH   1  11
BRANCH   1  22
ATOM     22  C   UNL     1       9.487  -1.360  24.520  0.00  0.00    +0.033 C 
BRANCH  22  23
ATOM     23  C   UNL     1       8.891  -1.175  25.922  0.00  0.00    +0.039 C 
BRANCH  23  24
ATOM     24  C   UNL     1       8.327  -2.509  26.418  0.00  0.00    +0.196 C 
BRANCH  24  25
ATOM     25  N   UNL     1       8.968  -3.634  25.772  0.00  0.00    -0.276 N 
ATOM     26  H   UNL     1       9.810  -3.397  25.259  0.00  0.00    +0.258 HD
ATOM     27  C   UNL     1       8.896  -4.920  26.164  0.00  0.00    +0.376 C 
ATOM     28  N   UNL     1       8.192  -5.428  27.106  0.00  0.00    -0.130 NA
ATOM     29  H   UNL     1       7.664  -4.690  27.569  0.00  0.00    +0.306 HD
ATOM     30  N   UNL     1       9.664  -5.725  25.406  0.00  0.00    -0.289 N 
ATOM     31  H   UNL     1       9.424  -6.693  25.600  0.00  0.00    +0.255 HD
ATOM     32  H   UNL     1       9.591  -5.531  24.416  0.00  0.00    +0.255 HD
ENDBRANCH  24  25
ENDBRANCH  23  24
ENDBRANCH  22  23
ENDBRANCH   1  22
TORSDOF 8
ENDMDL
MODEL 4
REMARK VINA RESULT:      -7.2      2.529      6.724
REMARK  Name = 
REMARK  8 active torsions:
REMARK  status: ('A' for Active; 'I' for Inactive)
REMARK    1  A    between atoms: C_2  and  C_3
REMARK    2  A    between atoms: C_2  and  N_10
REMARK    3  A    between atoms: C_2  and  C_18
REMARK    4  A    between atoms: C_3  and  C_4
REMARK    5  A    between atoms: C_4  and  C_5
REMARK    6  A    between atoms: C_5  and  N_6
REMARK    7  A    between atoms: C_11  and  C_13
REMARK    8  A    between atoms: C_18  and  C_20
REMARK                            x       y       z     vdW  Elec       q    Type
REMARK                         _______ _______ _______ _____ _____    ______ ____
ROOT
ATOM      1  C   UNL     1       7.512  -0.229  23.439  0.00  0.00    +0.146 C 
ENDROOT
BRANCH   1   2
ATOM      2  N   UNL     1       6.736  -1.383  22.947  0.00  0.00    -0.305 N 
ATOM      3  H   UNL     1       5.737  -1.390  23.116  0.00  0.00    +0.149 HD
ATOM      4  C   UNL     1       7.326  -2.489  22.373  0.00  0.00    +0.217 C 
ATOM      5  O   UNL     1       8.534  -2.570  22.177  0.00  0.00    -0.275 OA
BRANCH   4   6
ATOM      6  C   UNL     1       6.361  -3.578  21.931  0.00  0.00    +0.075 C 
ATOM      7  C   UNL     1       5.172  -3.783  22.873  0.00  0.00    +0.013 C 
ATOM      8  C   UNL     1       4.879  -5.286  22.879  0.00  0.00    +0.001 C 
ATOM      9  C   UNL     1       5.871  -5.920  21.914  0.00  0.00    +0.001 C 
ATOM     10  C   UNL     1       7.036  -4.951  21.898  0.00  0.00    +0.013 C 
ENDBRANCH   4   6
ENDBRANCH   1   2
BRANCH   1  11
ATOM     11  C   UNL     1       7.764  -0.318  24.966  0.00  0.00    +0.208 C 
ATOM     12  O   UNL     1       8.315   0.604  25.570  0.00  0.00    -0.288 OA
BRANCH  11  13
ATOM     13  C   UNL     1       7.328  -1.544  25.627  0.00  0.00    +0.147 A 
ATOM     14  S   UNL     1       8.479  -2.773  25.958  0.00  0.00    -0.064 S 
ATOM     15  C   UNL     1       7.239  -3.760  26.617  0.00  0.00    +0.040 A 
ATOM     16  C   UNL     1       7.342  -5.053  27.158  0.00  0.00    +0.017 A 
ATOM     17  C   UNL     1       6.182  -5.661  27.643  0.00  0.00    +0.001 A 
ATOM     18  C   UNL     1       4.959  -5.001  27.590  0.00  0.00    +0.002 A 
ATOM     19  C   UNL     1       4.867  -3.713  27.045  0.00  0.00    +0.029 A 
ATOM     20  C   UNL     1       6.024  -3.075  26.548  0.00  0.00    +0.079 A 
ATOM     21  N   UNL     1       6.085  -1.808  25.977  0.00  0.00    -0.236 NA
ENDBRANCH  11  13
ENDBRANCH   1  11
BRANCH   1  22
ATOM     22  C   UNL     1       6.847   1.103  23.033  0.00  0.00    +0.033 C 
BRANCH  22  23
ATOM     23  C   UNL     1       7.491   1.816  21.837  0.00  0.00    +0.039 C 
BRANCH  23  24
ATOM     24  C   UNL     1       8.928   1.321  21.660  0.00  0.00    +0.196 C 
BRANCH  24  25
ATOM     25  N   UNL     1       9.890   2.377  21.894  0.00  0.00    -0.276 N 
ATOM     26  H   UNL     1       9.769   3.192  21.303  0.00  0.00    +0.258 HD
ATOM     27  C   UNL     1      10.537   2.618  23.051  0.00  0.00    +0.376 C 
ATOM     28  N   UNL     1      10.519   1.932  24.132  0.00  0.00    -0.130 NA
ATOM     29  H   UNL     1       9.899   1.131  24.013  0.00  0.00    +0.306 HD
ATOM     30  N   UNL     1      11.308   3.719  22.980  0.00  0.00    -0.289 N 
ATOM     31  H   UNL     1      11.925   3.745  23.787  0.00  0.00    +0.255 HD
ATOM     32  H   UNL     1      11.841   3.779  22.122  0.00  0.00    +0.255 HD
ENDBRANCH  24  25
ENDBRANCH  23  24
ENDBRANCH  22  23
ENDBRANCH   1  22
TORSDOF 8
ENDMDL
MODEL 5
REMARK VINA RESULT:      -7.1      2.691      5.503
REMARK  Name = 
REMARK  8 active torsions:
REMARK  status: ('A' for Active; 'I' for Inactive)
REMARK    1  A    between atoms: C_2  and  C_3
REMARK    2  A    between atoms: C_2  and  N_10
REMARK    3  A    between atoms: C_2  and  C_18
REMARK    4  A    between atoms: C_3  and  C_4
REMARK    5  A    between atoms: C_4  and  C_5
REMARK    6  A    between atoms: C_5  and  N_6
REMARK    7  A    between atoms: C_11  and  C_13
REMARK    8  A    between atoms: C_18  and  C_20
REMARK                            x       y       z     vdW  Elec       q    Type
REMARK                         _______ _______ _______ _____ _____    ______ ____
ROOT
ATOM      1  C   UNL     1      10.082  -1.130  23.504  0.00  0.00    +0.146 C 
ENDROOT
BRANCH   1   2
ATOM      2  N   UNL     1       8.867  -1.963  23.414  0.00  0.00    -0.305 N 
ATOM      3  H   UNL     1       8.017  -1.526  23.078  0.00  0.00    +0.149 HD
ATOM      4  C   UNL     1       8.818  -3.263  23.870  0.00  0.00    +0.217 C 
ATOM      5  O   UNL     1       9.795  -3.842  24.330  0.00  0.00    -0.275 OA
BRANCH   4   6
ATOM      6  C   UNL     1       7.476  -3.957  23.694  0.00  0.00    +0.075 C 
ATOM      7  C   UNL     1       7.568  -5.354  23.076  0.00  0.00    +0.013 C 
ATOM      8  C   UNL     1       6.338  -5.510  22.175  0.00  0.00    +0.001 C 
ATOM      9  C   UNL     1       5.537  -4.224  22.318  0.00  0.00    +0.001 C 
ATOM     10  C   UNL     1       6.569  -3.193  22.727  0.00  0.00    +0.013 C 
ENDBRANCH   4   6
ENDBRANCH   1   2
BRANCH   1  11
ATOM     11  C   UNL     1      10.015  -0.149  24.702  0.00  0.00    +0.208 C 
ATOM     12  O   UNL     1      11.028   0.430  25.101  0.00  0.00    -0.288 OA
BRANCH  11  13
ATOM     13  C   UNL     1       8.708   0.032  25.325  0.00  0.00    +0.147 A 
ATOM     14  S   UNL     1       8.384  -0.724  26.830  0.00  0.00    -0.064 S 
ATOM     15  C   UNL     1       6.785  -0.101  26.802  0.00  0.00    +0.040 A 
ATOM     16  C   UNL     1       5.760  -0.274  27.748  0.00  0.00    +0.017 A 
ATOM     17  C   UNL     1       4.529   0.341  27.508  0.00  0.00    +0.001 A 
ATOM     18  C   UNL     1       4.327   1.103  26.362  0.00  0.00    +0.002 A 
ATOM     19  C   UNL     1       5.355   1.265  25.424  0.00  0.00    +0.029 A 
ATOM     20  C   UNL     1       6.609   0.655  25.641  0.00  0.00    +0.079 A 
ATOM     21  N   UNL     1       7.716   0.722  24.800  0.00  0.00    -0.236 NA
ENDBRANCH  11  13
ENDBRANCH   1  11
BRANCH   1  22
ATOM     22  C   UNL     1      10.361  -0.406  22.170  0.00  0.00    +0.033 C 
BRANCH  22  23
ATOM     23  C   UNL     1       9.116  -0.063  21.342  0.00  0.00    +0.039 C 
BRANCH  23  24
ATOM     24  C   UNL     1       8.803   1.429  21.482  0.00  0.00    +0.196 C 
BRANCH  24  25
ATOM     25  N   UNL     1       9.963   2.180  21.914  0.00  0.00    -0.276 N 
ATOM     26  H   UNL     1      10.637   2.366  21.180  0.00  0.00    +0.258 HD
ATOM     27  C   UNL     1      10.010   3.042  22.948  0.00  0.00    +0.376 C 
ATOM     28  N   UNL     1       9.098   3.306  23.807  0.00  0.00    -0.130 NA
ATOM     29  H   UNL     1       8.264   2.761  23.593  0.00  0.00    +0.306 HD
ATOM     30  N   UNL     1      11.209   3.644  23.051  0.00  0.00    -0.289 N 
ATOM     31  H   UNL     1      11.267   4.119  23.947  0.00  0.00    +0.255 HD
ATOM     32  H   UNL     1      11.987   3.009  22.934  0.00  0.00    +0.255 HD
ENDBRANCH  24  25
ENDBRANCH  23  24
ENDBRANCH  22  23
ENDBRANCH   1  22
TORSDOF 8
ENDMDL
MODEL 6
REMARK VINA RESULT:      -6.9      2.818      7.376
REMARK  Name = 
REMARK  8 active torsions:
REMARK  status: ('A' for Active; 'I' for Inactive)
REMARK    1  A    between atoms: C_2  and  C_3
REMARK    2  A    between atoms: C_2  and  N_10
REMARK    3  A    between atoms: C_2  and  C_18
REMARK    4  A    between atoms: C_3  and  C_4
REMARK    5  A    between atoms: C_4  and  C_5
REMARK    6  A    between atoms: C_5  and  N_6
REMARK    7  A    between atoms: C_11  and  C_13
REMARK    8  A    between atoms: C_18  and  C_20
REMARK                            x       y       z     vdW  Elec       q    Type
REMARK                         _______ _______ _______ _____ _____    ______ ____
ROOT
ATOM      1  C   UNL     1       9.301  -0.501  23.482  0.00  0.00    +0.146 C 
ENDROOT
BRANCH   1   2
ATOM      2  N   UNL     1       8.106  -0.293  24.322  0.00  0.00    -0.305 N 
ATOM      3  H   UNL     1       8.161  -0.557  25.298  0.00  0.00    +0.149 HD
ATOM      4  C   UNL     1       6.899   0.136  23.810  0.00  0.00    +0.217 C 
ATOM      5  O   UNL     1       6.747   0.431  22.631  0.00  0.00    -0.275 OA
BRANCH   4   6
ATOM      6  C   UNL     1       5.784   0.287  24.833  0.00  0.00    +0.075 C 
ATOM      7  C   UNL     1       6.113   1.240  25.984  0.00  0.00    +0.013 C 
ATOM      8  C   UNL     1       5.463   0.647  27.237  0.00  0.00    +0.001 C 
ATOM      9  C   UNL     1       4.736  -0.613  26.786  0.00  0.00    +0.001 C 
ATOM     10  C   UNL     1       5.480  -1.037  25.536  0.00  0.00    +0.013 C 
ENDBRANCH   4   6
ENDBRANCH   1   2
BRANCH   1  11
ATOM     11  C   UNL     1       9.697  -1.998  23.412  0.00  0.00    +0.208 C 
ATOM     12  O   UNL     1      10.716  -2.355  22.816  0.00  0.00    -0.288 OA
BRANCH  11  13
ATOM     13  C   UNL     1       8.799  -2.941  24.070  0.00  0.00    +0.147 A 
ATOM     14  S   UNL     1       7.652  -3.803  23.129  0.00  0.00    -0.064 S 
ATOM     15  C   UNL     1       7.046  -4.553  24.550  0.00  0.00    +0.040 A 
ATOM     16  C   UNL     1       5.999  -5.482  24.673  0.00  0.00    +0.017 A 
ATOM     17  C   UNL     1       5.687  -5.961  25.947  0.00  0.00    +0.001 A 
ATOM     18  C   UNL     1       6.396  -5.528  27.062  0.00  0.00    +0.002 A 
ATOM     19  C   UNL     1       7.436  -4.599  26.928  0.00  0.00    +0.029 A 
ATOM     20  C   UNL     1       7.773  -4.099  25.652  0.00  0.00    +0.079 A 
ATOM     21  N   UNL     1       8.772  -3.173  25.367  0.00  0.00    -0.236 NA
ENDBRANCH  11  13
ENDBRANCH   1  11
BRANCH   1  22
ATOM     22  C   UNL     1      10.471   0.392  23.946  0.00  0.00    +0.033 C 
BRANCH  22  23
ATOM     23  C   UNL     1      10.256   1.899  23.756  0.00  0.00    +0.039 C 
BRANCH  23  24
ATOM     24  C   UNL     1      10.127   2.214  22.263  0.00  0.00    +0.196 C 
BRANCH  24  25
ATOM     25  N   UNL     1       8.755   2.487  21.892  0.00  0.00    -0.276 N 
ATOM     26  H   UNL     1       8.197   1.659  21.713  0.00  0.00    +0.258 HD
ATOM     27  C   UNL     1       8.042   3.577  22.235  0.00  0.00    +0.376 C 
ATOM     28  N   UNL     1       8.436   4.621  22.862  0.00  0.00    -0.130 NA
ATOM     29  H   UNL     1       9.421   4.519  23.104  0.00  0.00    +0.306 HD
ATOM     30  N   UNL     1       6.769   3.506  21.804  0.00  0.00    -0.289 N 
ATOM     31  H   UNL     1       6.334   4.419  21.900  0.00  0.00    +0.255 HD
ATOM     32  H   UNL     1       6.687   3.172  20.852  0.00  0.00    +0.255 HD
ENDBRANCH  24  25
ENDBRANCH  23  24
ENDBRANCH  22  23
ENDBRANCH   1  22
TORSDOF 8
ENDMDL
MODEL 7
REMARK VINA RESULT:      -6.9      3.375      5.090
REMARK  Name = 
REMARK  8 active torsions:
REMARK  status: ('A' for Active; 'I' for Inactive)
REMARK    1  A    between atoms: C_2  and  C_3
REMARK    2  A    between atoms: C_2  and  N_10
REMARK    3  A    between atoms: C_2  and  C_18
REMARK    4  A    between atoms: C_3  and  C_4
REMARK    5  A    between atoms: C_4  and  C_5
REMARK    6  A    between atoms: C_5  and  N_6
REMARK    7  A    between atoms: C_11  and  C_13
REMARK    8  A    between atoms: C_18  and  C_20
REMARK                            x       y       z     vdW  Elec       q    Type
REMARK                         _______ _______ _______ _____ _____    ______ ____
ROOT
ATOM      1  C   UNL     1       7.714  -4.484  24.217  0.00  0.00    +0.146 C 
ENDROOT
BRANCH   1   2
ATOM      2  N   UNL     1       6.778  -4.083  25.284  0.00  0.00    -0.305 N 
ATOM      3  H   UNL     1       6.649  -3.093  25.454  0.00  0.00    +0.149 HD
ATOM      4  C   UNL     1       6.167  -4.992  26.122  0.00  0.00    +0.217 C 
ATOM      5  O   UNL     1       6.312  -6.203  26.004  0.00  0.00    -0.275 OA
BRANCH   4   6
ATOM      6  C   UNL     1       5.238  -4.386  27.163  0.00  0.00    +0.075 C 
ATOM      7  C   UNL     1       5.488  -4.878  28.589  0.00  0.00    +0.013 C 
ATOM      8  C   UNL     1       4.114  -4.973  29.261  0.00  0.00    +0.001 C 
ATOM      9  C   UNL     1       3.100  -4.496  28.230  0.00  0.00    +0.001 C 
ATOM     10  C   UNL     1       3.778  -4.760  26.901  0.00  0.00    +0.013 C 
ENDBRANCH   4   6
ENDBRANCH   1   2
BRANCH   1  11
ATOM     11  C   UNL     1       9.123  -3.875  24.434  0.00  0.00    +0.208 C 
ATOM     12  O   UNL     1      10.047  -4.563  24.875  0.00  0.00    -0.288 OA
BRANCH  11  13
ATOM     13  C   UNL     1       9.281  -2.463  24.103  0.00  0.00    +0.147 A 
ATOM     14  S   UNL     1       9.029  -1.282  25.323  0.00  0.00    -0.064 S 
ATOM     15  C   UNL     1       9.331  -0.036  24.182  0.00  0.00    +0.040 A 
ATOM     16  C   UNL     1       9.316   1.356  24.379  0.00  0.00    +0.017 A 
ATOM     17  C   UNL     1       9.601   2.181  23.289  0.00  0.00    +0.001 A 
ATOM     18  C   UNL     1       9.891   1.636  22.043  0.00  0.00    +0.002 A 
ATOM     19  C   UNL     1       9.899   0.247  21.856  0.00  0.00    +0.029 A 
ATOM     20  C   UNL     1       9.615  -0.610  22.941  0.00  0.00    +0.079 A 
ATOM     21  N   UNL     1       9.581  -2.001  22.906  0.00  0.00    -0.236 NA
ENDBRANCH  11  13
ENDBRANCH   1  11
BRANCH   1  22
ATOM     22  C   UNL     1       7.143  -4.153  22.822  0.00  0.00    +0.033 C 
BRANCH  22  23
ATOM     23  C   UNL     1       7.207  -5.299  21.803  0.00  0.00    +0.039 C 
BRANCH  23  24
ATOM     24  C   UNL     1       6.219  -6.397  22.205  0.00  0.00    +0.196 C 
BRANCH  24  25
ATOM     25  N   UNL     1       4.911  -5.855  22.504  0.00  0.00    -0.276 N 
ATOM     26  H   UNL     1       4.510  -5.294  21.760  0.00  0.00    +0.258 HD
ATOM     27  C   UNL     1       4.008  -6.384  23.352  0.00  0.00    +0.376 C 
ATOM     28  N   UNL     1       4.140  -7.395  24.127  0.00  0.00    -0.130 NA
ATOM     29  H   UNL     1       5.070  -7.793  24.008  0.00  0.00    +0.306 HD
ATOM     30  N   UNL     1       2.853  -5.693  23.358  0.00  0.00    -0.289 N 
ATOM     31  H   UNL     1       2.289  -5.996  24.147  0.00  0.00    +0.255 HD
ATOM     32  H   UNL     1       2.986  -4.691  23.381  0.00  0.00    +0.255 HD
ENDBRANCH  24  25
ENDBRANCH  23  24
ENDBRANCH  22  23
ENDBRANCH   1  22
TORSDOF 8
ENDMDL
MODEL 8
REMARK VINA RESULT:      -6.9      2.169      3.916
REMARK  Name = 
REMARK  8 active torsions:
REMARK  status: ('A' for Active; 'I' for Inactive)
REMARK    1  A    between atoms: C_2  and  C_3
REMARK    2  A    between atoms: C_2  and  N_10
REMARK    3  A    between atoms: C_2  and  C_18
REMARK    4  A    between atoms: C_3  and  C_4
REMARK    5  A    between atoms: C_4  and  C_5
REMARK    6  A    between atoms: C_5  and  N_6
REMARK    7  A    between atoms: C_11  and  C_13
REMARK    8  A    between atoms: C_18  and  C_20
REMARK                            x       y       z     vdW  Elec       q    Type
REMARK                         _______ _______ _______ _____ _____    ______ ____
ROOT
ATOM      1  C   UNL     1       8.536  -2.151  23.392  0.00  0.00    +0.146 C 
ENDROOT
BRANCH   1   2
ATOM      2  N   UNL     1       7.519  -1.415  24.168  0.00  0.00    -0.305 N 
ATOM      3  H   UNL     1       6.914  -0.775  23.669  0.00  0.00    +0.149 HD
ATOM      4  C   UNL     1       7.439  -1.479  25.543  0.00  0.00    +0.217 C 
ATOM      5  O   UNL     1       8.168  -2.198  26.217  0.00  0.00    -0.275 OA
BRANCH   4   6
ATOM      6  C   UNL     1       6.327  -0.646  26.162  0.00  0.00    +0.075 C 
ATOM      7  C   UNL     1       5.805   0.474  25.260  0.00  0.00    +0.013 C 
ATOM      8  C   UNL     1       5.477   1.653  26.181  0.00  0.00    +0.001 C 
ATOM      9  C   UNL     1       5.773   1.185  27.599  0.00  0.00    +0.001 C 
ATOM     10  C   UNL     1       6.806   0.091  27.414  0.00  0.00    +0.013 C 
ENDBRANCH   4   6
ENDBRANCH   1   2
BRANCH   1  11
ATOM     11  C   UNL     1       9.583  -1.194  22.768  0.00  0.00    +0.208 C 
ATOM     12  O   UNL     1      10.600  -1.636  22.228  0.00  0.00    -0.288 OA
BRANCH  11  13
ATOM     13  C   UNL     1       9.303   0.234  22.870  0.00  0.00    +0.147 A 
ATOM     14  S   UNL     1      10.289   1.213  23.877  0.00  0.00    -0.064 S 
ATOM     15  C   UNL     1       9.328   2.582  23.493  0.00  0.00    +0.040 A 
ATOM     16  C   UNL     1       9.464   3.905  23.948  0.00  0.00    +0.017 A 
ATOM     17  C   UNL     1       8.554   4.859  23.488  0.00  0.00    +0.001 A 
ATOM     18  C   UNL     1       7.540   4.505  22.604  0.00  0.00    +0.002 A 
ATOM     19  C   UNL     1       7.411   3.182  22.160  0.00  0.00    +0.029 A 
ATOM     20  C   UNL     1       8.317   2.198  22.608  0.00  0.00    +0.079 A 
ATOM     21  N   UNL     1       8.310   0.851  22.260  0.00  0.00    -0.236 NA
ENDBRANCH  11  13
ENDBRANCH   1  11
BRANCH   1  22
ATOM     22  C   UNL     1       7.877  -3.065  22.337  0.00  0.00    +0.033 C 
BRANCH  22  23
ATOM     23  C   UNL     1       6.771  -3.985  22.871  0.00  0.00    +0.039 C 
BRANCH  23  24
ATOM     24  C   UNL     1       7.398  -5.255  23.450  0.00  0.00    +0.196 C 
BRANCH  24  25
ATOM     25  N   UNL     1       7.668  -5.120  24.866  0.00  0.00    -0.276 N 
ATOM     26  H   UNL     1       6.865  -5.283  25.463  0.00  0.00    +0.258 HD
ATOM     27  C   UNL     1       8.858  -5.309  25.468  0.00  0.00    +0.376 C 
ATOM     28  N   UNL     1       9.995  -5.547  24.928  0.00  0.00    -0.130 NA
ATOM     29  H   UNL     1       9.885  -5.597  23.916  0.00  0.00    +0.306 HD
ATOM     30  N   UNL     1       8.775  -5.186  26.805  0.00  0.00    -0.289 N 
ATOM     31  H   UNL     1       9.712  -5.131  27.193  0.00  0.00    +0.255 HD
ATOM     32  H   UNL     1       8.220  -4.393  27.101  0.00  0.00    +0.255 HD
ENDBRANCH  24  25
ENDBRANCH  23  24
ENDBRANCH  22  23
ENDBRANCH   1  22
TORSDOF 8
ENDMDL
MODEL 9
REMARK VINA RESULT:      -6.8      3.275      7.776
REMARK  Name = 
REMARK  8 active torsions:
REMARK  status: ('A' for Active; 'I' for Inactive)
REMARK    1  A    between atoms: C_2  and  C_3
REMARK    2  A    between atoms: C_2  and  N_10
REMARK    3  A    between atoms: C_2  and  C_18
REMARK    4  A    between atoms: C_3  and  C_4
REMARK    5  A    between atoms: C_4  and  C_5
REMARK    6  A    between atoms: C_5  and  N_6
REMARK    7  A    between atoms: C_11  and  C_13
REMARK    8  A    between atoms: C_18  and  C_20
REMARK                            x       y       z     vdW  Elec       q    Type
REMARK                         _______ _______ _______ _____ _____    ______ ____
ROOT
ATOM      1  C   UNL     1       7.813  -3.684  23.514  0.00  0.00    +0.146 C 
ENDROOT
BRANCH   1   2
ATOM      2  N   UNL     1       8.796  -2.605  23.296  0.00  0.00    -0.305 N 
ATOM      3  H   UNL     1       9.775  -2.819  23.445  0.00  0.00    +0.149 HD
ATOM      4  C   UNL     1       8.429  -1.307  23.013  0.00  0.00    +0.217 C 
ATOM      5  O   UNL     1       7.262  -0.966  22.863  0.00  0.00    -0.275 OA
BRANCH   4   6
ATOM      6  C   UNL     1       9.586  -0.337  22.825  0.00  0.00    +0.075 C 
ATOM      7  C   UNL     1       9.997   0.404  24.100  0.00  0.00    +0.013 C 
ATOM      8  C   UNL     1      10.399   1.817  23.668  0.00  0.00    +0.001 C 
ATOM      9  C   UNL     1      10.256   1.859  22.153  0.00  0.00    +0.001 C 
ATOM     10  C   UNL     1       9.227   0.788  21.853  0.00  0.00    +0.013 C 
ENDBRANCH   4   6
ENDBRANCH   1   2
BRANCH   1  11
ATOM     11  C   UNL     1       8.280  -4.670  24.614  0.00  0.00    +0.208 C 
ATOM     12  O   UNL     1       9.318  -5.322  24.478  0.00  0.00    -0.288 OA
BRANCH  11  13
ATOM     13  C   UNL     1       7.426  -4.787  25.790  0.00  0.00    +0.147 A 
ATOM     14  S   UNL     1       6.208  -3.610  26.064  0.00  0.00    -0.064 S 
ATOM     15  C   UNL     1       5.772  -4.396  27.526  0.00  0.00    +0.040 A 
ATOM     16  C   UNL     1       4.776  -4.039  28.450  0.00  0.00    +0.017 A 
ATOM     17  C   UNL     1       4.600  -4.845  29.577  0.00  0.00    +0.001 A 
ATOM     18  C   UNL     1       5.393  -5.970  29.776  0.00  0.00    +0.002 A 
ATOM     19  C   UNL     1       6.387  -6.314  28.850  0.00  0.00    +0.029 A 
ATOM     20  C   UNL     1       6.585  -5.518  27.702  0.00  0.00    +0.079 A 
ATOM     21  N   UNL     1       7.532  -5.731  26.704  0.00  0.00    -0.236 NA
ENDBRANCH  11  13
ENDBRANCH   1  11
BRANCH   1  22
ATOM     22  C   UNL     1       7.472  -4.401  22.191  0.00  0.00    +0.033 C 
BRANCH  22  23
ATOM     23  C   UNL     1       5.974  -4.517  21.879  0.00  0.00    +0.039 C 
BRANCH  23  24
ATOM     24  C   UNL     1       5.572  -5.994  21.840  0.00  0.00    +0.196 C 
BRANCH  24  25
ATOM     25  N   UNL     1       5.410  -6.538  23.171  0.00  0.00    -0.276 N 
ATOM     26  H   UNL     1       6.274  -6.629  23.694  0.00  0.00    +0.258 HD
ATOM     27  C   UNL     1       4.303  -6.454  23.934  0.00  0.00    +0.376 C 
ATOM     28  N   UNL     1       3.157  -5.974  23.623  0.00  0.00    -0.130 NA
ATOM     29  H   UNL     1       3.185  -5.623  22.667  0.00  0.00    +0.306 HD
ATOM     30  N   UNL     1       4.487  -6.990  25.154  0.00  0.00    -0.289 N 
ATOM     31  H   UNL     1       3.585  -7.090  25.612  0.00  0.00    +0.255 HD
ATOM     32  H   UNL     1       4.976  -7.875  25.134  0.00  0.00    +0.255 HD
ENDBRANCH  24  25
ENDBRANCH  23  24
ENDBRANCH  22  23
ENDBRANCH   1  22
TORSDOF 8
ENDMDL
