MODEL 1
REMARK VINA RESULT:      -4.6      0.000      0.000
REMARK  Name = 
REMARK  4 active torsions:
REMARK  status: ('A' for Active; 'I' for Inactive)
REMARK    1  A    between atoms: O_1  and  C_2
REMARK    2  A    between atoms: C_6  and  C_11
REMARK    3  A    between atoms: C_8  and  O_10
REMARK    4  A    between atoms: C_11  and  O_12
REMARK                            x       y       z     vdW  Elec       q    Type
REMARK                         _______ _______ _______ _____ _____    ______ ____
ROOT
ATOM      1  C   UNL     1      10.056   2.748  23.262  0.00  0.00    +0.184 C 
ATOM      2  C   UNL     1       9.763   2.116  21.894  0.00  0.00    +0.173 C 
ATOM      3  C   UNL     1       9.888   0.639  21.853  0.00  0.00    +0.059 C 
ATOM      4  C   UNL     1       9.995  -0.119  22.947  0.00  0.00    +0.203 C 
ATOM      5  O   UNL     1       9.976   0.372  24.230  0.00  0.00    -0.483 OA
ATOM      6  C   UNL     1      10.273   1.756  24.417  0.00  0.00    +0.263 C 
ENDROOT
BRANCH   1   7
ATOM      7  O   UNL     1      11.238   3.566  23.153  0.00  0.00    -0.386 OA
ATOM      8  H   UNL     1      11.252   4.181  23.907  0.00  0.00    +0.210 HD
ENDBRANCH   1   7
BRANCH   2   9
ATOM      9  O   UNL     1       8.435   2.445  21.476  0.00  0.00    -0.385 OA
ATOM     10  H   UNL     1       8.485   2.830  20.586  0.00  0.00    +0.210 HD
ENDBRANCH   2   9
BRANCH   4  11
ATOM     11  C   UNL     1      10.091  -1.601  22.780  0.00  0.00    +0.372 C 
ATOM     12  O   UNL     1      10.161  -2.415  23.685  0.00  0.00    -0.242 OA
BRANCH  11  13
ATOM     13  O   UNL     1      10.082  -1.936  21.468  0.00  0.00    -0.475 OA
ATOM     14  H   UNL     1      10.460  -1.208  20.930  0.00  0.00    +0.296 HD
ENDBRANCH  11  13
ENDBRANCH   4  11
TORSDOF 4
ENDMDL
MODEL 2
REMARK VINA RESULT:      -4.6      3.245      4.702
REMARK  Name = 
REMARK  4 active torsions:
REMARK  status: ('A' for Active; 'I' for Inactive)
REMARK    1  A    between atoms: O_1  and  C_2
REMARK    2  A    between atoms: C_6  and  C_11
REMARK    3  A    between atoms: C_8  and  O_10
REMARK    4  A    between atoms: C_11  and  O_12
REMARK                            x       y       z     vdW  Elec       q    Type
REMARK                         _______ _______ _______ _____ _____    ______ ____
ROOT
ATOM      1  C   UNL     1       8.156  -1.826  22.348  0.00  0.00    +0.184 C 
ATOM      2  C   UNL     1       9.534  -1.663  23.005  0.00  0.00    +0.173 C 
ATOM      3  C   UNL     1       9.817  -2.617  24.103  0.00  0.00    +0.059 C 
ATOM      4  C   UNL     1       9.065  -3.693  24.351  0.00  0.00    +0.203 C 
ATOM      5  O   UNL     1       7.968  -4.054  23.609  0.00  0.00    -0.483 OA
ATOM      6  C   UNL     1       7.345  -3.049  22.810  0.00  0.00    +0.263 C 
ENDROOT
BRANCH   1   7
ATOM      7  O   UNL     1       7.371  -0.648  22.615  0.00  0.00    -0.386 OA
ATOM      8  H   UNL     1       7.926  -0.019  23.108  0.00  0.00    +0.210 HD
ENDBRANCH   1   7
BRANCH   2   9
ATOM      9  O   UNL     1      10.566  -1.819  22.026  0.00  0.00    -0.385 OA
ATOM     10  H   UNL     1      10.566  -1.030  21.459  0.00  0.00    +0.210 HD
ENDBRANCH   2   9
BRANCH   4  11
ATOM     11  C   UNL     1       9.465  -4.597  25.473  0.00  0.00    +0.372 C 
ATOM     12  O   UNL     1       9.117  -4.482  26.636  0.00  0.00    -0.242 OA
BRANCH  11  13
ATOM     13  O   UNL     1      10.272  -5.588  25.026  0.00  0.00    -0.475 OA
ATOM     14  H   UNL     1      10.740  -6.009  25.778  0.00  0.00    +0.296 HD
ENDBRANCH  11  13
ENDBRANCH   4  11
TORSDOF 4
ENDMDL
MODEL 3
REMARK VINA RESULT:      -4.6      3.508      4.889
REMARK  Name = 
REMARK  4 active torsions:
REMARK  status: ('A' for Active; 'I' for Inactive)
REMARK    1  A    between atoms: O_1  and  C_2
REMARK    2  A    between atoms: C_6  and  C_11
REMARK    3  A    between atoms: C_8  and  O_10
REMARK    4  A    between atoms: C_11  and  O_12
REMARK                            x       y       z     vdW  Elec       q    Type
REMARK                         _______ _______ _______ _____ _____    ______ ____
ROOT
ATOM      1  C   UNL     1       8.888  -1.843  22.655  0.00  0.00    +0.184 C 
ATOM      2  C   UNL     1       7.850  -2.957  22.456  0.00  0.00    +0.173 C 
ATOM      3  C   UNL     1       7.981  -4.103  23.387  0.00  0.00    +0.059 C 
ATOM      4  C   UNL     1       8.758  -4.080  24.473  0.00  0.00    +0.203 C 
ATOM      5  O   UNL     1       9.501  -2.995  24.866  0.00  0.00    -0.483 OA
ATOM      6  C   UNL     1       9.798  -2.001  23.885  0.00  0.00    +0.263 C 
ENDROOT
BRANCH   1   7
ATOM      7  O   UNL     1       9.730  -1.777  21.487  0.00  0.00    -0.386 OA
ATOM      8  H   UNL     1       9.932  -0.841  21.312  0.00  0.00    +0.210 HD
ENDBRANCH   1   7
BRANCH   2   9
ATOM      9  O   UNL     1       6.529  -2.429  22.608  0.00  0.00    -0.385 OA
ATOM     10  H   UNL     1       6.517  -1.533  22.234  0.00  0.00    +0.210 HD
ENDBRANCH   2   9
BRANCH   4  11
ATOM     11  C   UNL     1       8.789  -5.289  25.351  0.00  0.00    +0.372 C 
ATOM     12  O   UNL     1       7.889  -5.655  26.088  0.00  0.00    -0.242 OA
BRANCH  11  13
ATOM     13  O   UNL     1       9.964  -5.948  25.218  0.00  0.00    -0.475 OA
ATOM     14  H   UNL     1       9.843  -6.901  25.415  0.00  0.00    +0.296 HD
ENDBRANCH  11  13
ENDBRANCH   4  11
TORSDOF 4
ENDMDL
MODEL 4
REMARK VINA RESULT:      -4.5      4.746      6.269
REMARK  Name = 
REMARK  4 active torsions:
REMARK  status: ('A' for Active; 'I' for Inactive)
REMARK    1  A    between atoms: O_1  and  C_2
REMARK    2  A    between atoms: C_6  and  C_11
REMARK    3  A    between atoms: C_8  and  O_10
REMARK    4  A    between atoms: C_11  and  O_12
REMARK                            x       y       z     vdW  Elec       q    Type
REMARK                         _______ _______ _______ _____ _____    ______ ____
ROOT
ATOM      1  C   UNL     1       6.724  -4.217  22.036  0.00  0.00    +0.184 C 
ATOM      2  C   UNL     1       7.174  -3.019  22.885  0.00  0.00    +0.173 C 
ATOM      3  C   UNL     1       7.951  -3.374  24.097  0.00  0.00    +0.059 C 
ATOM      4  C   UNL     1       8.447  -4.594  24.318  0.00  0.00    +0.203 C 
ATOM      5  O   UNL     1       8.320  -5.648  23.447  0.00  0.00    -0.483 OA
ATOM      6  C   UNL     1       7.280  -5.582  22.471  0.00  0.00    +0.263 C 
ENDROOT
BRANCH   1   7
ATOM      7  O   UNL     1       5.285  -4.295  22.066  0.00  0.00    -0.386 OA
ATOM      8  H   UNL     1       5.021  -4.684  22.918  0.00  0.00    +0.210 HD
ENDBRANCH   1   7
BRANCH   2   9
ATOM      9  O   UNL     1       7.982  -2.137  22.101  0.00  0.00    -0.385 OA
ATOM     10  H   UNL     1       8.745  -1.869  22.638  0.00  0.00    +0.210 HD
ENDBRANCH   2   9
BRANCH   4  11
ATOM     11  C   UNL     1       9.237  -4.825  25.567  0.00  0.00    +0.372 C 
ATOM     12  O   UNL     1       9.020  -4.310  26.650  0.00  0.00    -0.242 OA
BRANCH  11  13
ATOM     13  O   UNL     1      10.241  -5.705  25.342  0.00  0.00    -0.475 OA
ATOM     14  H   UNL     1       9.921  -6.624  25.468  0.00  0.00    +0.296 HD
ENDBRANCH  11  13
ENDBRANCH   4  11
TORSDOF 4
ENDMDL
MODEL 5
REMARK VINA RESULT:      -4.5      4.491      6.321
REMARK  Name = 
REMARK  4 active torsions:
REMARK  status: ('A' for Active; 'I' for Inactive)
REMARK    1  A    between atoms: O_1  and  C_2
REMARK    2  A    between atoms: C_6  and  C_11
REMARK    3  A    between atoms: C_8  and  O_10
REMARK    4  A    between atoms: C_11  and  O_12
REMARK                            x       y       z     vdW  Elec       q    Type
REMARK                         _______ _______ _______ _____ _____    ______ ____
ROOT
ATOM      1  C   UNL     1       9.062  -3.334  24.571  0.00  0.00    +0.184 C 
ATOM      2  C   UNL     1       8.658  -4.806  24.732  0.00  0.00    +0.173 C 
ATOM      3  C   UNL     1       7.679  -5.295  23.732  0.00  0.00    +0.059 C 
ATOM      4  C   UNL     1       7.356  -4.614  22.629  0.00  0.00    +0.203 C 
ATOM      5  O   UNL     1       7.905  -3.405  22.280  0.00  0.00    -0.483 OA
ATOM      6  C   UNL     1       8.526  -2.635  23.310  0.00  0.00    +0.263 C 
ENDROOT
BRANCH   1   7
ATOM      7  O   UNL     1       8.598  -2.595  25.718  0.00  0.00    -0.386 OA
ATOM      8  H   UNL     1       9.307  -2.593  26.384  0.00  0.00    +0.210 HD
ENDBRANCH   1   7
BRANCH   2   9
ATOM      9  O   UNL     1       9.813  -5.645  24.646  0.00  0.00    -0.385 OA
ATOM     10  H   UNL     1      10.477  -5.309  25.271  0.00  0.00    +0.210 HD
ENDBRANCH   2   9
BRANCH   4  11
ATOM     11  C   UNL     1       6.372  -5.221  21.680  0.00  0.00    +0.372 C 
ATOM     12  O   UNL     1       5.788  -4.630  20.788  0.00  0.00    -0.242 OA
BRANCH  11  13
ATOM     13  O   UNL     1       6.213  -6.541  21.936  0.00  0.00    -0.475 OA
ATOM     14  H   UNL     1       6.554  -6.756  22.830  0.00  0.00    +0.296 HD
ENDBRANCH  11  13
ENDBRANCH   4  11
TORSDOF 4
ENDMDL
MODEL 6
REMARK VINA RESULT:      -4.4      6.169      7.204
REMARK  Name = 
REMARK  4 active torsions:
REMARK  status: ('A' for Active; 'I' for Inactive)
REMARK    1  A    between atoms: O_1  and  C_2
REMARK    2  A    between atoms: C_6  and  C_11
REMARK    3  A    between atoms: C_8  and  O_10
REMARK    4  A    between atoms: C_11  and  O_12
REMARK                            x       y       z     vdW  Elec       q    Type
REMARK                         _______ _______ _______ _____ _____    ______ ____
ROOT
ATOM      1  C   UNL     1       7.881  -4.846  25.955  0.00  0.00    +0.184 C 
ATOM      2  C   UNL     1       8.695  -5.138  24.686  0.00  0.00    +0.173 C 
ATOM      3  C   UNL     1       7.891  -5.269  23.448  0.00  0.00    +0.059 C 
ATOM      4  C   UNL     1       6.604  -4.918  23.368  0.00  0.00    +0.203 C 
ATOM      5  O   UNL     1       5.888  -4.375  24.407  0.00  0.00    -0.483 OA
ATOM      6  C   UNL     1       6.385  -4.570  25.731  0.00  0.00    +0.263 C 
ENDROOT
BRANCH   1   7
ATOM      7  O   UNL     1       7.995  -5.970  26.850  0.00  0.00    -0.386 OA
ATOM      8  H   UNL     1       8.543  -6.647  26.417  0.00  0.00    +0.210 HD
ENDBRANCH   1   7
BRANCH   2   9
ATOM      9  O   UNL     1       9.652  -4.098  24.467  0.00  0.00    -0.385 OA
ATOM     10  H   UNL     1       9.233  -3.250  24.686  0.00  0.00    +0.210 HD
ENDBRANCH   2   9
BRANCH   4  11
ATOM     11  C   UNL     1       5.904  -5.073  22.057  0.00  0.00    +0.372 C 
ATOM     12  O   UNL     1       5.568  -4.162  21.319  0.00  0.00    -0.242 OA
BRANCH  11  13
ATOM     13  O   UNL     1       5.691  -6.381  21.780  0.00  0.00    -0.475 OA
ATOM     14  H   UNL     1       6.545  -6.839  21.631  0.00  0.00    +0.296 HD
ENDBRANCH  11  13
ENDBRANCH   4  11
TORSDOF 4
ENDMDL
MODEL 7
REMARK VINA RESULT:      -4.4      1.696      4.298
REMARK  Name = 
REMARK  4 active torsions:
REMARK  status: ('A' for Active; 'I' for Inactive)
REMARK    1  A    between atoms: O_1  and  C_2
REMARK    2  A    between atoms: C_6  and  C_11
REMARK    3  A    between atoms: C_8  and  O_10
REMARK    4  A    between atoms: C_11  and  O_12
REMARK                            x       y       z     vdW  Elec       q    Type
REMARK                         _______ _______ _______ _____ _____    ______ ____
ROOT
ATOM      1  C   UNL     1       9.290  -1.897  24.231  0.00  0.00    +0.184 C 
ATOM      2  C   UNL     1      10.075  -0.613  24.538  0.00  0.00    +0.173 C 
ATOM      3  C   UNL     1       9.841   0.500  23.587  0.00  0.00    +0.059 C 
ATOM      4  C   UNL     1       8.854   0.501  22.688  0.00  0.00    +0.203 C 
ATOM      5  O   UNL     1       7.931  -0.507  22.555  0.00  0.00    -0.483 OA
ATOM      6  C   UNL     1       8.262  -1.788  23.093  0.00  0.00    +0.263 C 
ENDROOT
BRANCH   1   7
ATOM      7  O   UNL     1      10.222  -2.942  23.888  0.00  0.00    -0.386 OA
ATOM      8  H   UNL     1      10.054  -3.701  24.472  0.00  0.00    +0.210 HD
ENDBRANCH   1   7
BRANCH   2   9
ATOM      9  O   UNL     1       9.745  -0.137  25.845  0.00  0.00    -0.385 OA
ATOM     10  H   UNL     1       8.969   0.443  25.769  0.00  0.00    +0.210 HD
ENDBRANCH   2   9
BRANCH   4  11
ATOM     11  C   UNL     1       8.702   1.693  21.798  0.00  0.00    +0.372 C 
ATOM     12  O   UNL     1       7.645   2.171  21.425  0.00  0.00    -0.242 OA
BRANCH  11  13
ATOM     13  O   UNL     1       9.914   2.192  21.457  0.00  0.00    -0.475 OA
ATOM     14  H   UNL     1       9.830   2.784  20.679  0.00  0.00    +0.296 HD
ENDBRANCH  11  13
ENDBRANCH   4  11
TORSDOF 4
ENDMDL
MODEL 8
REMARK VINA RESULT:      -4.4      1.960      3.181
REMARK  Name = 
REMARK  4 active torsions:
REMARK  status: ('A' for Active; 'I' for Inactive)
REMARK    1  A    between atoms: O_1  and  C_2
REMARK    2  A    between atoms: C_6  and  C_11
REMARK    3  A    between atoms: C_8  and  O_10
REMARK    4  A    between atoms: C_11  and  O_12
REMARK                            x       y       z     vdW  Elec       q    Type
REMARK                         _______ _______ _______ _____ _____    ______ ____
ROOT
ATOM      1  C   UNL     1       9.115   0.699  21.695  0.00  0.00    +0.184 C 
ATOM      2  C   UNL     1      10.157  -0.316  22.186  0.00  0.00    +0.173 C 
ATOM      3  C   UNL     1       9.981  -0.758  23.590  0.00  0.00    +0.059 C 
ATOM      4  C   UNL     1       8.881  -0.508  24.305  0.00  0.00    +0.203 C 
ATOM      5  O   UNL     1       7.782   0.158  23.821  0.00  0.00    -0.483 OA
ATOM      6  C   UNL     1       7.958   0.981  22.667  0.00  0.00    +0.263 C 
ENDROOT
BRANCH   1   7
ATOM      7  O   UNL     1       9.777   1.950  21.421  0.00  0.00    -0.386 OA
ATOM      8  H   UNL     1      10.735   1.815  21.526  0.00  0.00    +0.210 HD
ENDBRANCH   1   7
BRANCH   2   9
ATOM      9  O   UNL     1      10.129  -1.485  21.363  0.00  0.00    -0.385 OA
ATOM     10  H   UNL     1      10.413  -1.232  20.469  0.00  0.00    +0.210 HD
ENDBRANCH   2   9
BRANCH   4  11
ATOM     11  C   UNL     1       8.808  -1.026  25.705  0.00  0.00    +0.372 C 
ATOM     12  O   UNL     1       8.282  -2.071  26.050  0.00  0.00    -0.242 OA
BRANCH  11  13
ATOM     13  O   UNL     1       9.422  -0.176  26.562  0.00  0.00    -0.475 OA
ATOM     14  H   UNL     1      10.291   0.100  26.201  0.00  0.00    +0.296 HD
ENDBRANCH  11  13
ENDBRANCH   4  11
TORSDOF 4
ENDMDL
MODEL 9
REMARK VINA RESULT:      -4.4      4.494      6.358
REMARK  Name = 
REMARK  4 active torsions:
REMARK  status: ('A' for Active; 'I' for Inactive)
REMARK    1  A    between atoms: O_1  and  C_2
REMARK    2  A    between atoms: C_6  and  C_11
REMARK    3  A    between atoms: C_8  and  O_10
REMARK    4  A    between atoms: C_11  and  O_12
REMARK                            x       y       z     vdW  Elec       q    Type
REMARK                         _______ _______ _______ _____ _____    ______ ____
ROOT
ATOM      1  C   UNL     1       8.623  -4.436  26.618  0.00  0.00    +0.184 C 
ATOM      2  C   UNL     1       8.861  -5.354  25.410  0.00  0.00    +0.173 C 
ATOM      3  C   UNL     1       8.449  -4.784  24.105  0.00  0.00    +0.059 C 
ATOM      4  C   UNL     1       8.136  -3.497  23.934  0.00  0.00    +0.203 C 
ATOM      5  O   UNL     1       8.181  -2.553  24.930  0.00  0.00    -0.483 OA
ATOM      6  C   UNL     1       8.153  -3.011  26.282  0.00  0.00    +0.263 C 
ENDROOT
BRANCH   1   7
ATOM      7  O   UNL     1       7.633  -5.039  27.474  0.00  0.00    -0.386 OA
ATOM      8  H   UNL     1       7.267  -4.345  28.049  0.00  0.00    +0.210 HD
ENDBRANCH   1   7
BRANCH   2   9
ATOM      9  O   UNL     1      10.248  -5.689  25.314  0.00  0.00    -0.385 OA
ATOM     10  H   UNL     1      10.766  -4.897  25.531  0.00  0.00    +0.210 HD
ENDBRANCH   2   9
BRANCH   4  11
ATOM     11  C   UNL     1       7.759  -3.033  22.563  0.00  0.00    +0.372 C 
ATOM     12  O   UNL     1       6.766  -3.376  21.945  0.00  0.00    -0.242 OA
BRANCH  11  13
ATOM     13  O   UNL     1       8.675  -2.157  22.086  0.00  0.00    -0.475 OA
ATOM     14  H   UNL     1       8.659  -1.330  22.613  0.00  0.00    +0.296 HD
ENDBRANCH  11  13
ENDBRANCH   4  11
TORSDOF 4
ENDMDL
