MODEL 1
REMARK VINA RESULT:      -5.2      0.000      0.000
REMARK  Name = 
REMARK  0 active torsions:
REMARK  status: ('A' for Active; 'I' for Inactive)
REMARK                            x       y       z     vdW  Elec       q    Type
REMARK                         _______ _______ _______ _____ _____    ______ ____
ROOT
ATOM      1  O   UNL     1       8.729  -2.190  21.857  0.00  0.00    -0.245 OA
ATOM      2  C   UNL     1       9.196  -1.156  22.328  0.00  0.00    +0.350 A 
ATOM      3  N   UNL     1       9.429  -0.043  21.553  0.00  0.00    -0.174 NA
ATOM      4  C   UNL     1       9.876   1.019  22.128  0.00  0.00    +0.165 A 
ATOM      5  C   UNL     1      10.101   1.107  23.584  0.00  0.00    +0.100 A 
ATOM      6  C   UNL     1      10.439   2.391  23.762  0.00  0.00    +0.118 A 
ATOM      7  N   UNL     1      10.407   3.122  22.579  0.00  0.00    -0.305 N 
ATOM      8  H   UNL     1      11.189   3.774  22.475  0.00  0.00    +0.186 HD
ATOM      9  C   UNL     1       9.920  -0.064  24.411  0.00  0.00    +0.265 A 
ATOM     10  O   UNL     1      10.109  -0.081  25.618  0.00  0.00    -0.267 OA
ATOM     11  N   UNL     1      10.186   2.236  21.538  0.00  0.00    -0.283 N 
ATOM     12  H   UNL     1       9.585   2.512  20.762  0.00  0.00    +0.188 HD
ATOM     13  N   UNL     1       9.491  -1.137  23.677  0.00  0.00    -0.273 N 
ATOM     14  H   UNL     1       9.299  -1.993  24.173  0.00  0.00    +0.174 HD
ENDROOT
TORSDOF 0
ENDMDL
MODEL 2
REMARK VINA RESULT:      -5.0      4.226      6.147
REMARK  Name = 
REMARK  0 active torsions:
REMARK  status: ('A' for Active; 'I' for Inactive)
REMARK                            x       y       z     vdW  Elec       q    Type
REMARK                         _______ _______ _______ _____ _____    ______ ____
ROOT
ATOM      1  O   UNL     1      10.395  -2.522  23.358  0.00  0.00    -0.245 OA
ATOM      2  C   UNL     1       9.596  -2.991  24.165  0.00  0.00    +0.350 A 
ATOM      3  N   UNL     1       9.720  -4.273  24.650  0.00  0.00    -0.174 NA
ATOM      4  C   UNL     1       8.871  -4.678  25.529  0.00  0.00    +0.165 A 
ATOM      5  C   UNL     1       7.806  -3.812  26.073  0.00  0.00    +0.100 A 
ATOM      6  C   UNL     1       7.249  -4.575  27.023  0.00  0.00    +0.118 A 
ATOM      7  N   UNL     1       7.881  -5.806  27.158  0.00  0.00    -0.305 N 
ATOM      8  H   UNL     1       7.235  -6.589  27.292  0.00  0.00    +0.186 HD
ATOM      9  C   UNL     1       7.619  -2.482  25.539  0.00  0.00    +0.265 A 
ATOM     10  O   UNL     1       6.747  -1.713  25.915  0.00  0.00    -0.267 OA
ATOM     11  N   UNL     1       8.807  -5.924  26.136  0.00  0.00    -0.283 N 
ATOM     12  H   UNL     1       9.707  -6.367  26.321  0.00  0.00    +0.188 HD
ATOM     13  N   UNL     1       8.551  -2.189  24.580  0.00  0.00    -0.273 N 
ATOM     14  H   UNL     1       8.526  -1.267  24.173  0.00  0.00    +0.174 HD
ENDROOT
TORSDOF 0
ENDMDL
MODEL 3
REMARK VINA RESULT:      -5.0      1.890      2.270
REMARK  Name = 
REMARK  0 active torsions:
REMARK  status: ('A' for Active; 'I' for Inactive)
REMARK                            x       y       z     vdW  Elec       q    Type
REMARK                         _______ _______ _______ _____ _____    ______ ____
ROOT
ATOM      1  O   UNL     1      10.568  -2.641  23.047  0.00  0.00    -0.245 OA
ATOM      2  C   UNL     1       9.905  -1.621  22.880  0.00  0.00    +0.350 A 
ATOM      3  N   UNL     1      10.463  -0.460  22.396  0.00  0.00    -0.174 NA
ATOM      4  C   UNL     1       9.694   0.554  22.204  0.00  0.00    +0.165 A 
ATOM      5  C   UNL     1       8.236   0.508  22.430  0.00  0.00    +0.100 A 
ATOM      6  C   UNL     1       7.824   1.707  21.998  0.00  0.00    +0.118 A 
ATOM      7  N   UNL     1       8.863   2.477  21.486  0.00  0.00    -0.305 N 
ATOM      8  H   UNL     1       8.817   3.464  21.757  0.00  0.00    +0.186 HD
ATOM      9  C   UNL     1       7.634  -0.679  22.992  0.00  0.00    +0.265 A 
ATOM     10  O   UNL     1       6.441  -0.789  23.234  0.00  0.00    -0.267 OA
ATOM     11  N   UNL     1      10.050   1.811  21.737  0.00  0.00    -0.283 N 
ATOM     12  H   UNL     1      10.791   1.825  21.037  0.00  0.00    +0.188 HD
ATOM     13  N   UNL     1       8.561  -1.665  23.197  0.00  0.00    -0.273 N 
ATOM     14  H   UNL     1       8.230  -2.549  23.551  0.00  0.00    +0.174 HD
ENDROOT
TORSDOF 0
ENDMDL
MODEL 4
REMARK VINA RESULT:      -5.0      1.700      3.272
REMARK  Name = 
REMARK  0 active torsions:
REMARK  status: ('A' for Active; 'I' for Inactive)
REMARK                            x       y       z     vdW  Elec       q    Type
REMARK                         _______ _______ _______ _____ _____    ______ ____
ROOT
ATOM      1  O   UNL     1      10.233   3.571  23.693  0.00  0.00    -0.245 OA
ATOM      2  C   UNL     1      10.021   2.367  23.575  0.00  0.00    +0.350 A 
ATOM      3  N   UNL     1       9.947   1.758  22.344  0.00  0.00    -0.174 NA
ATOM      4  C   UNL     1       9.769   0.484  22.302  0.00  0.00    +0.165 A 
ATOM      5  C   UNL     1       9.694  -0.355  23.515  0.00  0.00    +0.100 A 
ATOM      6  C   UNL     1       9.632  -1.599  23.021  0.00  0.00    +0.118 A 
ATOM      7  N   UNL     1       9.706  -1.627  21.632  0.00  0.00    -0.305 N 
ATOM      8  H   UNL     1       9.062  -2.294  21.198  0.00  0.00    +0.186 HD
ATOM      9  C   UNL     1       9.711   0.266  24.819  0.00  0.00    +0.265 A 
ATOM     10  O   UNL     1       9.627  -0.353  25.870  0.00  0.00    -0.267 OA
ATOM     11  N   UNL     1       9.656  -0.320  21.177  0.00  0.00    -0.283 N 
ATOM     12  H   UNL     1      10.231  -0.044  20.381  0.00  0.00    +0.188 HD
ATOM     13  N   UNL     1       9.854   1.625  24.728  0.00  0.00    -0.273 N 
ATOM     14  H   UNL     1       9.916   2.144  25.589  0.00  0.00    +0.174 HD
ENDROOT
TORSDOF 0
ENDMDL
MODEL 5
REMARK VINA RESULT:      -5.0      6.023      7.099
REMARK  Name = 
REMARK  0 active torsions:
REMARK  status: ('A' for Active; 'I' for Inactive)
REMARK                            x       y       z     vdW  Elec       q    Type
REMARK                         _______ _______ _______ _____ _____    ______ ____
ROOT
ATOM      1  O   UNL     1       7.128  -6.003  28.221  0.00  0.00    -0.245 OA
ATOM      2  C   UNL     1       7.297  -5.715  27.039  0.00  0.00    +0.350 A 
ATOM      3  N   UNL     1       6.241  -5.524  26.178  0.00  0.00    -0.174 NA
ATOM      4  C   UNL     1       6.496  -5.177  24.965  0.00  0.00    +0.165 A 
ATOM      5  C   UNL     1       7.866  -4.926  24.476  0.00  0.00    +0.100 A 
ATOM      6  C   UNL     1       7.666  -4.479  23.229  0.00  0.00    +0.118 A 
ATOM      7  N   UNL     1       6.317  -4.384  22.905  0.00  0.00    -0.305 N 
ATOM      8  H   UNL     1       6.096  -4.702  21.957  0.00  0.00    +0.186 HD
ATOM      9  C   UNL     1       8.995  -5.174  25.342  0.00  0.00    +0.265 A 
ATOM     10  O   UNL     1      10.160  -5.016  25.006  0.00  0.00    -0.267 OA
ATOM     11  N   UNL     1       5.590  -4.946  23.940  0.00  0.00    -0.283 N 
ATOM     12  H   UNL     1       4.708  -4.520  24.224  0.00  0.00    +0.188 HD
ATOM     13  N   UNL     1       8.595  -5.585  26.585  0.00  0.00    -0.273 N 
ATOM     14  H   UNL     1       9.312  -5.746  27.275  0.00  0.00    +0.174 HD
ENDROOT
TORSDOF 0
ENDMDL
MODEL 6
REMARK VINA RESULT:      -4.9      2.355      3.289
REMARK  Name = 
REMARK  0 active torsions:
REMARK  status: ('A' for Active; 'I' for Inactive)
REMARK                            x       y       z     vdW  Elec       q    Type
REMARK                         _______ _______ _______ _____ _____    ______ ____
ROOT
ATOM      1  O   UNL     1       9.073  -0.784  26.802  0.00  0.00    -0.245 OA
ATOM      2  C   UNL     1       9.332  -0.499  25.636  0.00  0.00    +0.350 A 
ATOM      3  N   UNL     1       9.209  -1.416  24.617  0.00  0.00    -0.174 NA
ATOM      4  C   UNL     1       9.454  -1.029  23.414  0.00  0.00    +0.165 A 
ATOM      5  C   UNL     1       9.809   0.364  23.077  0.00  0.00    +0.100 A 
ATOM      6  C   UNL     1       9.853   0.351  21.738  0.00  0.00    +0.118 A 
ATOM      7  N   UNL     1       9.520  -0.890  21.204  0.00  0.00    -0.305 N 
ATOM      8  H   UNL     1      10.111  -1.172  20.417  0.00  0.00    +0.186 HD
ATOM      9  C   UNL     1      10.002   1.332  24.132  0.00  0.00    +0.265 A 
ATOM     10  O   UNL     1      10.320   2.495  23.940  0.00  0.00    -0.267 OA
ATOM     11  N   UNL     1       9.402  -1.786  22.252  0.00  0.00    -0.283 N 
ATOM     12  H   UNL     1       8.672  -2.497  22.226  0.00  0.00    +0.188 HD
ATOM     13  N   UNL     1       9.760   0.786  25.365  0.00  0.00    -0.273 N 
ATOM     14  H   UNL     1       9.830   1.396  26.165  0.00  0.00    +0.174 HD
ENDROOT
TORSDOF 0
ENDMDL
MODEL 7
REMARK VINA RESULT:      -4.8      6.452      6.668
REMARK  Name = 
REMARK  0 active torsions:
REMARK  status: ('A' for Active; 'I' for Inactive)
REMARK                            x       y       z     vdW  Elec       q    Type
REMARK                         _______ _______ _______ _____ _____    ______ ____
ROOT
ATOM      1  O   UNL     1       7.212  -5.382  21.681  0.00  0.00    -0.245 OA
ATOM      2  C   UNL     1       7.372  -5.282  22.894  0.00  0.00    +0.350 A 
ATOM      3  N   UNL     1       8.593  -5.503  23.489  0.00  0.00    -0.174 NA
ATOM      4  C   UNL     1       8.694  -5.333  24.761  0.00  0.00    +0.165 A 
ATOM      5  C   UNL     1       7.571  -4.863  25.597  0.00  0.00    +0.100 A 
ATOM      6  C   UNL     1       8.134  -4.710  26.803  0.00  0.00    +0.118 A 
ATOM      7  N   UNL     1       9.497  -4.992  26.797  0.00  0.00    -0.305 N 
ATOM      8  H   UNL     1       9.812  -5.520  27.615  0.00  0.00    +0.186 HD
ATOM      9  C   UNL     1       6.265  -4.681  25.009  0.00  0.00    +0.265 A 
ATOM     10  O   UNL     1       5.279  -4.320  25.635  0.00  0.00    -0.267 OA
ATOM     11  N   UNL     1       9.819  -5.509  25.554  0.00  0.00    -0.283 N 
ATOM     12  H   UNL     1      10.705  -5.256  25.119  0.00  0.00    +0.188 HD
ATOM     13  N   UNL     1       6.278  -4.939  23.664  0.00  0.00    -0.273 N 
ATOM     14  H   UNL     1       5.418  -4.802  23.156  0.00  0.00    +0.174 HD
ENDROOT
TORSDOF 0
ENDMDL
MODEL 8
REMARK VINA RESULT:      -4.8      5.067      6.695
REMARK  Name = 
REMARK  0 active torsions:
REMARK  status: ('A' for Active; 'I' for Inactive)
REMARK                            x       y       z     vdW  Elec       q    Type
REMARK                         _______ _______ _______ _____ _____    ______ ____
ROOT
ATOM      1  O   UNL     1       5.749  -4.605  21.964  0.00  0.00    -0.245 OA
ATOM      2  C   UNL     1       6.422  -4.612  22.991  0.00  0.00    +0.350 A 
ATOM      3  N   UNL     1       6.020  -5.286  24.121  0.00  0.00    -0.174 NA
ATOM      4  C   UNL     1       6.803  -5.287  25.143  0.00  0.00    +0.165 A 
ATOM      5  C   UNL     1       8.130  -4.641  25.136  0.00  0.00    +0.100 A 
ATOM      6  C   UNL     1       8.641  -4.982  26.326  0.00  0.00    +0.118 A 
ATOM      7  N   UNL     1       7.792  -5.808  27.056  0.00  0.00    -0.305 N 
ATOM      8  H   UNL     1       7.747  -5.576  28.052  0.00  0.00    +0.186 HD
ATOM      9  C   UNL     1       8.552  -3.878  23.983  0.00  0.00    +0.265 A 
ATOM     10  O   UNL     1       9.622  -3.293  23.907  0.00  0.00    -0.267 OA
ATOM     11  N   UNL     1       6.589  -5.889  26.375  0.00  0.00    -0.283 N 
ATOM     12  H   UNL     1       6.086  -6.775  26.347  0.00  0.00    +0.188 HD
ATOM     13  N   UNL     1       7.614  -3.914  22.986  0.00  0.00    -0.273 N 
ATOM     14  H   UNL     1       7.835  -3.442  22.123  0.00  0.00    +0.174 HD
ENDROOT
TORSDOF 0
ENDMDL
MODEL 9
REMARK VINA RESULT:      -4.6      2.792      3.375
REMARK  Name = 
REMARK  0 active torsions:
REMARK  status: ('A' for Active; 'I' for Inactive)
REMARK                            x       y       z     vdW  Elec       q    Type
REMARK                         _______ _______ _______ _____ _____    ______ ____
ROOT
ATOM      1  O   UNL     1       5.106   1.500  24.460  0.00  0.00    -0.245 OA
ATOM      2  C   UNL     1       6.083   1.260  23.756  0.00  0.00    +0.350 A 
ATOM      3  N   UNL     1       6.853   2.262  23.212  0.00  0.00    -0.174 NA
ATOM      4  C   UNL     1       7.889   1.931  22.523  0.00  0.00    +0.165 A 
ATOM      5  C   UNL     1       8.313   0.530  22.338  0.00  0.00    +0.100 A 
ATOM      6  C   UNL     1       9.475   0.648  21.681  0.00  0.00    +0.118 A 
ATOM      7  N   UNL     1       9.842   1.975  21.478  0.00  0.00    -0.305 N 
ATOM      8  H   UNL     1      10.231   2.157  20.549  0.00  0.00    +0.186 HD
ATOM      9  C   UNL     1       7.492  -0.543  22.849  0.00  0.00    +0.265 A 
ATOM     10  O   UNL     1       7.758  -1.728  22.716  0.00  0.00    -0.267 OA
ATOM     11  N   UNL     1       8.787   2.774  21.884  0.00  0.00    -0.283 N 
ATOM     12  H   UNL     1       8.979   3.653  22.363  0.00  0.00    +0.188 HD
ATOM     13  N   UNL     1       6.397  -0.064  23.517  0.00  0.00    -0.273 N 
ATOM     14  H   UNL     1       5.781  -0.738  23.944  0.00  0.00    +0.174 HD
ENDROOT
TORSDOF 0
ENDMDL
