MODEL 1
REMARK VINA RESULT:      -5.7      0.000      0.000
REMARK  Name = 
REMARK  6 active torsions:
REMARK  status: ('A' for Active; 'I' for Inactive)
REMARK    1  A    between atoms: C_5  and  N_6
REMARK    2  A    between atoms: N_6  and  C_7
REMARK    3  A    between atoms: C_7  and  O_9
REMARK    4  A    between atoms: O_9  and  C_10
REMARK    5  A    between atoms: C_10  and  C_11
REMARK    6  A    between atoms: C_11  and  N_12
REMARK                            x       y       z     vdW  Elec       q    Type
REMARK                         _______ _______ _______ _____ _____    ______ ____
ROOT
ATOM      1  C   UNL     1       3.236  -5.484  27.355  0.00  0.00    +0.250 C 
ENDROOT
BRANCH   1   2
ATOM      2  O   UNL     1       4.162  -6.545  27.707  0.00  0.00    -0.472 OA
BRANCH   2   3
ATOM      3  C   UNL     1       5.371  -6.348  28.293  0.00  0.00    +0.232 C 
ATOM      4  S   UNL     1       5.592  -6.047  29.914  0.00  0.00    +0.006 S 
BRANCH   3   5
ATOM      5  N   UNL     1       6.444  -6.310  27.444  0.00  0.00    -0.279 N 
ATOM      6  H   UNL     1       6.811  -7.227  27.215  0.00  0.00    +0.156 HD
BRANCH   5  11
ATOM      7  I   UNL     1       9.107  -1.597  24.251  0.00  0.00    -0.044 I 
ATOM      8  C   UNL     1       8.219  -3.142  25.320  0.00  0.00    +0.013 A 
ATOM      9  C   UNL     1       8.628  -4.455  25.113  0.00  0.00    +0.016 A 
ATOM     10  C   UNL     1       8.028  -5.490  25.838  0.00  0.00    +0.024 A 
ATOM     11  C   UNL     1       7.037  -5.215  26.789  0.00  0.00    +0.034 A 
ATOM     12  C   UNL     1       6.626  -3.894  26.977  0.00  0.00    +0.024 A 
ATOM     13  C   UNL     1       7.212  -2.858  26.241  0.00  0.00    +0.016 A 
ENDBRANCH   5  11
ENDBRANCH   3   5
ENDBRANCH   2   3
ENDBRANCH   1   2
BRANCH   1  14
ATOM     14  C   UNL     1       2.668  -5.666  25.945  0.00  0.00    +0.158 C 
BRANCH  14  15
ATOM     15  N   UNL     1       3.638  -5.344  24.916  0.00  0.00    -0.231 N 
ATOM     16  C   UNL     1       4.438  -6.265  24.297  0.00  0.00    +0.254 C 
ATOM     17  O   UNL     1       4.495  -7.467  24.462  0.00  0.00    -0.270 OA
ATOM     18  C   UNL     1       5.286  -5.520  23.366  0.00  0.00    +0.049 A 
ATOM     19  C   UNL     1       6.260  -5.956  22.489  0.00  0.00    +0.014 A 
ATOM     20  C   UNL     1       6.917  -4.982  21.730  0.00  0.00    +0.001 A 
ATOM     21  C   UNL     1       6.592  -3.616  21.864  0.00  0.00    +0.001 A 
ATOM     22  C   UNL     1       5.605  -3.200  22.762  0.00  0.00    +0.014 A 
ATOM     23  C   UNL     1       4.971  -4.179  23.499  0.00  0.00    +0.049 A 
ATOM     24  C   UNL     1       3.927  -4.070  24.515  0.00  0.00    +0.254 C 
ATOM     25  O   UNL     1       3.460  -3.018  24.905  0.00  0.00    -0.270 OA
ENDBRANCH  14  15
ENDBRANCH   1  14
TORSDOF 6
ENDMDL
MODEL 2
REMARK VINA RESULT:      -5.7      0.093      1.786
REMARK  Name = 
REMARK  6 active torsions:
REMARK  status: ('A' for Active; 'I' for Inactive)
REMARK    1  A    between atoms: C_5  and  N_6
REMARK    2  A    between atoms: N_6  and  C_7
REMARK    3  A    between atoms: C_7  and  O_9
REMARK    4  A    between atoms: O_9  and  C_10
REMARK    5  A    between atoms: C_10  and  C_11
REMARK    6  A    between atoms: C_11  and  N_12
REMARK                            x       y       z     vdW  Elec       q    Type
REMARK                         _______ _______ _______ _____ _____    ______ ____
ROOT
ATOM      1  C   UNL     1       3.206  -5.565  27.452  0.00  0.00    +0.250 C 
ENDROOT
BRANCH   1   2
ATOM      2  O   UNL     1       4.168  -6.611  27.748  0.00  0.00    -0.472 OA
BRANCH   2   3
ATOM      3  C   UNL     1       5.405  -6.394  28.264  0.00  0.00    +0.232 C 
ATOM      4  S   UNL     1       5.716  -6.109  29.873  0.00  0.00    +0.006 S 
BRANCH   3   5
ATOM      5  N   UNL     1       6.425  -6.323  27.353  0.00  0.00    -0.279 N 
ATOM      6  H   UNL     1       6.746  -7.229  27.033  0.00  0.00    +0.156 HD
BRANCH   5  11
ATOM      7  I   UNL     1       9.077  -1.468  24.370  0.00  0.00    -0.044 I 
ATOM      8  C   UNL     1       8.192  -3.060  25.370  0.00  0.00    +0.013 A 
ATOM      9  C   UNL     1       8.626  -4.359  25.130  0.00  0.00    +0.016 A 
ATOM     10  C   UNL     1       8.028  -5.427  25.808  0.00  0.00    +0.024 A 
ATOM     11  C   UNL     1       7.014  -5.197  26.747  0.00  0.00    +0.034 A 
ATOM     12  C   UNL     1       6.578  -3.890  26.968  0.00  0.00    +0.024 A 
ATOM     13  C   UNL     1       7.162  -2.821  26.278  0.00  0.00    +0.016 A 
ENDBRANCH   5  11
ENDBRANCH   3   5
ENDBRANCH   2   3
ENDBRANCH   1   2
BRANCH   1  14
ATOM     14  C   UNL     1       2.661  -5.679  26.025  0.00  0.00    +0.158 C 
BRANCH  14  15
ATOM     15  N   UNL     1       3.659  -5.346  25.028  0.00  0.00    -0.231 N 
ATOM     16  C   UNL     1       3.919  -4.074  24.593  0.00  0.00    +0.254 C 
ATOM     17  O   UNL     1       3.407  -3.027  24.934  0.00  0.00    -0.270 OA
ATOM     18  C   UNL     1       4.957  -4.189  23.568  0.00  0.00    +0.049 A 
ATOM     19  C   UNL     1       5.591  -3.220  22.816  0.00  0.00    +0.014 A 
ATOM     20  C   UNL     1       6.547  -3.653  21.892  0.00  0.00    +0.001 A 
ATOM     21  C   UNL     1       6.843  -5.024  21.742  0.00  0.00    +0.001 A 
ATOM     22  C   UNL     1       6.184  -5.987  22.514  0.00  0.00    +0.014 A 
ATOM     23  C   UNL     1       5.246  -5.535  23.418  0.00  0.00    +0.049 A 
ATOM     24  C   UNL     1       4.391  -6.275  24.343  0.00  0.00    +0.254 C 
ATOM     25  O   UNL     1       4.362  -7.487  24.425  0.00  0.00    -0.270 OA
ENDBRANCH  14  15
ENDBRANCH   1  14
TORSDOF 6
ENDMDL
MODEL 3
REMARK VINA RESULT:      -5.7      3.881      5.527
REMARK  Name = 
REMARK  6 active torsions:
REMARK  status: ('A' for Active; 'I' for Inactive)
REMARK    1  A    between atoms: C_5  and  N_6
REMARK    2  A    between atoms: N_6  and  C_7
REMARK    3  A    between atoms: C_7  and  O_9
REMARK    4  A    between atoms: O_9  and  C_10
REMARK    5  A    between atoms: C_10  and  C_11
REMARK    6  A    between atoms: C_11  and  N_12
REMARK                            x       y       z     vdW  Elec       q    Type
REMARK                         _______ _______ _______ _____ _____    ______ ____
ROOT
ATOM      1  C   UNL     1       9.801   0.200  24.976  0.00  0.00    +0.250 C 
ENDROOT
BRANCH   1   2
ATOM      2  O   UNL     1       8.503   0.497  25.554  0.00  0.00    -0.472 OA
BRANCH   2   3
ATOM      3  C   UNL     1       7.962  -0.164  26.610  0.00  0.00    +0.232 C 
ATOM      4  S   UNL     1       7.051   0.554  27.802  0.00  0.00    +0.006 S 
BRANCH   3   5
ATOM      5  N   UNL     1       8.289  -1.490  26.712  0.00  0.00    -0.279 N 
ATOM      6  H   UNL     1       9.255  -1.649  26.972  0.00  0.00    +0.156 HD
BRANCH   5  11
ATOM      7  I   UNL     1       4.487  -6.437  25.957  0.00  0.00    -0.044 I 
ATOM      8  C   UNL     1       5.758  -4.814  26.216  0.00  0.00    +0.013 A 
ATOM      9  C   UNL     1       5.270  -3.519  26.072  0.00  0.00    +0.016 A 
ATOM     10  C   UNL     1       6.130  -2.430  26.250  0.00  0.00    +0.024 A 
ATOM     11  C   UNL     1       7.472  -2.630  26.598  0.00  0.00    +0.034 A 
ATOM     12  C   UNL     1       7.952  -3.935  26.725  0.00  0.00    +0.024 A 
ATOM     13  C   UNL     1       7.099  -5.027  26.530  0.00  0.00    +0.016 A 
ENDBRANCH   5  11
ENDBRANCH   3   5
ENDBRANCH   2   3
ENDBRANCH   1   2
BRANCH   1  14
ATOM     14  C   UNL     1       9.700  -0.125  23.482  0.00  0.00    +0.158 C 
BRANCH  14  15
ATOM     15  N   UNL     1       8.813  -1.243  23.223  0.00  0.00    -0.231 N 
ATOM     16  C   UNL     1       7.496  -1.115  22.874  0.00  0.00    +0.254 C 
ATOM     17  O   UNL     1       6.839  -0.106  22.713  0.00  0.00    -0.270 OA
ATOM     18  C   UNL     1       6.966  -2.473  22.748  0.00  0.00    +0.049 A 
ATOM     19  C   UNL     1       5.704  -2.919  22.408  0.00  0.00    +0.014 A 
ATOM     20  C   UNL     1       5.500  -4.303  22.386  0.00  0.00    +0.001 A 
ATOM     21  C   UNL     1       6.546  -5.195  22.701  0.00  0.00    +0.001 A 
ATOM     22  C   UNL     1       7.815  -4.718  23.046  0.00  0.00    +0.014 A 
ATOM     23  C   UNL     1       7.991  -3.350  23.060  0.00  0.00    +0.049 A 
ATOM     24  C   UNL     1       9.169  -2.552  23.388  0.00  0.00    +0.254 C 
ATOM     25  O   UNL     1      10.230  -3.018  23.754  0.00  0.00    -0.270 OA
ENDBRANCH  14  15
ENDBRANCH   1  14
TORSDOF 6
ENDMDL
MODEL 4
REMARK VINA RESULT:      -5.6      3.871      5.217
REMARK  Name = 
REMARK  6 active torsions:
REMARK  status: ('A' for Active; 'I' for Inactive)
REMARK    1  A    between atoms: C_5  and  N_6
REMARK    2  A    between atoms: N_6  and  C_7
REMARK    3  A    between atoms: C_7  and  O_9
REMARK    4  A    between atoms: O_9  and  C_10
REMARK    5  A    between atoms: C_10  and  C_11
REMARK    6  A    between atoms: C_11  and  N_12
REMARK                            x       y       z     vdW  Elec       q    Type
REMARK                         _______ _______ _______ _____ _____    ______ ____
ROOT
ATOM      1  C   UNL     1       9.700   0.226  25.111  0.00  0.00    +0.250 C 
ENDROOT
BRANCH   1   2
ATOM      2  O   UNL     1       8.380   0.516  25.641  0.00  0.00    -0.472 OA
BRANCH   2   3
ATOM      3  C   UNL     1       7.839  -0.090  26.729  0.00  0.00    +0.232 C 
ATOM      4  S   UNL     1       7.022   0.707  27.940  0.00  0.00    +0.006 S 
BRANCH   3   5
ATOM      5  N   UNL     1       8.083  -1.432  26.845  0.00  0.00    -0.279 N 
ATOM      6  H   UNL     1       8.988  -1.644  27.250  0.00  0.00    +0.156 HD
BRANCH   5  11
ATOM      7  I   UNL     1       4.467  -6.481  25.882  0.00  0.00    -0.044 I 
ATOM      8  C   UNL     1       5.648  -4.800  26.191  0.00  0.00    +0.013 A 
ATOM      9  C   UNL     1       6.980  -4.945  26.564  0.00  0.00    +0.016 A 
ATOM     10  C   UNL     1       7.772  -3.810  26.768  0.00  0.00    +0.024 A 
ATOM     11  C   UNL     1       7.243  -2.527  26.574  0.00  0.00    +0.034 A 
ATOM     12  C   UNL     1       5.901  -2.395  26.213  0.00  0.00    +0.024 A 
ATOM     13  C   UNL     1       5.102  -3.528  26.025  0.00  0.00    +0.016 A 
ENDBRANCH   5  11
ENDBRANCH   3   5
ENDBRANCH   2   3
ENDBRANCH   1   2
BRANCH   1  14
ATOM     14  C   UNL     1       9.647  -0.157  23.628  0.00  0.00    +0.158 C 
BRANCH  14  15
ATOM     15  N   UNL     1       8.764  -1.280  23.383  0.00  0.00    -0.231 N 
ATOM     16  C   UNL     1       9.139  -2.592  23.490  0.00  0.00    +0.254 C 
ATOM     17  O   UNL     1      10.217  -3.060  23.799  0.00  0.00    -0.270 OA
ATOM     18  C   UNL     1       7.969  -3.390  23.122  0.00  0.00    +0.049 A 
ATOM     19  C   UNL     1       7.793  -4.759  23.069  0.00  0.00    +0.014 A 
ATOM     20  C   UNL     1       6.540  -5.226  22.660  0.00  0.00    +0.001 A 
ATOM     21  C   UNL     1       5.508  -4.328  22.316  0.00  0.00    +0.001 A 
ATOM     22  C   UNL     1       5.712  -2.946  22.374  0.00  0.00    +0.014 A 
ATOM     23  C   UNL     1       6.956  -2.510  22.782  0.00  0.00    +0.049 A 
ATOM     24  C   UNL     1       7.482  -1.155  22.928  0.00  0.00    +0.254 C 
ATOM     25  O   UNL     1       6.857  -0.148  22.660  0.00  0.00    -0.270 OA
ENDBRANCH  14  15
ENDBRANCH   1  14
TORSDOF 6
ENDMDL
MODEL 5
REMARK VINA RESULT:      -5.5      4.521      6.639
REMARK  Name = 
REMARK  6 active torsions:
REMARK  status: ('A' for Active; 'I' for Inactive)
REMARK    1  A    between atoms: C_5  and  N_6
REMARK    2  A    between atoms: N_6  and  C_7
REMARK    3  A    between atoms: C_7  and  O_9
REMARK    4  A    between atoms: O_9  and  C_10
REMARK    5  A    between atoms: C_10  and  C_11
REMARK    6  A    between atoms: C_11  and  N_12
REMARK                            x       y       z     vdW  Elec       q    Type
REMARK                         _______ _______ _______ _____ _____    ______ ____
ROOT
ATOM      1  C   UNL     1       9.369   1.128  23.499  0.00  0.00    +0.250 C 
ENDROOT
BRANCH   1   2
ATOM      2  O   UNL     1       8.267   1.702  24.248  0.00  0.00    -0.472 OA
BRANCH   2   3
ATOM      3  C   UNL     1       6.956   1.533  23.937  0.00  0.00    +0.232 C 
ATOM      4  S   UNL     1       6.098   2.522  22.910  0.00  0.00    +0.006 S 
BRANCH   3   5
ATOM      5  N   UNL     1       6.311   0.526  24.605  0.00  0.00    -0.279 N 
ATOM      6  H   UNL     1       5.899   0.822  25.482  0.00  0.00    +0.156 HD
BRANCH   5  11
ATOM      7  I   UNL     1       4.937  -5.390  22.988  0.00  0.00    -0.044 I 
ATOM      8  C   UNL     1       5.406  -3.433  23.507  0.00  0.00    +0.013 A 
ATOM      9  C   UNL     1       4.981  -2.917  24.728  0.00  0.00    +0.016 A 
ATOM     10  C   UNL     1       5.302  -1.600  25.073  0.00  0.00    +0.024 A 
ATOM     11  C   UNL     1       6.070  -0.804  24.213  0.00  0.00    +0.034 A 
ATOM     12  C   UNL     1       6.477  -1.329  22.986  0.00  0.00    +0.024 A 
ATOM     13  C   UNL     1       6.143  -2.640  22.629  0.00  0.00    +0.016 A 
ENDBRANCH   5  11
ENDBRANCH   3   5
ENDBRANCH   2   3
ENDBRANCH   1   2
BRANCH   1  14
ATOM     14  C   UNL     1      10.321   0.336  24.401  0.00  0.00    +0.158 C 
BRANCH  14  15
ATOM     15  N   UNL     1       9.789  -0.967  24.749  0.00  0.00    -0.231 N 
ATOM     16  C   UNL     1       9.870  -2.071  23.944  0.00  0.00    +0.254 C 
ATOM     17  O   UNL     1      10.375  -2.185  22.845  0.00  0.00    -0.270 OA
ATOM     18  C   UNL     1       9.180  -3.152  24.650  0.00  0.00    +0.049 A 
ATOM     19  C   UNL     1       8.976  -4.471  24.297  0.00  0.00    +0.014 A 
ATOM     20  C   UNL     1       8.255  -5.267  25.193  0.00  0.00    +0.001 A 
ATOM     21  C   UNL     1       7.761  -4.734  26.402  0.00  0.00    +0.001 A 
ATOM     22  C   UNL     1       7.979  -3.393  26.735  0.00  0.00    +0.014 A 
ATOM     23  C   UNL     1       8.693  -2.629  25.835  0.00  0.00    +0.049 A 
ATOM     24  C   UNL     1       9.067  -1.218  25.882  0.00  0.00    +0.254 C 
ATOM     25  O   UNL     1       8.748  -0.456  26.773  0.00  0.00    -0.270 OA
ENDBRANCH  14  15
ENDBRANCH   1  14
TORSDOF 6
ENDMDL
MODEL 6
REMARK VINA RESULT:      -5.5      2.462      3.654
REMARK  Name = 
REMARK  6 active torsions:
REMARK  status: ('A' for Active; 'I' for Inactive)
REMARK    1  A    between atoms: C_5  and  N_6
REMARK    2  A    between atoms: N_6  and  C_7
REMARK    3  A    between atoms: C_7  and  O_9
REMARK    4  A    between atoms: O_9  and  C_10
REMARK    5  A    between atoms: C_10  and  C_11
REMARK    6  A    between atoms: C_11  and  N_12
REMARK                            x       y       z     vdW  Elec       q    Type
REMARK                         _______ _______ _______ _____ _____    ______ ____
ROOT
ATOM      1  C   UNL     1       4.797  -6.020  23.021  0.00  0.00    +0.250 C 
ENDROOT
BRANCH   1   2
ATOM      2  O   UNL     1       5.077  -6.827  24.195  0.00  0.00    -0.472 OA
BRANCH   2   3
ATOM      3  C   UNL     1       4.945  -6.394  25.475  0.00  0.00    +0.232 C 
ATOM      4  S   UNL     1       3.646  -6.740  26.456  0.00  0.00    +0.006 S 
BRANCH   3   5
ATOM      5  N   UNL     1       5.922  -5.543  25.919  0.00  0.00    -0.279 N 
ATOM      6  H   UNL     1       6.786  -6.012  26.163  0.00  0.00    +0.156 HD
BRANCH   5  11
ATOM      7  I   UNL     1       6.263   0.725  26.228  0.00  0.00    -0.044 I 
ATOM      8  C   UNL     1       6.130  -1.346  26.120  0.00  0.00    +0.013 A 
ATOM      9  C   UNL     1       7.095  -2.137  26.734  0.00  0.00    +0.016 A 
ATOM     10  C   UNL     1       6.999  -3.531  26.660  0.00  0.00    +0.024 A 
ATOM     11  C   UNL     1       5.925  -4.138  25.995  0.00  0.00    +0.034 A 
ATOM     12  C   UNL     1       4.972  -3.332  25.371  0.00  0.00    +0.024 A 
ATOM     13  C   UNL     1       5.075  -1.938  25.428  0.00  0.00    +0.016 A 
ENDBRANCH   5  11
ENDBRANCH   3   5
ENDBRANCH   2   3
ENDBRANCH   1   2
BRANCH   1  14
ATOM     14  C   UNL     1       6.033  -5.863  22.129  0.00  0.00    +0.158 C 
BRANCH  14  15
ATOM     15  N   UNL     1       6.808  -4.685  22.467  0.00  0.00    -0.231 N 
ATOM     16  C   UNL     1       7.935  -4.701  23.242  0.00  0.00    +0.254 C 
ATOM     17  O   UNL     1       8.490  -5.644  23.771  0.00  0.00    -0.270 OA
ATOM     18  C   UNL     1       8.375  -3.311  23.365  0.00  0.00    +0.049 A 
ATOM     19  C   UNL     1       9.458  -2.764  24.025  0.00  0.00    +0.014 A 
ATOM     20  C   UNL     1       9.605  -1.374  23.968  0.00  0.00    +0.001 A 
ATOM     21  C   UNL     1       8.679  -0.575  23.265  0.00  0.00    +0.001 A 
ATOM     22  C   UNL     1       7.588  -1.153  22.608  0.00  0.00    +0.014 A 
ATOM     23  C   UNL     1       7.466  -2.525  22.678  0.00  0.00    +0.049 A 
ATOM     24  C   UNL     1       6.447  -3.413  22.123  0.00  0.00    +0.254 C 
ATOM     25  O   UNL     1       5.474  -3.032  21.502  0.00  0.00    -0.270 OA
ENDBRANCH  14  15
ENDBRANCH   1  14
TORSDOF 6
ENDMDL
MODEL 7
REMARK VINA RESULT:      -5.4      7.166      9.098
REMARK  Name = 
REMARK  6 active torsions:
REMARK  status: ('A' for Active; 'I' for Inactive)
REMARK    1  A    between atoms: C_5  and  N_6
REMARK    2  A    between atoms: N_6  and  C_7
REMARK    3  A    between atoms: C_7  and  O_9
REMARK    4  A    between atoms: O_9  and  C_10
REMARK    5  A    between atoms: C_10  and  C_11
REMARK    6  A    between atoms: C_11  and  N_12
REMARK                            x       y       z     vdW  Elec       q    Type
REMARK                         _______ _______ _______ _____ _____    ______ ____
ROOT
ATOM      1  C   UNL     1       8.903   5.703  23.581  0.00  0.00    +0.250 C 
ENDROOT
BRANCH   1   2
ATOM      2  O   UNL     1      10.034   5.006  24.167  0.00  0.00    -0.472 OA
BRANCH   2   3
ATOM      3  C   UNL     1      11.019   4.404  23.453  0.00  0.00    +0.232 C 
ATOM      4  S   UNL     1      12.592   4.942  23.381  0.00  0.00    +0.006 S 
BRANCH   3   5
ATOM      5  N   UNL     1      10.630   3.340  22.683  0.00  0.00    -0.279 N 
ATOM      6  H   UNL     1      10.636   3.537  21.689  0.00  0.00    +0.156 HD
BRANCH   5  11
ATOM      7  I   UNL     1       9.375  -2.655  24.092  0.00  0.00    -0.044 I 
ATOM      8  C   UNL     1       9.790  -0.668  23.646  0.00  0.00    +0.013 A 
ATOM      9  C   UNL     1       9.657  -0.206  22.340  0.00  0.00    +0.016 A 
ATOM     10  C   UNL     1       9.935   1.133  22.047  0.00  0.00    +0.024 A 
ATOM     11  C   UNL     1      10.319   2.021  23.061  0.00  0.00    +0.034 A 
ATOM     12  C   UNL     1      10.462   1.541  24.364  0.00  0.00    +0.024 A 
ATOM     13  C   UNL     1      10.202   0.198  24.658  0.00  0.00    +0.016 A 
ENDBRANCH   5  11
ENDBRANCH   3   5
ENDBRANCH   2   3
ENDBRANCH   1   2
BRANCH   1  14
ATOM     14  C   UNL     1       7.618   5.484  24.386  0.00  0.00    +0.158 C 
BRANCH  14  15
ATOM     15  N   UNL     1       7.357   4.079  24.630  0.00  0.00    -0.231 N 
ATOM     16  C   UNL     1       6.923   3.199  23.676  0.00  0.00    +0.254 C 
ATOM     17  O   UNL     1       6.686   3.397  22.500  0.00  0.00    -0.270 OA
ATOM     18  C   UNL     1       6.750   1.911  24.346  0.00  0.00    +0.049 A 
ATOM     19  C   UNL     1       6.343   0.686  23.852  0.00  0.00    +0.014 A 
ATOM     20  C   UNL     1       6.263  -0.374  24.761  0.00  0.00    +0.001 A 
ATOM     21  C   UNL     1       6.584  -0.188  26.122  0.00  0.00    +0.001 A 
ATOM     22  C   UNL     1       6.990   1.063  26.598  0.00  0.00    +0.014 A 
ATOM     23  C   UNL     1       7.062   2.092  25.682  0.00  0.00    +0.049 A 
ATOM     24  C   UNL     1       7.429   3.494  25.863  0.00  0.00    +0.254 C 
ATOM     25  O   UNL     1       7.711   3.994  26.934  0.00  0.00    -0.270 OA
ENDBRANCH  14  15
ENDBRANCH   1  14
TORSDOF 6
ENDMDL
MODEL 8
REMARK VINA RESULT:      -5.4      3.797      5.710
REMARK  Name = 
REMARK  6 active torsions:
REMARK  status: ('A' for Active; 'I' for Inactive)
REMARK    1  A    between atoms: C_5  and  N_6
REMARK    2  A    between atoms: N_6  and  C_7
REMARK    3  A    between atoms: C_7  and  O_9
REMARK    4  A    between atoms: O_9  and  C_10
REMARK    5  A    between atoms: C_10  and  C_11
REMARK    6  A    between atoms: C_11  and  N_12
REMARK                            x       y       z     vdW  Elec       q    Type
REMARK                         _______ _______ _______ _____ _____    ______ ____
ROOT
ATOM      1  C   UNL     1       8.632  -0.420  25.133  0.00  0.00    +0.250 C 
ENDROOT
BRANCH   1   2
ATOM      2  O   UNL     1       9.585  -1.151  24.317  0.00  0.00    -0.472 OA
BRANCH   2   3
ATOM      3  C   UNL     1       9.296  -1.707  23.112  0.00  0.00    +0.232 C 
ATOM      4  S   UNL     1       9.300  -0.879  21.669  0.00  0.00    +0.006 S 
BRANCH   3   5
ATOM      5  N   UNL     1       8.892  -3.015  23.142  0.00  0.00    -0.279 N 
ATOM      6  H   UNL     1       9.657  -3.672  23.238  0.00  0.00    +0.156 HD
BRANCH   5  11
ATOM      7  I   UNL     1       3.201  -5.673  23.362  0.00  0.00    -0.044 I 
ATOM      8  C   UNL     1       5.074  -4.776  23.285  0.00  0.00    +0.013 A 
ATOM      9  C   UNL     1       6.218  -5.562  23.199  0.00  0.00    +0.016 A 
ATOM     10  C   UNL     1       7.476  -4.952  23.144  0.00  0.00    +0.024 A 
ATOM     11  C   UNL     1       7.593  -3.556  23.149  0.00  0.00    +0.034 A 
ATOM     12  C   UNL     1       6.438  -2.779  23.250  0.00  0.00    +0.024 A 
ATOM     13  C   UNL     1       5.179  -3.387  23.323  0.00  0.00    +0.016 A 
ENDBRANCH   5  11
ENDBRANCH   3   5
ENDBRANCH   2   3
ENDBRANCH   1   2
BRANCH   1  14
ATOM     14  C   UNL     1       8.578  -0.958  26.567  0.00  0.00    +0.158 C 
BRANCH  14  15
ATOM     15  N   UNL     1       7.664  -2.076  26.698  0.00  0.00    -0.231 N 
ATOM     16  C   UNL     1       8.031  -3.389  26.578  0.00  0.00    +0.254 C 
ATOM     17  O   UNL     1       9.128  -3.862  26.356  0.00  0.00    -0.270 OA
ATOM     18  C   UNL     1       6.810  -4.178  26.740  0.00  0.00    +0.049 A 
ATOM     19  C   UNL     1       6.612  -5.545  26.719  0.00  0.00    +0.014 A 
ATOM     20  C   UNL     1       5.302  -6.003  26.893  0.00  0.00    +0.001 A 
ATOM     21  C   UNL     1       4.236  -5.098  27.079  0.00  0.00    +0.001 A 
ATOM     22  C   UNL     1       4.462  -3.718  27.092  0.00  0.00    +0.014 A 
ATOM     23  C   UNL     1       5.762  -3.291  26.919  0.00  0.00    +0.049 A 
ATOM     24  C   UNL     1       6.315  -1.940  26.867  0.00  0.00    +0.254 C 
ATOM     25  O   UNL     1       5.649  -0.927  26.942  0.00  0.00    -0.270 OA
ENDBRANCH  14  15
ENDBRANCH   1  14
TORSDOF 6
ENDMDL
MODEL 9
REMARK VINA RESULT:      -5.4      3.328      4.580
REMARK  Name = 
REMARK  6 active torsions:
REMARK  status: ('A' for Active; 'I' for Inactive)
REMARK    1  A    between atoms: C_5  and  N_6
REMARK    2  A    between atoms: N_6  and  C_7
REMARK    3  A    between atoms: C_7  and  O_9
REMARK    4  A    between atoms: O_9  and  C_10
REMARK    5  A    between atoms: C_10  and  C_11
REMARK    6  A    between atoms: C_11  and  N_12
REMARK                            x       y       z     vdW  Elec       q    Type
REMARK                         _______ _______ _______ _____ _____    ______ ____
ROOT
ATOM      1  C   UNL     1       6.397  -5.159  24.331  0.00  0.00    +0.250 C 
ENDROOT
BRANCH   1   2
ATOM      2  O   UNL     1       6.984  -5.406  25.636  0.00  0.00    -0.472 OA
BRANCH   2   3
ATOM      3  C   UNL     1       6.760  -4.643  26.736  0.00  0.00    +0.232 C 
ATOM      4  S   UNL     1       5.606  -4.971  27.889  0.00  0.00    +0.006 S 
BRANCH   3   5
ATOM      5  N   UNL     1       7.490  -3.488  26.817  0.00  0.00    -0.279 N 
ATOM      6  H   UNL     1       8.450  -3.636  27.107  0.00  0.00    +0.156 HD
BRANCH   5  11
ATOM      7  I   UNL     1       6.203   2.459  25.241  0.00  0.00    -0.044 I 
ATOM      8  C   UNL     1       6.609   0.487  25.758  0.00  0.00    +0.013 A 
ATOM      9  C   UNL     1       7.761   0.180  26.475  0.00  0.00    +0.016 A 
ATOM     10  C   UNL     1       8.027  -1.149  26.822  0.00  0.00    +0.024 A 
ATOM     11  C   UNL     1       7.132  -2.170  26.478  0.00  0.00    +0.034 A 
ATOM     12  C   UNL     1       5.987  -1.850  25.746  0.00  0.00    +0.024 A 
ATOM     13  C   UNL     1       5.727  -0.524  25.381  0.00  0.00    +0.016 A 
ENDBRANCH   5  11
ENDBRANCH   3   5
ENDBRANCH   2   3
ENDBRANCH   1   2
BRANCH   1  14
ATOM     14  C   UNL     1       7.467  -5.002  23.245  0.00  0.00    +0.158 C 
BRANCH  14  15
ATOM     15  N   UNL     1       7.997  -3.654  23.188  0.00  0.00    -0.231 N 
ATOM     16  C   UNL     1       9.141  -3.249  23.819  0.00  0.00    +0.254 C 
ATOM     17  O   UNL     1       9.907  -3.893  24.509  0.00  0.00    -0.270 OA
ATOM     18  C   UNL     1       9.289  -1.821  23.537  0.00  0.00    +0.049 A 
ATOM     19  C   UNL     1      10.268  -0.924  23.918  0.00  0.00    +0.014 A 
ATOM     20  C   UNL     1      10.120   0.401  23.494  0.00  0.00    +0.001 A 
ATOM     21  C   UNL     1       9.014   0.793  22.712  0.00  0.00    +0.001 A 
ATOM     22  C   UNL     1       8.034  -0.134  22.342  0.00  0.00    +0.014 A 
ATOM     23  C   UNL     1       8.202  -1.434  22.772  0.00  0.00    +0.049 A 
ATOM     24  C   UNL     1       7.362  -2.612  22.571  0.00  0.00    +0.254 C 
ATOM     25  O   UNL     1       6.301  -2.601  21.980  0.00  0.00    -0.270 OA
ENDBRANCH  14  15
ENDBRANCH   1  14
TORSDOF 6
ENDMDL
