MODEL 1
REMARK VINA RESULT:      -6.6      0.000      0.000
REMARK  Name = 
REMARK  8 active torsions:
REMARK  status: ('A' for Active; 'I' for Inactive)
REMARK    1  A    between atoms: C_1  and  C_2
REMARK    2  A    between atoms: C_4  and  O_10
REMARK    3  A    between atoms: C_6  and  C_7
REMARK    4  A    between atoms: C_6  and  C_8
REMARK    5  A    between atoms: O_10  and  C_11
REMARK    6  A    between atoms: C_11  and  C_13
REMARK    7  A    between atoms: C_13  and  O_14
REMARK    8  A    between atoms: C_13  and  C_15
REMARK                            x       y       z     vdW  Elec       q    Type
REMARK                         _______ _______ _______ _____ _____    ______ ____
ROOT
ATOM      1  C   UNL     1       9.588  -2.442  23.475  0.00  0.00    +0.341 C 
ATOM      2  O   UNL     1      10.204  -3.244  24.174  0.00  0.00    -0.248 OA
ENDROOT
BRANCH   1   3
ATOM      3  O   UNL     1       8.236  -2.251  23.498  0.00  0.00    -0.459 OA
BRANCH   3  11
ATOM      4  C   UNL     1       5.544  -5.378  25.304  0.00  0.00    +0.007 C 
ATOM      5  C   UNL     1       5.163  -4.393  24.198  0.00  0.00    -0.010 C 
ATOM      6  C   UNL     1       5.066  -5.040  22.805  0.00  0.00    +0.010 C 
ATOM      7  C   UNL     1       6.402  -5.257  22.049  0.00  0.00    -0.031 C 
ATOM      8  C   UNL     1       6.076  -5.571  20.572  0.00  0.00    +0.011 C 
ATOM      9  C   UNL     1       7.179  -6.468  22.598  0.00  0.00    +0.011 C 
ATOM     10  C   UNL     1       7.262  -3.976  22.118  0.00  0.00    +0.051 C 
ATOM     11  C   UNL     1       7.450  -3.460  23.550  0.00  0.00    +0.177 C 
ATOM     12  C   UNL     1       6.084  -3.169  24.183  0.00  0.00    +0.048 C 
ENDBRANCH   3  11
ENDBRANCH   1   3
BRANCH   1  13
ATOM     13  C   UNL     1      10.274  -1.516  22.466  0.00  0.00    +0.253 C 
BRANCH  13  14
ATOM     14  C   UNL     1      10.143  -0.052  22.830  0.00  0.00    -0.008 A 
ATOM     15  C   UNL     1      10.404   0.400  24.135  0.00  0.00    +0.007 A 
ATOM     16  C   UNL     1      10.233   1.745  24.472  0.00  0.00    +0.000 A 
ATOM     17  C   UNL     1       9.801   2.653  23.511  0.00  0.00    +0.000 A 
ATOM     18  C   UNL     1       9.543   2.220  22.210  0.00  0.00    +0.000 A 
ATOM     19  C   UNL     1       9.710   0.877  21.873  0.00  0.00    +0.007 A 
ENDBRANCH  13  14
BRANCH  13  20
ATOM     20  O   UNL     1       9.723  -1.689  21.157  0.00  0.00    -0.376 OA
ATOM     21  H   UNL     1       8.946  -2.270  21.268  0.00  0.00    +0.211 HD
ENDBRANCH  13  20
ENDBRANCH   1  13
TORSDOF 5
ENDMDL
MODEL 2
REMARK VINA RESULT:      -6.5      2.026      5.893
REMARK  Name = 
REMARK  8 active torsions:
REMARK  status: ('A' for Active; 'I' for Inactive)
REMARK    1  A    between atoms: C_1  and  C_2
REMARK    2  A    between atoms: C_4  and  O_10
REMARK    3  A    between atoms: C_6  and  C_7
REMARK    4  A    between atoms: C_6  and  C_8
REMARK    5  A    between atoms: O_10  and  C_11
REMARK    6  A    between atoms: C_11  and  C_13
REMARK    7  A    between atoms: C_13  and  O_14
REMARK    8  A    between atoms: C_13  and  C_15
REMARK                            x       y       z     vdW  Elec       q    Type
REMARK                         _______ _______ _______ _____ _____    ______ ____
ROOT
ATOM      1  C   UNL     1       8.655  -4.215  26.240  0.00  0.00    +0.341 C 
ATOM      2  O   UNL     1       8.380  -4.845  27.259  0.00  0.00    -0.248 OA
ENDROOT
BRANCH   1   3
ATOM      3  O   UNL     1       8.759  -2.856  26.157  0.00  0.00    -0.459 OA
BRANCH   3  11
ATOM      4  C   UNL     1       6.282  -2.027  22.489  0.00  0.00    +0.007 C 
ATOM      5  C   UNL     1       6.658  -1.011  23.568  0.00  0.00    -0.010 C 
ATOM      6  C   UNL     1       7.743  -0.015  23.124  0.00  0.00    +0.010 C 
ATOM      7  C   UNL     1       9.209  -0.515  23.188  0.00  0.00    -0.031 C 
ATOM      8  C   UNL     1      10.143   0.708  23.053  0.00  0.00    +0.011 C 
ATOM      9  C   UNL     1       9.543  -1.458  22.017  0.00  0.00    +0.011 C 
ATOM     10  C   UNL     1       9.472  -1.208  24.543  0.00  0.00    +0.051 C 
ATOM     11  C   UNL     1       8.442  -2.298  24.865  0.00  0.00    +0.177 C 
ATOM     12  C   UNL     1       7.033  -1.695  24.888  0.00  0.00    +0.048 C 
ENDBRANCH   3  11
ENDBRANCH   1   3
BRANCH   1  13
ATOM     13  C   UNL     1       8.941  -4.888  24.895  0.00  0.00    +0.253 C 
BRANCH  13  14
ATOM     14  C   UNL     1       7.680  -5.256  24.143  0.00  0.00    -0.008 A 
ATOM     15  C   UNL     1       7.702  -5.488  22.756  0.00  0.00    +0.007 A 
ATOM     16  C   UNL     1       6.524  -5.779  22.064  0.00  0.00    +0.000 A 
ATOM     17  C   UNL     1       5.313  -5.844  22.746  0.00  0.00    +0.000 A 
ATOM     18  C   UNL     1       5.278  -5.622  24.122  0.00  0.00    +0.000 A 
ATOM     19  C   UNL     1       6.452  -5.328  24.816  0.00  0.00    +0.007 A 
ENDBRANCH  13  14
BRANCH  13  20
ATOM     20  O   UNL     1       9.704  -6.086  25.075  0.00  0.00    -0.376 OA
ATOM     21  H   UNL     1       9.106  -6.720  25.517  0.00  0.00    +0.211 HD
ENDBRANCH  13  20
ENDBRANCH   1  13
TORSDOF 5
ENDMDL
MODEL 3
REMARK VINA RESULT:      -6.4      2.068      6.003
REMARK  Name = 
REMARK  8 active torsions:
REMARK  status: ('A' for Active; 'I' for Inactive)
REMARK    1  A    between atoms: C_1  and  C_2
REMARK    2  A    between atoms: C_4  and  O_10
REMARK    3  A    between atoms: C_6  and  C_7
REMARK    4  A    between atoms: C_6  and  C_8
REMARK    5  A    between atoms: O_10  and  C_11
REMARK    6  A    between atoms: C_11  and  C_13
REMARK    7  A    between atoms: C_13  and  O_14
REMARK    8  A    between atoms: C_13  and  C_15
REMARK                            x       y       z     vdW  Elec       q    Type
REMARK                         _______ _______ _______ _____ _____    ______ ____
ROOT
ATOM      1  C   UNL     1       6.747  -3.210  22.252  0.00  0.00    +0.341 C 
ATOM      2  O   UNL     1       5.720  -2.588  21.989  0.00  0.00    -0.248 OA
ENDROOT
BRANCH   1   3
ATOM      3  O   UNL     1       8.019  -2.740  22.088  0.00  0.00    -0.459 OA
BRANCH   3  11
ATOM      4  C   UNL     1       9.012  -0.562  25.903  0.00  0.00    +0.007 C 
ATOM      5  C   UNL     1       9.977  -0.845  24.751  0.00  0.00    -0.010 C 
ATOM      6  C   UNL     1      10.298   0.396  23.899  0.00  0.00    +0.010 C 
ATOM      7  C   UNL     1       9.250   0.787  22.826  0.00  0.00    -0.031 C 
ATOM      8  C   UNL     1       9.901   1.805  21.864  0.00  0.00    +0.011 C 
ATOM      9  C   UNL     1       8.027   1.485  23.449  0.00  0.00    +0.011 C 
ATOM     10  C   UNL     1       8.819  -0.463  22.027  0.00  0.00    +0.051 C 
ATOM     11  C   UNL     1       8.367  -1.619  22.928  0.00  0.00    +0.177 C 
ATOM     12  C   UNL     1       9.500  -2.013  23.882  0.00  0.00    +0.048 C 
ENDBRANCH   3  11
ENDBRANCH   1   3
BRANCH   1  13
ATOM     13  C   UNL     1       6.737  -4.630  22.827  0.00  0.00    +0.253 C 
BRANCH  13  14
ATOM     14  C   UNL     1       7.361  -4.710  24.204  0.00  0.00    -0.008 A 
ATOM     15  C   UNL     1       6.747  -4.111  25.317  0.00  0.00    +0.007 A 
ATOM     16  C   UNL     1       7.355  -4.150  26.574  0.00  0.00    +0.000 A 
ATOM     17  C   UNL     1       8.583  -4.786  26.734  0.00  0.00    +0.000 A 
ATOM     18  C   UNL     1       9.201  -5.389  25.639  0.00  0.00    +0.000 A 
ATOM     19  C   UNL     1       8.597  -5.349  24.382  0.00  0.00    +0.007 A 
ENDBRANCH  13  14
BRANCH  13  20
ATOM     20  O   UNL     1       7.450  -5.531  21.974  0.00  0.00    -0.376 OA
ATOM     21  H   UNL     1       7.782  -6.242  22.555  0.00  0.00    +0.211 HD
ENDBRANCH  13  20
ENDBRANCH   1  13
TORSDOF 5
ENDMDL
MODEL 4
REMARK VINA RESULT:      -6.4      1.732      6.311
REMARK  Name = 
REMARK  8 active torsions:
REMARK  status: ('A' for Active; 'I' for Inactive)
REMARK    1  A    between atoms: C_1  and  C_2
REMARK    2  A    between atoms: C_4  and  O_10
REMARK    3  A    between atoms: C_6  and  C_7
REMARK    4  A    between atoms: C_6  and  C_8
REMARK    5  A    between atoms: O_10  and  C_11
REMARK    6  A    between atoms: C_11  and  C_13
REMARK    7  A    between atoms: C_13  and  O_14
REMARK    8  A    between atoms: C_13  and  C_15
REMARK                            x       y       z     vdW  Elec       q    Type
REMARK                         _______ _______ _______ _____ _____    ______ ____
ROOT
ATOM      1  C   UNL     1       8.803  -1.897  25.506  0.00  0.00    +0.341 C 
ATOM      2  O   UNL     1       8.194  -2.517  26.375  0.00  0.00    -0.248 OA
ENDROOT
BRANCH   1   3
ATOM      3  O   UNL     1       9.323  -0.643  25.650  0.00  0.00    -0.459 OA
BRANCH   3  11
ATOM      4  C   UNL     1       6.781   1.432  22.566  0.00  0.00    +0.007 C 
ATOM      5  C   UNL     1       7.366   2.071  23.826  0.00  0.00    -0.010 C 
ATOM      6  C   UNL     1       8.558   3.003  23.546  0.00  0.00    +0.010 C 
ATOM      7  C   UNL     1       9.935   2.322  23.340  0.00  0.00    -0.031 C 
ATOM      8  C   UNL     1      11.029   3.409  23.430  0.00  0.00    +0.011 C 
ATOM      9  C   UNL     1      10.056   1.687  21.943  0.00  0.00    +0.011 C 
ATOM     10  C   UNL     1      10.173   1.268  24.445  0.00  0.00    +0.051 C 
ATOM     11  C   UNL     1       9.015   0.272  24.578  0.00  0.00    +0.177 C 
ATOM     12  C   UNL     1       7.714   1.021  24.887  0.00  0.00    +0.048 C 
ENDBRANCH   3  11
ENDBRANCH   1   3
BRANCH   1  13
ATOM     13  C   UNL     1       9.080  -2.469  24.113  0.00  0.00    +0.253 C 
BRANCH  13  14
ATOM     14  C   UNL     1       7.861  -3.118  23.492  0.00  0.00    -0.008 A 
ATOM     15  C   UNL     1       7.736  -4.517  23.425  0.00  0.00    +0.007 A 
ATOM     16  C   UNL     1       6.631  -5.105  22.806  0.00  0.00    +0.000 A 
ATOM     17  C   UNL     1       5.638  -4.305  22.249  0.00  0.00    +0.000 A 
ATOM     18  C   UNL     1       5.746  -2.916  22.313  0.00  0.00    +0.000 A 
ATOM     19  C   UNL     1       6.851  -2.327  22.927  0.00  0.00    +0.007 A 
ENDBRANCH  13  14
BRANCH  13  20
ATOM     20  O   UNL     1      10.118  -3.454  24.162  0.00  0.00    -0.376 OA
ATOM     21  H   UNL     1       9.846  -4.095  24.846  0.00  0.00    +0.211 HD
ENDBRANCH  13  20
ENDBRANCH   1  13
TORSDOF 5
ENDMDL
MODEL 5
REMARK VINA RESULT:      -6.3      2.061      3.718
REMARK  Name = 
REMARK  8 active torsions:
REMARK  status: ('A' for Active; 'I' for Inactive)
REMARK    1  A    between atoms: C_1  and  C_2
REMARK    2  A    between atoms: C_4  and  O_10
REMARK    3  A    between atoms: C_6  and  C_7
REMARK    4  A    between atoms: C_6  and  C_8
REMARK    5  A    between atoms: O_10  and  C_11
REMARK    6  A    between atoms: C_11  and  C_13
REMARK    7  A    between atoms: C_13  and  O_14
REMARK    8  A    between atoms: C_13  and  C_15
REMARK                            x       y       z     vdW  Elec       q    Type
REMARK                         _______ _______ _______ _____ _____    ______ ____
ROOT
ATOM      1  C   UNL     1      10.000   0.599  22.562  0.00  0.00    +0.341 C 
ATOM      2  O   UNL     1       9.676   1.218  21.551  0.00  0.00    -0.248 OA
ENDROOT
BRANCH   1   3
ATOM      3  O   UNL     1      10.278  -0.737  22.613  0.00  0.00    -0.459 OA
BRANCH   3  11
ATOM      4  C   UNL     1       6.119  -2.323  23.297  0.00  0.00    +0.007 C 
ATOM      5  C   UNL     1       7.282  -3.091  22.669  0.00  0.00    -0.010 C 
ATOM      6  C   UNL     1       7.895  -4.150  23.602  0.00  0.00    +0.010 C 
ATOM      7  C   UNL     1       8.903  -3.638  24.662  0.00  0.00    -0.031 C 
ATOM      8  C   UNL     1       9.657  -4.856  25.240  0.00  0.00    +0.011 C 
ATOM      9  C   UNL     1       8.192  -2.954  25.844  0.00  0.00    +0.011 C 
ATOM     10  C   UNL     1       9.919  -2.678  24.004  0.00  0.00    +0.051 C 
ATOM     11  C   UNL     1       9.247  -1.552  23.208  0.00  0.00    +0.177 C 
ATOM     12  C   UNL     1       8.354  -2.147  22.113  0.00  0.00    +0.048 C 
ENDBRANCH   3  11
ENDBRANCH   1   3
BRANCH   1  13
ATOM     13  C   UNL     1      10.155   1.263  23.933  0.00  0.00    +0.253 C 
BRANCH  13  14
ATOM     14  C   UNL     1      10.208   2.774  23.851  0.00  0.00    -0.008 A 
ATOM     15  C   UNL     1      11.377   3.440  23.444  0.00  0.00    +0.007 A 
ATOM     16  C   UNL     1      11.431   4.835  23.418  0.00  0.00    +0.000 A 
ATOM     17  C   UNL     1      10.319   5.582  23.797  0.00  0.00    +0.000 A 
ATOM     18  C   UNL     1       9.151   4.935  24.198  0.00  0.00    +0.000 A 
ATOM     19  C   UNL     1       9.096   3.541  24.228  0.00  0.00    +0.007 A 
ENDBRANCH  13  14
BRANCH  13  20
ATOM     20  O   UNL     1      11.351   0.822  24.583  0.00  0.00    -0.376 OA
ATOM     21  H   UNL     1      11.530  -0.073  24.235  0.00  0.00    +0.211 HD
ENDBRANCH  13  20
ENDBRANCH   1  13
TORSDOF 5
ENDMDL
MODEL 6
REMARK VINA RESULT:      -6.3      1.879      3.184
REMARK  Name = 
REMARK  8 active torsions:
REMARK  status: ('A' for Active; 'I' for Inactive)
REMARK    1  A    between atoms: C_1  and  C_2
REMARK    2  A    between atoms: C_4  and  O_10
REMARK    3  A    between atoms: C_6  and  C_7
REMARK    4  A    between atoms: C_6  and  C_8
REMARK    5  A    between atoms: O_10  and  C_11
REMARK    6  A    between atoms: C_11  and  C_13
REMARK    7  A    between atoms: C_13  and  O_14
REMARK    8  A    between atoms: C_13  and  C_15
REMARK                            x       y       z     vdW  Elec       q    Type
REMARK                         _______ _______ _______ _____ _____    ______ ____
ROOT
ATOM      1  C   UNL     1      10.195  -1.919  23.348  0.00  0.00    +0.341 C 
ATOM      2  O   UNL     1      10.725  -1.833  22.242  0.00  0.00    -0.248 OA
ENDROOT
BRANCH   1   3
ATOM      3  O   UNL     1       9.941  -3.085  24.013  0.00  0.00    -0.459 OA
BRANCH   3  11
ATOM      4  C   UNL     1       5.455  -3.019  23.618  0.00  0.00    +0.007 C 
ATOM      5  C   UNL     1       6.334  -4.269  23.683  0.00  0.00    -0.010 C 
ATOM      6  C   UNL     1       6.256  -5.006  25.032  0.00  0.00    +0.010 C 
ATOM      7  C   UNL     1       7.117  -4.430  26.184  0.00  0.00    -0.031 C 
ATOM      8  C   UNL     1       7.182  -5.485  27.312  0.00  0.00    +0.011 C 
ATOM      9  C   UNL     1       6.484  -3.167  26.796  0.00  0.00    +0.011 C 
ATOM     10  C   UNL     1       8.548  -4.137  25.680  0.00  0.00    +0.051 C 
ATOM     11  C   UNL     1       8.568  -3.272  24.415  0.00  0.00    +0.177 C 
ATOM     12  C   UNL     1       7.785  -3.966  23.294  0.00  0.00    +0.048 C 
ENDBRANCH   3  11
ENDBRANCH   1   3
BRANCH   1  13
ATOM     13  C   UNL     1       9.749  -0.697  24.156  0.00  0.00    +0.253 C 
BRANCH  13  14
ATOM     14  C   UNL     1       8.910   0.268  23.346  0.00  0.00    -0.008 A 
ATOM     15  C   UNL     1       9.502   1.319  22.625  0.00  0.00    +0.007 A 
ATOM     16  C   UNL     1       8.715   2.233  21.920  0.00  0.00    +0.000 A 
ATOM     17  C   UNL     1       7.329   2.108  21.927  0.00  0.00    +0.000 A 
ATOM     18  C   UNL     1       6.728   1.067  22.634  0.00  0.00    +0.000 A 
ATOM     19  C   UNL     1       7.512   0.155  23.341  0.00  0.00    +0.007 A 
ENDBRANCH  13  14
BRANCH  13  20
ATOM     20  O   UNL     1      10.879   0.024  24.656  0.00  0.00    -0.376 OA
ATOM     21  H   UNL     1      10.536   0.601  25.365  0.00  0.00    +0.211 HD
ENDBRANCH  13  20
ENDBRANCH   1  13
TORSDOF 5
ENDMDL
MODEL 7
REMARK VINA RESULT:      -6.3      2.432      3.675
REMARK  Name = 
REMARK  8 active torsions:
REMARK  status: ('A' for Active; 'I' for Inactive)
REMARK    1  A    between atoms: C_1  and  C_2
REMARK    2  A    between atoms: C_4  and  O_10
REMARK    3  A    between atoms: C_6  and  C_7
REMARK    4  A    between atoms: C_6  and  C_8
REMARK    5  A    between atoms: O_10  and  C_11
REMARK    6  A    between atoms: C_11  and  C_13
REMARK    7  A    between atoms: C_13  and  O_14
REMARK    8  A    between atoms: C_13  and  C_15
REMARK                            x       y       z     vdW  Elec       q    Type
REMARK                         _______ _______ _______ _____ _____    ______ ____
ROOT
ATOM      1  C   UNL     1      10.569   0.837  23.610  0.00  0.00    +0.341 C 
ATOM      2  O   UNL     1      11.308   0.815  24.592  0.00  0.00    -0.248 OA
ENDROOT
BRANCH   1   3
ATOM      3  O   UNL     1      10.090  -0.263  22.958  0.00  0.00    -0.459 OA
BRANCH   3  11
ATOM      4  C   UNL     1       5.959  -1.203  24.484  0.00  0.00    +0.007 C 
ATOM      5  C   UNL     1       6.734  -2.003  23.436  0.00  0.00    -0.010 C 
ATOM      6  C   UNL     1       7.290  -3.336  23.967  0.00  0.00    +0.010 C 
ATOM      7  C   UNL     1       8.608  -3.261  24.778  0.00  0.00    -0.031 C 
ATOM      8  C   UNL     1       9.177  -4.692  24.909  0.00  0.00    +0.011 C 
ATOM      9  C   UNL     1       8.371  -2.747  26.210  0.00  0.00    +0.011 C 
ATOM     10  C   UNL     1       9.634  -2.372  24.040  0.00  0.00    +0.051 C 
ATOM     11  C   UNL     1       9.069  -0.996  23.666  0.00  0.00    +0.177 C 
ATOM     12  C   UNL     1       7.832  -1.162  22.776  0.00  0.00    +0.048 C 
ENDBRANCH   3  11
ENDBRANCH   1   3
BRANCH   1  13
ATOM     13  C   UNL     1      10.060   2.136  22.979  0.00  0.00    +0.253 C 
BRANCH  13  14
ATOM     14  C   UNL     1       8.587   2.376  23.234  0.00  0.00    -0.008 A 
ATOM     15  C   UNL     1       8.070   2.399  24.541  0.00  0.00    +0.007 A 
ATOM     16  C   UNL     1       6.702   2.573  24.763  0.00  0.00    +0.000 A 
ATOM     17  C   UNL     1       5.835   2.727  23.685  0.00  0.00    +0.000 A 
ATOM     18  C   UNL     1       6.336   2.713  22.383  0.00  0.00    +0.000 A 
ATOM     19  C   UNL     1       7.701   2.535  22.159  0.00  0.00    +0.007 A 
ENDBRANCH  13  14
BRANCH  13  20
ATOM     20  O   UNL     1      10.259   2.127  21.561  0.00  0.00    -0.376 OA
ATOM     21  H   UNL     1      11.162   1.784  21.420  0.00  0.00    +0.211 HD
ENDBRANCH  13  20
ENDBRANCH   1  13
TORSDOF 5
ENDMDL
MODEL 8
REMARK VINA RESULT:      -6.3      1.356      2.717
REMARK  Name = 
REMARK  8 active torsions:
REMARK  status: ('A' for Active; 'I' for Inactive)
REMARK    1  A    between atoms: C_1  and  C_2
REMARK    2  A    between atoms: C_4  and  O_10
REMARK    3  A    between atoms: C_6  and  C_7
REMARK    4  A    between atoms: C_6  and  C_8
REMARK    5  A    between atoms: O_10  and  C_11
REMARK    6  A    between atoms: C_11  and  C_13
REMARK    7  A    between atoms: C_13  and  O_14
REMARK    8  A    between atoms: C_13  and  C_15
REMARK                            x       y       z     vdW  Elec       q    Type
REMARK                         _______ _______ _______ _____ _____    ______ ____
ROOT
ATOM      1  C   UNL     1       9.308  -2.865  24.353  0.00  0.00    +0.341 C 
ATOM      2  O   UNL     1      10.365  -2.975  23.735  0.00  0.00    -0.248 OA
ENDROOT
BRANCH   1   3
ATOM      3  O   UNL     1       8.590  -3.901  24.879  0.00  0.00    -0.459 OA
BRANCH   3  11
ATOM      4  C   UNL     1       6.206  -5.033  21.229  0.00  0.00    +0.007 C 
ATOM      5  C   UNL     1       6.565  -5.959  22.392  0.00  0.00    -0.010 C 
ATOM      6  C   UNL     1       5.379  -6.264  23.325  0.00  0.00    +0.010 C 
ATOM      7  C   UNL     1       5.039  -5.186  24.385  0.00  0.00    -0.031 C 
ATOM      8  C   UNL     1       4.085  -5.815  25.425  0.00  0.00    +0.011 C 
ATOM      9  C   UNL     1       4.293  -3.989  23.766  0.00  0.00    +0.011 C 
ATOM     10  C   UNL     1       6.329  -4.719  25.096  0.00  0.00    +0.051 C 
ATOM     11  C   UNL     1       7.426  -4.285  24.117  0.00  0.00    +0.177 C 
ATOM     12  C   UNL     1       7.776  -5.445  23.177  0.00  0.00    +0.048 C 
ENDBRANCH   3  11
ENDBRANCH   1   3
BRANCH   1  13
ATOM     13  C   UNL     1       8.644  -1.514  24.635  0.00  0.00    +0.253 C 
BRANCH  13  14
ATOM     14  C   UNL     1       9.154  -0.410  23.733  0.00  0.00    -0.008 A 
ATOM     15  C   UNL     1       9.976   0.615  24.233  0.00  0.00    +0.007 A 
ATOM     16  C   UNL     1      10.402   1.656  23.404  0.00  0.00    +0.000 A 
ATOM     17  C   UNL     1      10.013   1.685  22.068  0.00  0.00    +0.000 A 
ATOM     18  C   UNL     1       9.202   0.672  21.557  0.00  0.00    +0.000 A 
ATOM     19  C   UNL     1       8.773  -0.367  22.385  0.00  0.00    +0.007 A 
ENDBRANCH  13  14
BRANCH  13  20
ATOM     20  O   UNL     1       8.868  -1.108  25.988  0.00  0.00    -0.376 OA
ATOM     21  H   UNL     1       8.000  -1.164  26.432  0.00  0.00    +0.211 HD
ENDBRANCH  13  20
ENDBRANCH   1  13
TORSDOF 5
ENDMDL
MODEL 9
REMARK VINA RESULT:      -6.2      1.628      6.542
REMARK  Name = 
REMARK  8 active torsions:
REMARK  status: ('A' for Active; 'I' for Inactive)
REMARK    1  A    between atoms: C_1  and  C_2
REMARK    2  A    between atoms: C_4  and  O_10
REMARK    3  A    between atoms: C_6  and  C_7
REMARK    4  A    between atoms: C_6  and  C_8
REMARK    5  A    between atoms: O_10  and  C_11
REMARK    6  A    between atoms: C_11  and  C_13
REMARK    7  A    between atoms: C_13  and  O_14
REMARK    8  A    between atoms: C_13  and  C_15
REMARK                            x       y       z     vdW  Elec       q    Type
REMARK                         _______ _______ _______ _____ _____    ______ ____
ROOT
ATOM      1  C   UNL     1       9.148  -2.624  23.491  0.00  0.00    +0.341 C 
ATOM      2  O   UNL     1      10.374  -2.689  23.560  0.00  0.00    -0.248 OA
ENDROOT
BRANCH   1   3
ATOM      3  O   UNL     1       8.448  -1.845  22.615  0.00  0.00    -0.459 OA
BRANCH   3  11
ATOM      4  C   UNL     1      10.576   2.120  22.797  0.00  0.00    +0.007 C 
ATOM      5  C   UNL     1       9.534   1.706  21.757  0.00  0.00    -0.010 C 
ATOM      6  C   UNL     1       8.163   2.374  21.961  0.00  0.00    +0.010 C 
ATOM      7  C   UNL     1       7.238   1.742  23.032  0.00  0.00    -0.031 C 
ATOM      8  C   UNL     1       5.815   2.311  22.839  0.00  0.00    +0.011 C 
ATOM      9  C   UNL     1       7.675   2.119  24.460  0.00  0.00    +0.011 C 
ATOM     10  C   UNL     1       7.199   0.207  22.858  0.00  0.00    +0.051 C 
ATOM     11  C   UNL     1       8.596  -0.423  22.811  0.00  0.00    +0.177 C 
ATOM     12  C   UNL     1       9.404   0.182  21.657  0.00  0.00    +0.048 C 
ENDBRANCH   3  11
ENDBRANCH   1   3
BRANCH   1  13
ATOM     13  C   UNL     1       8.218  -3.441  24.392  0.00  0.00    +0.253 C 
BRANCH  13  14
ATOM     14  C   UNL     1       7.227  -4.277  23.610  0.00  0.00    -0.008 A 
ATOM     15  C   UNL     1       7.644  -5.395  22.868  0.00  0.00    +0.007 A 
ATOM     16  C   UNL     1       6.730  -6.131  22.111  0.00  0.00    +0.000 A 
ATOM     17  C   UNL     1       5.389  -5.759  22.085  0.00  0.00    +0.000 A 
ATOM     18  C   UNL     1       4.959  -4.655  22.821  0.00  0.00    +0.000 A 
ATOM     19  C   UNL     1       5.872  -3.917  23.575  0.00  0.00    +0.007 A 
ENDBRANCH  13  14
BRANCH  13  20
ATOM     20  O   UNL     1       7.471  -2.586  25.264  0.00  0.00    -0.376 OA
ATOM     21  H   UNL     1       8.054  -1.828  25.458  0.00  0.00    +0.211 HD
ENDBRANCH  13  20
ENDBRANCH   1  13
TORSDOF 5
ENDMDL
