MODEL 1
REMARK VINA RESULT:      -6.2      0.000      0.000
REMARK  Name = 
REMARK  11 active torsions:
REMARK  status: ('A' for Active; 'I' for Inactive)
REMARK    1  A    between atoms: C_1  and  C_2
REMARK    2  A    between atoms: N_4  and  C_5
REMARK    3  A    between atoms: C_7  and  N_26
REMARK    4  A    between atoms: C_10  and  C_23
REMARK    5  A    between atoms: C_13  and  C_15
REMARK    6  A    between atoms: C_15  and  O_17
REMARK    7  A    between atoms: C_15  and  C_18
REMARK    8  A    between atoms: C_18  and  O_20
REMARK    9  A    between atoms: C_18  and  C_21
REMARK   10  A    between atoms: C_21  and  O_22
REMARK   11  A    between atoms: C_23  and  O_24
REMARK                            x       y       z     vdW  Elec       q    Type
REMARK                         _______ _______ _______ _____ _____    ______ ____
ROOT
ATOM      1  C   UNL     1       7.814  -1.915  25.308  0.00  0.00    +0.141 C 
ATOM      2  C   UNL     1       8.196  -1.675  23.827  0.00  0.00    +0.174 C 
ATOM      3  O   UNL     1       7.037  -1.562  22.978  0.00  0.00    -0.357 OA
ATOM      4  C   UNL     1       6.136  -2.688  23.063  0.00  0.00    +0.230 C 
ATOM      5  C   UNL     1       5.811  -3.218  24.474  0.00  0.00    +0.085 C 
ATOM      6  C   UNL     1       7.023  -3.246  25.403  0.00  0.00    +0.170 C 
ENDROOT
BRANCH   6   7
ATOM      7  N   UNL     1       7.839  -4.408  25.043  0.00  0.00    -0.271 N 
ATOM      8  H   UNL     1       8.145  -4.452  24.069  0.00  0.00    +0.258 HD
ATOM      9  C   UNL     1       8.456  -5.275  25.864  0.00  0.00    +0.376 C 
ATOM     10  N   UNL     1       8.153  -5.544  27.078  0.00  0.00    -0.130 NA
ATOM     11  H   UNL     1       7.297  -5.048  27.326  0.00  0.00    +0.306 HD
ATOM     12  N   UNL     1       9.522  -5.855  25.285  0.00  0.00    -0.289 N 
ATOM     13  H   UNL     1       9.841  -6.650  25.830  0.00  0.00    +0.255 HD
ATOM     14  H   UNL     1       9.419  -6.095  24.307  0.00  0.00    +0.255 HD
ENDBRANCH   6   7
BRANCH   1  17
ATOM     15  C   UNL     1       6.682   1.011  27.556  0.00  0.00    +0.109 C 
ATOM     16  C   UNL     1       7.608  -0.094  27.121  0.00  0.00    +0.210 C 
ATOM     17  N   UNL     1       7.159  -0.786  26.017  0.00  0.00    -0.307 N 
ATOM     18  H   UNL     1       6.166  -0.688  25.837  0.00  0.00    +0.149 HD
ATOM     19  O   UNL     1       8.654  -0.316  27.722  0.00  0.00    -0.276 OA
ENDBRANCH   1  17
BRANCH   4  20
ATOM     20  C   UNL     1       6.629  -3.808  22.139  0.00  0.00    +0.334 C 
ATOM     21  O   UNL     1       7.741  -4.322  22.186  0.00  0.00    -0.248 OA
BRANCH  20  22
ATOM     22  O   UNL     1       5.714  -4.149  21.201  0.00  0.00    -0.479 OA
ATOM     23  H   UNL     1       5.270  -3.368  20.820  0.00  0.00    +0.295 HD
ENDBRANCH  20  22
ENDBRANCH   4  20
BRANCH   2  24
ATOM     24  C   UNL     1       9.154  -0.465  23.644  0.00  0.00    +0.176 C 
BRANCH  24  25
ATOM     25  O   UNL     1       8.470   0.773  23.854  0.00  0.00    -0.387 OA
ATOM     26  H   UNL     1       9.134   1.405  24.195  0.00  0.00    +0.210 HD
ENDBRANCH  24  25
BRANCH  24  27
ATOM     27  C   UNL     1       9.832  -0.452  22.254  0.00  0.00    +0.171 C 
BRANCH  27  28
ATOM     28  O   UNL     1       9.687  -1.716  21.588  0.00  0.00    -0.387 OA
ATOM     29  H   UNL     1      10.180  -2.374  22.114  0.00  0.00    +0.210 HD
ENDBRANCH  27  28
BRANCH  27  30
ATOM     30  C   UNL     1       9.246   0.650  21.352  0.00  0.00    +0.189 C 
BRANCH  30  31
ATOM     31  O   UNL     1       9.929   1.896  21.510  0.00  0.00    -0.392 OA
ATOM     32  H   UNL     1      10.050   2.287  20.627  0.00  0.00    +0.210 HD
ENDBRANCH  30  31
ENDBRANCH  27  30
ENDBRANCH  24  27
ENDBRANCH   2  24
TORSDOF 10
ENDMDL
MODEL 2
REMARK VINA RESULT:      -6.1      2.503      5.431
REMARK  Name = 
REMARK  11 active torsions:
REMARK  status: ('A' for Active; 'I' for Inactive)
REMARK    1  A    between atoms: C_1  and  C_2
REMARK    2  A    between atoms: N_4  and  C_5
REMARK    3  A    between atoms: C_7  and  N_26
REMARK    4  A    between atoms: C_10  and  C_23
REMARK    5  A    between atoms: C_13  and  C_15
REMARK    6  A    between atoms: C_15  and  O_17
REMARK    7  A    between atoms: C_15  and  C_18
REMARK    8  A    between atoms: C_18  and  O_20
REMARK    9  A    between atoms: C_18  and  C_21
REMARK   10  A    between atoms: C_21  and  O_22
REMARK   11  A    between atoms: C_23  and  O_24
REMARK                            x       y       z     vdW  Elec       q    Type
REMARK                         _______ _______ _______ _____ _____    ______ ____
ROOT
ATOM      1  C   UNL     1       6.584  -1.921  23.987  0.00  0.00    +0.141 C 
ATOM      2  C   UNL     1       7.334  -2.403  22.721  0.00  0.00    +0.174 C 
ATOM      3  O   UNL     1       8.648  -2.910  23.029  0.00  0.00    -0.357 OA
ATOM      4  C   UNL     1       9.481  -1.980  23.754  0.00  0.00    +0.230 C 
ATOM      5  C   UNL     1       8.827  -1.225  24.928  0.00  0.00    +0.085 C 
ATOM      6  C   UNL     1       7.399  -0.772  24.636  0.00  0.00    +0.170 C 
ENDROOT
BRANCH   6   7
ATOM      7  N   UNL     1       7.470   0.415  23.779  0.00  0.00    -0.271 N 
ATOM      8  H   UNL     1       8.330   0.523  23.239  0.00  0.00    +0.258 HD
ATOM      9  C   UNL     1       6.468   1.231  23.407  0.00  0.00    +0.376 C 
ATOM     10  N   UNL     1       5.356   1.420  24.012  0.00  0.00    -0.130 NA
ATOM     11  H   UNL     1       5.363   0.905  24.892  0.00  0.00    +0.306 HD
ATOM     12  N   UNL     1       6.723   1.851  22.242  0.00  0.00    -0.289 N 
ATOM     13  H   UNL     1       6.067   2.611  22.087  0.00  0.00    +0.255 HD
ATOM     14  H   UNL     1       7.678   2.153  22.101  0.00  0.00    +0.255 HD
ENDBRANCH   6   7
BRANCH   1  17
ATOM     15  C   UNL     1       4.860  -4.405  26.387  0.00  0.00    +0.109 C 
ATOM     16  C   UNL     1       4.904  -3.247  25.425  0.00  0.00    +0.210 C 
ATOM     17  N   UNL     1       6.169  -2.970  24.954  0.00  0.00    -0.307 N 
ATOM     18  H   UNL     1       6.919  -3.345  25.525  0.00  0.00    +0.149 HD
ATOM     19  O   UNL     1       3.882  -2.642  25.117  0.00  0.00    -0.276 OA
ENDBRANCH   1  17
BRANCH   4  20
ATOM     20  C   UNL     1      10.150  -1.016  22.766  0.00  0.00    +0.334 C 
ATOM     21  O   UNL     1      10.416   0.159  22.998  0.00  0.00    -0.248 OA
BRANCH  20  22
ATOM     22  O   UNL     1      10.378  -1.584  21.559  0.00  0.00    -0.479 OA
ATOM     23  H   UNL     1      10.758  -0.949  20.921  0.00  0.00    +0.295 HD
ENDBRANCH  20  22
ENDBRANCH   4  20
BRANCH   2  24
ATOM     24  C   UNL     1       6.510  -3.425  21.889  0.00  0.00    +0.176 C 
BRANCH  24  25
ATOM     25  O   UNL     1       5.130  -3.404  22.263  0.00  0.00    -0.387 OA
ATOM     26  H   UNL     1       4.813  -2.492  22.110  0.00  0.00    +0.210 HD
ENDBRANCH  24  25
BRANCH  24  27
ATOM     27  C   UNL     1       7.059  -4.866  22.013  0.00  0.00    +0.171 C 
BRANCH  27  28
ATOM     28  O   UNL     1       7.072  -5.307  23.378  0.00  0.00    -0.387 OA
ATOM     29  H   UNL     1       6.141  -5.411  23.654  0.00  0.00    +0.210 HD
ENDBRANCH  27  28
BRANCH  27  30
ATOM     30  C   UNL     1       6.225  -5.859  21.182  0.00  0.00    +0.189 C 
BRANCH  30  31
ATOM     31  O   UNL     1       5.113  -6.376  21.916  0.00  0.00    -0.392 OA
ATOM     32  H   UNL     1       5.348  -7.267  22.229  0.00  0.00    +0.210 HD
ENDBRANCH  30  31
ENDBRANCH  27  30
ENDBRANCH  24  27
ENDBRANCH   2  24
TORSDOF 10
ENDMDL
MODEL 3
REMARK VINA RESULT:      -6.0      2.382      5.037
REMARK  Name = 
REMARK  11 active torsions:
REMARK  status: ('A' for Active; 'I' for Inactive)
REMARK    1  A    between atoms: C_1  and  C_2
REMARK    2  A    between atoms: N_4  and  C_5
REMARK    3  A    between atoms: C_7  and  N_26
REMARK    4  A    between atoms: C_10  and  C_23
REMARK    5  A    between atoms: C_13  and  C_15
REMARK    6  A    between atoms: C_15  and  O_17
REMARK    7  A    between atoms: C_15  and  C_18
REMARK    8  A    between atoms: C_18  and  O_20
REMARK    9  A    between atoms: C_18  and  C_21
REMARK   10  A    between atoms: C_21  and  O_22
REMARK   11  A    between atoms: C_23  and  O_24
REMARK                            x       y       z     vdW  Elec       q    Type
REMARK                         _______ _______ _______ _____ _____    ______ ____
ROOT
ATOM      1  C   UNL     1       7.640  -3.124  24.137  0.00  0.00    +0.141 C 
ATOM      2  C   UNL     1       6.205  -3.650  23.886  0.00  0.00    +0.174 C 
ATOM      3  O   UNL     1       5.207  -2.636  24.116  0.00  0.00    -0.357 OA
ATOM      4  C   UNL     1       5.273  -2.034  25.428  0.00  0.00    +0.230 C 
ATOM      5  C   UNL     1       6.671  -1.644  25.948  0.00  0.00    +0.085 C 
ATOM      6  C   UNL     1       7.748  -2.676  25.618  0.00  0.00    +0.170 C 
ENDROOT
BRANCH   6   7
ATOM      7  N   UNL     1       7.601  -3.795  26.552  0.00  0.00    -0.271 N 
ATOM      8  H   UNL     1       6.695  -3.868  27.019  0.00  0.00    +0.258 HD
ATOM      9  C   UNL     1       8.387  -4.878  26.680  0.00  0.00    +0.376 C 
ATOM     10  N   UNL     1       9.617  -4.989  26.344  0.00  0.00    -0.130 NA
ATOM     11  H   UNL     1       9.957  -4.082  26.023  0.00  0.00    +0.306 HD
ATOM     12  N   UNL     1       7.725  -5.930  27.190  0.00  0.00    -0.289 N 
ATOM     13  H   UNL     1       8.371  -6.659  27.477  0.00  0.00    +0.255 HD
ATOM     14  H   UNL     1       7.056  -5.722  27.921  0.00  0.00    +0.255 HD
ENDBRANCH   6   7
BRANCH   1  17
ATOM     15  C   UNL     1       9.601  -0.808  21.752  0.00  0.00    +0.109 C 
ATOM     16  C   UNL     1       9.454  -1.919  22.758  0.00  0.00    +0.210 C 
ATOM     17  N   UNL     1       8.156  -2.116  23.176  0.00  0.00    -0.307 N 
ATOM     18  H   UNL     1       7.540  -1.327  23.013  0.00  0.00    +0.149 HD
ATOM     19  O   UNL     1      10.428  -2.562  23.136  0.00  0.00    -0.276 OA
ENDBRANCH   1  17
BRANCH   4  20
ATOM     20  C   UNL     1       4.523  -2.916  26.433  0.00  0.00    +0.334 C 
ATOM     21  O   UNL     1       4.908  -3.176  27.569  0.00  0.00    -0.248 OA
BRANCH  20  22
ATOM     22  O   UNL     1       3.387  -3.443  25.918  0.00  0.00    -0.479 OA
ATOM     23  H   UNL     1       2.857  -3.904  26.595  0.00  0.00    +0.295 HD
ENDBRANCH  20  22
ENDBRANCH   4  20
BRANCH   2  24
ATOM     24  C   UNL     1       6.042  -4.299  22.484  0.00  0.00    +0.176 C 
BRANCH  24  25
ATOM     25  O   UNL     1       5.522  -3.363  21.537  0.00  0.00    -0.387 OA
ATOM     26  H   UNL     1       4.702  -3.756  21.176  0.00  0.00    +0.210 HD
ENDBRANCH  24  25
BRANCH  24  27
ATOM     27  C   UNL     1       5.142  -5.557  22.516  0.00  0.00    +0.171 C 
BRANCH  27  28
ATOM     28  O   UNL     1       5.589  -6.546  21.576  0.00  0.00    -0.387 OA
ATOM     29  H   UNL     1       6.248  -6.115  21.000  0.00  0.00    +0.210 HD
ENDBRANCH  27  28
BRANCH  27  30
ATOM     30  C   UNL     1       5.110  -6.190  23.920  0.00  0.00    +0.189 C 
BRANCH  30  31
ATOM     31  O   UNL     1       4.464  -7.465  23.922  0.00  0.00    -0.392 OA
ATOM     32  H   UNL     1       3.543  -7.335  24.211  0.00  0.00    +0.210 HD
ENDBRANCH  30  31
ENDBRANCH  27  30
ENDBRANCH  24  27
ENDBRANCH   2  24
TORSDOF 10
ENDMDL
MODEL 4
REMARK VINA RESULT:      -5.8      2.883      5.698
REMARK  Name = 
REMARK  11 active torsions:
REMARK  status: ('A' for Active; 'I' for Inactive)
REMARK    1  A    between atoms: C_1  and  C_2
REMARK    2  A    between atoms: N_4  and  C_5
REMARK    3  A    between atoms: C_7  and  N_26
REMARK    4  A    between atoms: C_10  and  C_23
REMARK    5  A    between atoms: C_13  and  C_15
REMARK    6  A    between atoms: C_15  and  O_17
REMARK    7  A    between atoms: C_15  and  C_18
REMARK    8  A    between atoms: C_18  and  O_20
REMARK    9  A    between atoms: C_18  and  C_21
REMARK   10  A    between atoms: C_21  and  O_22
REMARK   11  A    between atoms: C_23  and  O_24
REMARK                            x       y       z     vdW  Elec       q    Type
REMARK                         _______ _______ _______ _____ _____    ______ ____
ROOT
ATOM      1  C   UNL     1       7.553   1.036  25.158  0.00  0.00    +0.141 C 
ATOM      2  C   UNL     1       8.016  -0.167  24.300  0.00  0.00    +0.174 C 
ATOM      3  O   UNL     1       9.452  -0.240  24.197  0.00  0.00    -0.357 OA
ATOM      4  C   UNL     1      10.066   0.968  23.698  0.00  0.00    +0.230 C 
ATOM      5  C   UNL     1       9.563   2.302  24.284  0.00  0.00    +0.085 C 
ATOM      6  C   UNL     1       8.049   2.342  24.483  0.00  0.00    +0.170 C 
ENDROOT
BRANCH   6   7
ATOM      7  N   UNL     1       7.429   2.566  23.175  0.00  0.00    -0.271 N 
ATOM      8  H   UNL     1       6.874   1.790  22.808  0.00  0.00    +0.258 HD
ATOM      9  C   UNL     1       7.271   3.729  22.520  0.00  0.00    +0.376 C 
ATOM     10  N   UNL     1       7.958   4.799  22.660  0.00  0.00    -0.130 NA
ATOM     11  H   UNL     1       8.724   4.620  23.309  0.00  0.00    +0.306 HD
ATOM     12  N   UNL     1       6.231   3.695  21.668  0.00  0.00    -0.289 N 
ATOM     13  H   UNL     1       6.257   4.490  21.036  0.00  0.00    +0.255 HD
ATOM     14  H   UNL     1       6.098   2.827  21.164  0.00  0.00    +0.255 HD
ENDBRANCH   6   7
BRANCH   1  17
ATOM     15  C   UNL     1       7.640   0.933  29.015  0.00  0.00    +0.109 C 
ATOM     16  C   UNL     1       6.976   1.065  27.670  0.00  0.00    +0.210 C 
ATOM     17  N   UNL     1       7.853   0.970  26.611  0.00  0.00    -0.307 N 
ATOM     18  H   UNL     1       8.823   1.139  26.855  0.00  0.00    +0.149 HD
ATOM     19  O   UNL     1       5.764   1.235  27.577  0.00  0.00    -0.276 OA
ENDBRANCH   1  17
BRANCH   4  20
ATOM     20  C   UNL     1      10.017   0.971  22.165  0.00  0.00    +0.334 C 
ATOM     21  O   UNL     1       9.866  -0.024  21.463  0.00  0.00    -0.248 OA
BRANCH  20  22
ATOM     22  O   UNL     1      10.215   2.203  21.640  0.00  0.00    -0.479 OA
ATOM     23  H   UNL     1      10.970   2.221  21.021  0.00  0.00    +0.295 HD
ENDBRANCH  20  22
ENDBRANCH   4  20
BRANCH   2  24
ATOM     24  C   UNL     1       7.412  -1.515  24.783  0.00  0.00    +0.176 C 
BRANCH  24  25
ATOM     25  O   UNL     1       8.005  -1.936  26.014  0.00  0.00    -0.387 OA
ATOM     26  H   UNL     1       8.204  -2.888  25.917  0.00  0.00    +0.210 HD
ENDBRANCH  24  25
BRANCH  24  27
ATOM     27  C   UNL     1       7.555  -2.638  23.729  0.00  0.00    +0.171 C 
BRANCH  27  28
ATOM     28  O   UNL     1       7.938  -2.111  22.450  0.00  0.00    -0.387 OA
ATOM     29  H   UNL     1       8.089  -1.154  22.569  0.00  0.00    +0.210 HD
ENDBRANCH  27  28
BRANCH  27  30
ATOM     30  C   UNL     1       8.595  -3.688  24.162  0.00  0.00    +0.189 C 
BRANCH  30  31
ATOM     31  O   UNL     1       9.933  -3.197  24.055  0.00  0.00    -0.392 OA
ATOM     32  H   UNL     1      10.537  -3.905  24.340  0.00  0.00    +0.210 HD
ENDBRANCH  30  31
ENDBRANCH  27  30
ENDBRANCH  24  27
ENDBRANCH   2  24
TORSDOF 10
ENDMDL
MODEL 5
REMARK VINA RESULT:      -5.7      5.623      8.074
REMARK  Name = 
REMARK  11 active torsions:
REMARK  status: ('A' for Active; 'I' for Inactive)
REMARK    1  A    between atoms: C_1  and  C_2
REMARK    2  A    between atoms: N_4  and  C_5
REMARK    3  A    between atoms: C_7  and  N_26
REMARK    4  A    between atoms: C_10  and  C_23
REMARK    5  A    between atoms: C_13  and  C_15
REMARK    6  A    between atoms: C_15  and  O_17
REMARK    7  A    between atoms: C_15  and  C_18
REMARK    8  A    between atoms: C_18  and  O_20
REMARK    9  A    between atoms: C_18  and  C_21
REMARK   10  A    between atoms: C_21  and  O_22
REMARK   11  A    between atoms: C_23  and  O_24
REMARK                            x       y       z     vdW  Elec       q    Type
REMARK                         _______ _______ _______ _____ _____    ______ ____
ROOT
ATOM      1  C   UNL     1       9.526   4.828  23.981  0.00  0.00    +0.141 C 
ATOM      2  C   UNL     1       8.476   3.779  23.539  0.00  0.00    +0.174 C 
ATOM      3  O   UNL     1       7.876   4.110  22.271  0.00  0.00    -0.357 OA
ATOM      4  C   UNL     1       7.284   5.427  22.230  0.00  0.00    +0.230 C 
ATOM      5  C   UNL     1       8.103   6.582  22.839  0.00  0.00    +0.085 C 
ATOM      6  C   UNL     1       8.817   6.200  24.133  0.00  0.00    +0.170 C 
ENDROOT
BRANCH   6   7
ATOM      7  N   UNL     1       7.826   6.199  25.211  0.00  0.00    -0.271 N 
ATOM      8  H   UNL     1       6.865   5.994  24.932  0.00  0.00    +0.258 HD
ATOM      9  C   UNL     1       8.042   6.168  26.538  0.00  0.00    +0.376 C 
ATOM     10  N   UNL     1       9.094   6.544  27.162  0.00  0.00    -0.130 NA
ATOM     11  H   UNL     1       9.746   6.959  26.496  0.00  0.00    +0.306 HD
ATOM     12  N   UNL     1       7.007   5.636  27.210  0.00  0.00    -0.289 N 
ATOM     13  H   UNL     1       7.093   5.815  28.206  0.00  0.00    +0.255 HD
ATOM     14  H   UNL     1       6.085   5.878  26.870  0.00  0.00    +0.255 HD
ENDBRANCH   6   7
BRANCH   1  17
ATOM     15  C   UNL     1      13.024   5.371  22.442  0.00  0.00    +0.109 C 
ATOM     16  C   UNL     1      11.955   5.539  23.490  0.00  0.00    +0.210 C 
ATOM     17  N   UNL     1      10.776   4.894  23.181  0.00  0.00    -0.307 N 
ATOM     18  H   UNL     1      10.666   4.671  22.198  0.00  0.00    +0.149 HD
ATOM     19  O   UNL     1      12.163   6.193  24.506  0.00  0.00    -0.276 OA
ENDBRANCH   1  17
BRANCH   4  20
ATOM     20  C   UNL     1       5.868   5.368  22.816  0.00  0.00    +0.334 C 
ATOM     21  O   UNL     1       5.434   6.115  23.688  0.00  0.00    -0.248 OA
BRANCH  20  22
ATOM     22  O   UNL     1       5.135   4.351  22.306  0.00  0.00    -0.479 OA
ATOM     23  H   UNL     1       5.103   3.584  22.910  0.00  0.00    +0.295 HD
ENDBRANCH  20  22
ENDBRANCH   4  20
BRANCH   2  24
ATOM     24  C   UNL     1       9.041   2.331  23.539  0.00  0.00    +0.176 C 
BRANCH  24  25
ATOM     25  O   UNL     1      10.264   2.252  24.275  0.00  0.00    -0.387 OA
ATOM     26  H   UNL     1      10.179   1.489  24.879  0.00  0.00    +0.210 HD
ENDBRANCH  24  25
BRANCH  24  27
ATOM     27  C   UNL     1       9.259   1.781  22.110  0.00  0.00    +0.171 C 
BRANCH  27  28
ATOM     28  O   UNL     1      10.407   2.378  21.488  0.00  0.00    -0.387 OA
ATOM     29  H   UNL     1      10.532   3.254  21.901  0.00  0.00    +0.210 HD
ENDBRANCH  27  28
BRANCH  27  30
ATOM     30  C   UNL     1       9.441   0.252  22.116  0.00  0.00    +0.189 C 
BRANCH  30  31
ATOM     31  O   UNL     1      10.508  -0.160  22.974  0.00  0.00    -0.392 OA
ATOM     32  H   UNL     1      10.521  -1.133  22.990  0.00  0.00    +0.210 HD
ENDBRANCH  30  31
ENDBRANCH  27  30
ENDBRANCH  24  27
ENDBRANCH   2  24
TORSDOF 10
ENDMDL
MODEL 6
REMARK VINA RESULT:      -5.6      1.983      5.276
REMARK  Name = 
REMARK  11 active torsions:
REMARK  status: ('A' for Active; 'I' for Inactive)
REMARK    1  A    between atoms: C_1  and  C_2
REMARK    2  A    between atoms: N_4  and  C_5
REMARK    3  A    between atoms: C_7  and  N_26
REMARK    4  A    between atoms: C_10  and  C_23
REMARK    5  A    between atoms: C_13  and  C_15
REMARK    6  A    between atoms: C_15  and  O_17
REMARK    7  A    between atoms: C_15  and  C_18
REMARK    8  A    between atoms: C_18  and  O_20
REMARK    9  A    between atoms: C_18  and  C_21
REMARK   10  A    between atoms: C_21  and  O_22
REMARK   11  A    between atoms: C_23  and  O_24
REMARK                            x       y       z     vdW  Elec       q    Type
REMARK                         _______ _______ _______ _____ _____    ______ ____
ROOT
ATOM      1  C   UNL     1       8.303  -1.014  24.675  0.00  0.00    +0.141 C 
ATOM      2  C   UNL     1       7.772  -1.017  23.220  0.00  0.00    +0.174 C 
ATOM      3  O   UNL     1       8.833  -1.169  22.256  0.00  0.00    -0.357 OA
ATOM      4  C   UNL     1       9.883  -0.185  22.380  0.00  0.00    +0.230 C 
ATOM      5  C   UNL     1      10.391   0.120  23.803  0.00  0.00    +0.085 C 
ATOM      6  C   UNL     1       9.274   0.184  24.843  0.00  0.00    +0.170 C 
ENDROOT
BRANCH   6   7
ATOM      7  N   UNL     1       8.597   1.476  24.698  0.00  0.00    -0.271 N 
ATOM      8  H   UNL     1       8.638   1.897  23.768  0.00  0.00    +0.258 HD
ATOM      9  C   UNL     1       7.716   2.050  25.535  0.00  0.00    +0.376 C 
ATOM     10  N   UNL     1       7.583   1.834  26.790  0.00  0.00    -0.130 NA
ATOM     11  H   UNL     1       8.317   1.196  27.098  0.00  0.00    +0.306 HD
ATOM     12  N   UNL     1       6.895   2.905  24.902  0.00  0.00    -0.289 N 
ATOM     13  H   UNL     1       6.390   3.480  25.568  0.00  0.00    +0.255 HD
ATOM     14  H   UNL     1       7.316   3.468  24.174  0.00  0.00    +0.255 HD
ENDBRANCH   6   7
BRANCH   1  17
ATOM     15  C   UNL     1       9.169  -4.348  26.417  0.00  0.00    +0.109 C 
ATOM     16  C   UNL     1       8.350  -3.106  26.181  0.00  0.00    +0.210 C 
ATOM     17  N   UNL     1       8.853  -2.296  25.185  0.00  0.00    -0.307 N 
ATOM     18  H   UNL     1       9.830  -2.458  24.967  0.00  0.00    +0.149 HD
ATOM     19  O   UNL     1       7.337  -2.883  26.836  0.00  0.00    -0.276 OA
ENDBRANCH   1  17
BRANCH   4  20
ATOM     20  C   UNL     1       9.474   1.095  21.640  0.00  0.00    +0.334 C 
ATOM     21  O   UNL     1       8.518   1.194  20.878  0.00  0.00    -0.248 OA
BRANCH  20  22
ATOM     22  O   UNL     1      10.324   2.123  21.871  0.00  0.00    -0.479 OA
ATOM     23  H   UNL     1      10.077   2.923  21.367  0.00  0.00    +0.295 HD
ENDBRANCH  20  22
ENDBRANCH   4  20
BRANCH   2  24
ATOM     24  C   UNL     1       6.646  -2.065  22.996  0.00  0.00    +0.176 C 
BRANCH  24  25
ATOM     25  O   UNL     1       6.032  -2.437  24.232  0.00  0.00    -0.387 OA
ATOM     26  H   UNL     1       6.352  -1.804  24.905  0.00  0.00    +0.210 HD
ENDBRANCH  24  25
BRANCH  24  27
ATOM     27  C   UNL     1       7.154  -3.331  22.267  0.00  0.00    +0.171 C 
BRANCH  27  28
ATOM     28  O   UNL     1       8.390  -3.798  22.827  0.00  0.00    -0.387 OA
ATOM     29  H   UNL     1       9.100  -3.540  22.210  0.00  0.00    +0.210 HD
ENDBRANCH  27  28
BRANCH  27  30
ATOM     30  C   UNL     1       6.120  -4.471  22.333  0.00  0.00    +0.189 C 
BRANCH  30  31
ATOM     31  O   UNL     1       4.779  -3.988  22.233  0.00  0.00    -0.392 OA
ATOM     32  H   UNL     1       4.344  -4.460  21.501  0.00  0.00    +0.210 HD
ENDBRANCH  30  31
ENDBRANCH  27  30
ENDBRANCH  24  27
ENDBRANCH   2  24
TORSDOF 10
ENDMDL
MODEL 7
REMARK VINA RESULT:      -5.6      2.679      4.724
REMARK  Name = 
REMARK  11 active torsions:
REMARK  status: ('A' for Active; 'I' for Inactive)
REMARK    1  A    between atoms: C_1  and  C_2
REMARK    2  A    between atoms: N_4  and  C_5
REMARK    3  A    between atoms: C_7  and  N_26
REMARK    4  A    between atoms: C_10  and  C_23
REMARK    5  A    between atoms: C_13  and  C_15
REMARK    6  A    between atoms: C_15  and  O_17
REMARK    7  A    between atoms: C_15  and  C_18
REMARK    8  A    between atoms: C_18  and  O_20
REMARK    9  A    between atoms: C_18  and  C_21
REMARK   10  A    between atoms: C_21  and  O_22
REMARK   11  A    between atoms: C_23  and  O_24
REMARK                            x       y       z     vdW  Elec       q    Type
REMARK                         _______ _______ _______ _____ _____    ______ ____
ROOT
ATOM      1  C   UNL     1       7.587  -2.892  23.992  0.00  0.00    +0.141 C 
ATOM      2  C   UNL     1       6.651  -2.780  25.221  0.00  0.00    +0.174 C 
ATOM      3  O   UNL     1       7.350  -3.016  26.459  0.00  0.00    -0.357 OA
ATOM      4  C   UNL     1       8.051  -4.278  26.505  0.00  0.00    +0.230 C 
ATOM      5  C   UNL     1       8.869  -4.669  25.258  0.00  0.00    +0.085 C 
ATOM      6  C   UNL     1       8.168  -4.330  23.944  0.00  0.00    +0.170 C 
ENDROOT
BRANCH   6   7
ATOM      7  N   UNL     1       7.134  -5.342  23.711  0.00  0.00    -0.271 N 
ATOM      8  H   UNL     1       6.583  -5.612  24.528  0.00  0.00    +0.258 HD
ATOM      9  C   UNL     1       6.639  -5.765  22.535  0.00  0.00    +0.376 C 
ATOM     10  N   UNL     1       7.206  -5.713  21.389  0.00  0.00    -0.130 NA
ATOM     11  H   UNL     1       8.157  -5.362  21.504  0.00  0.00    +0.306 HD
ATOM     12  N   UNL     1       5.390  -6.249  22.654  0.00  0.00    -0.289 N 
ATOM     13  H   UNL     1       5.118  -6.754  21.816  0.00  0.00    +0.255 HD
ATOM     14  H   UNL     1       5.202  -6.791  23.488  0.00  0.00    +0.255 HD
ENDBRANCH   6   7
BRANCH   1  17
ATOM     15  C   UNL     1      10.208  -0.270  22.918  0.00  0.00    +0.109 C 
ATOM     16  C   UNL     1       9.213  -1.377  22.686  0.00  0.00    +0.210 C 
ATOM     17  N   UNL     1       8.617  -1.833  23.843  0.00  0.00    -0.307 N 
ATOM     18  H   UNL     1       9.126  -1.609  24.691  0.00  0.00    +0.149 HD
ATOM     19  O   UNL     1       8.986  -1.795  21.556  0.00  0.00    -0.276 OA
ENDBRANCH   1  17
BRANCH   4  20
ATOM     20  C   UNL     1       7.077  -5.389  26.913  0.00  0.00    +0.334 C 
ATOM     21  O   UNL     1       5.974  -5.579  26.410  0.00  0.00    -0.248 OA
BRANCH  20  22
ATOM     22  O   UNL     1       7.536  -6.131  27.948  0.00  0.00    -0.479 OA
ATOM     23  H   UNL     1       8.234  -6.755  27.671  0.00  0.00    +0.295 HD
ENDBRANCH  20  22
ENDBRANCH   4  20
BRANCH   2  24
ATOM     24  C   UNL     1       5.869  -1.437  25.257  0.00  0.00    +0.176 C 
BRANCH  24  25
ATOM     25  O   UNL     1       5.922  -0.773  23.992  0.00  0.00    -0.387 OA
ATOM     26  H   UNL     1       4.996  -0.616  23.720  0.00  0.00    +0.210 HD
ENDBRANCH  24  25
BRANCH  24  27
ATOM     27  C   UNL     1       6.380  -0.485  26.364  0.00  0.00    +0.171 C 
BRANCH  27  28
ATOM     28  O   UNL     1       7.764  -0.157  26.175  0.00  0.00    -0.387 OA
ATOM     29  H   UNL     1       7.810   0.803  26.009  0.00  0.00    +0.210 HD
ENDBRANCH  27  28
BRANCH  27  30
ATOM     30  C   UNL     1       5.564   0.821  26.403  0.00  0.00    +0.189 C 
BRANCH  30  31
ATOM     31  O   UNL     1       4.222   0.632  25.951  0.00  0.00    -0.392 OA
ATOM     32  H   UNL     1       4.233  -0.043  25.249  0.00  0.00    +0.210 HD
ENDBRANCH  30  31
ENDBRANCH  27  30
ENDBRANCH  24  27
ENDBRANCH   2  24
TORSDOF 10
ENDMDL
MODEL 8
REMARK VINA RESULT:      -5.5      3.390      6.010
REMARK  Name = 
REMARK  11 active torsions:
REMARK  status: ('A' for Active; 'I' for Inactive)
REMARK    1  A    between atoms: C_1  and  C_2
REMARK    2  A    between atoms: N_4  and  C_5
REMARK    3  A    between atoms: C_7  and  N_26
REMARK    4  A    between atoms: C_10  and  C_23
REMARK    5  A    between atoms: C_13  and  C_15
REMARK    6  A    between atoms: C_15  and  O_17
REMARK    7  A    between atoms: C_15  and  C_18
REMARK    8  A    between atoms: C_18  and  O_20
REMARK    9  A    between atoms: C_18  and  C_21
REMARK   10  A    between atoms: C_21  and  O_22
REMARK   11  A    between atoms: C_23  and  O_24
REMARK                            x       y       z     vdW  Elec       q    Type
REMARK                         _______ _______ _______ _____ _____    ______ ____
ROOT
ATOM      1  C   UNL     1       5.958  -3.281  25.422  0.00  0.00    +0.141 C 
ATOM      2  C   UNL     1       6.391  -4.706  24.999  0.00  0.00    +0.174 C 
ATOM      3  O   UNL     1       7.259  -5.322  25.972  0.00  0.00    -0.357 OA
ATOM      4  C   UNL     1       8.431  -4.539  26.290  0.00  0.00    +0.230 C 
ATOM      5  C   UNL     1       8.221  -3.031  26.525  0.00  0.00    +0.085 C 
ATOM      6  C   UNL     1       7.227  -2.399  25.554  0.00  0.00    +0.170 C 
ENDROOT
BRANCH   6   7
ATOM      7  N   UNL     1       7.910  -2.208  24.272  0.00  0.00    -0.271 N 
ATOM      8  H   UNL     1       8.758  -2.759  24.133  0.00  0.00    +0.258 HD
ATOM      9  C   UNL     1       7.438  -1.616  23.161  0.00  0.00    +0.376 C 
ATOM     10  N   UNL     1       6.502  -0.747  23.082  0.00  0.00    -0.130 NA
ATOM     11  H   UNL     1       6.201  -0.495  24.023  0.00  0.00    +0.306 HD
ATOM     12  N   UNL     1       8.041  -2.069  22.048  0.00  0.00    -0.289 N 
ATOM     13  H   UNL     1       7.832  -1.470  21.255  0.00  0.00    +0.255 HD
ATOM     14  H   UNL     1       9.034  -2.248  22.123  0.00  0.00    +0.255 HD
ENDBRANCH   6   7
BRANCH   1  17
ATOM     15  C   UNL     1       3.132  -2.759  28.000  0.00  0.00    +0.109 C 
ATOM     16  C   UNL     1       3.765  -2.677  26.635  0.00  0.00    +0.210 C 
ATOM     17  N   UNL     1       5.046  -3.183  26.591  0.00  0.00    -0.307 N 
ATOM     18  H   UNL     1       5.502  -3.247  27.494  0.00  0.00    +0.149 HD
ATOM     19  O   UNL     1       3.155  -2.200  25.684  0.00  0.00    -0.276 OA
ENDBRANCH   1  17
BRANCH   4  20
ATOM     20  C   UNL     1       9.520  -4.802  25.242  0.00  0.00    +0.334 C 
ATOM     21  O   UNL     1      10.045  -3.943  24.541  0.00  0.00    -0.248 OA
BRANCH  20  22
ATOM     22  O   UNL     1       9.818  -6.116  25.119  0.00  0.00    -0.479 OA
ATOM     23  H   UNL     1      10.002  -6.365  24.193  0.00  0.00    +0.295 HD
ENDBRANCH  20  22
ENDBRANCH   4  20
BRANCH   2  24
ATOM     24  C   UNL     1       5.184  -5.622  24.655  0.00  0.00    +0.176 C 
BRANCH  24  25
ATOM     25  O   UNL     1       4.008  -4.851  24.391  0.00  0.00    -0.387 OA
ATOM     26  H   UNL     1       3.898  -4.834  23.420  0.00  0.00    +0.210 HD
ENDBRANCH  24  25
BRANCH  24  27
ATOM     27  C   UNL     1       4.887  -6.653  25.770  0.00  0.00    +0.171 C 
BRANCH  27  28
ATOM     28  O   UNL     1       4.689  -6.011  27.038  0.00  0.00    -0.387 OA
ATOM     29  H   UNL     1       5.569  -5.747  27.366  0.00  0.00    +0.210 HD
ENDBRANCH  27  28
BRANCH  27  30
ATOM     30  C   UNL     1       3.639  -7.494  25.442  0.00  0.00    +0.189 C 
BRANCH  30  31
ATOM     31  O   UNL     1       3.547  -7.800  24.049  0.00  0.00    -0.392 OA
ATOM     32  H   UNL     1       4.393  -7.560  23.631  0.00  0.00    +0.210 HD
ENDBRANCH  30  31
ENDBRANCH  27  30
ENDBRANCH  24  27
ENDBRANCH   2  24
TORSDOF 10
ENDMDL
MODEL 9
REMARK VINA RESULT:      -5.3      3.724      6.774
REMARK  Name = 
REMARK  11 active torsions:
REMARK  status: ('A' for Active; 'I' for Inactive)
REMARK    1  A    between atoms: C_1  and  C_2
REMARK    2  A    between atoms: N_4  and  C_5
REMARK    3  A    between atoms: C_7  and  N_26
REMARK    4  A    between atoms: C_10  and  C_23
REMARK    5  A    between atoms: C_13  and  C_15
REMARK    6  A    between atoms: C_15  and  O_17
REMARK    7  A    between atoms: C_15  and  C_18
REMARK    8  A    between atoms: C_18  and  O_20
REMARK    9  A    between atoms: C_18  and  C_21
REMARK   10  A    between atoms: C_21  and  O_22
REMARK   11  A    between atoms: C_23  and  O_24
REMARK                            x       y       z     vdW  Elec       q    Type
REMARK                         _______ _______ _______ _____ _____    ______ ____
ROOT
ATOM      1  C   UNL     1       7.881   2.177  24.387  0.00  0.00    +0.141 C 
ATOM      2  C   UNL     1       8.892   2.869  23.439  0.00  0.00    +0.174 C 
ATOM      3  O   UNL     1       9.701   3.845  24.125  0.00  0.00    -0.357 OA
ATOM      4  C   UNL     1       8.937   4.850  24.827  0.00  0.00    +0.230 C 
ATOM      5  C   UNL     1       7.734   4.361  25.657  0.00  0.00    +0.085 C 
ATOM      6  C   UNL     1       6.933   3.258  24.969  0.00  0.00    +0.170 C 
ENDROOT
BRANCH   6   7
ATOM      7  N   UNL     1       6.099   3.882  23.939  0.00  0.00    -0.271 N 
ATOM      8  H   UNL     1       6.478   4.730  23.514  0.00  0.00    +0.258 HD
ATOM      9  C   UNL     1       5.042   3.356  23.296  0.00  0.00    +0.376 C 
ATOM     10  N   UNL     1       4.282   2.408  23.697  0.00  0.00    -0.130 NA
ATOM     11  H   UNL     1       4.550   2.145  24.645  0.00  0.00    +0.306 HD
ATOM     12  N   UNL     1       4.852   3.916  22.088  0.00  0.00    -0.289 N 
ATOM     13  H   UNL     1       3.941   3.666  21.715  0.00  0.00    +0.255 HD
ATOM     14  H   UNL     1       5.013   4.913  22.031  0.00  0.00    +0.255 HD
ENDBRANCH   6   7
BRANCH   1  17
ATOM     15  C   UNL     1       9.007  -0.676  26.730  0.00  0.00    +0.109 C 
ATOM     16  C   UNL     1       8.243  -0.081  25.576  0.00  0.00    +0.210 C 
ATOM     17  N   UNL     1       8.450   1.273  25.418  0.00  0.00    -0.307 N 
ATOM     18  H   UNL     1       8.813   1.739  26.243  0.00  0.00    +0.149 HD
ATOM     19  O   UNL     1       7.521  -0.777  24.870  0.00  0.00    -0.276 OA
ENDBRANCH   1  17
BRANCH   4  20
ATOM     20  C   UNL     1       8.535   5.961  23.849  0.00  0.00    +0.334 C 
ATOM     21  O   UNL     1       7.444   6.523  23.831  0.00  0.00    -0.248 OA
BRANCH  20  22
ATOM     22  O   UNL     1       9.504   6.234  22.944  0.00  0.00    -0.479 OA
ATOM     23  H   UNL     1      10.373   6.369  23.367  0.00  0.00    +0.295 HD
ENDBRANCH  20  22
ENDBRANCH   4  20
BRANCH   2  24
ATOM     24  C   UNL     1       9.769   1.854  22.655  0.00  0.00    +0.176 C 
BRANCH  24  25
ATOM     25  O   UNL     1      10.630   2.521  21.728  0.00  0.00    -0.387 OA
ATOM     26  H   UNL     1      10.050   2.973  21.084  0.00  0.00    +0.210 HD
ENDBRANCH  24  25
BRANCH  24  27
ATOM     27  C   UNL     1       8.924   0.796  21.907  0.00  0.00    +0.171 C 
BRANCH  27  28
ATOM     28  O   UNL     1       8.502   1.275  20.622  0.00  0.00    -0.387 OA
ATOM     29  H   UNL     1       8.630   2.242  20.621  0.00  0.00    +0.210 HD
ENDBRANCH  27  28
BRANCH  27  30
ATOM     30  C   UNL     1       9.708  -0.516  21.712  0.00  0.00    +0.189 C 
BRANCH  30  31
ATOM     31  O   UNL     1       9.308  -1.526  22.640  0.00  0.00    -0.392 OA
ATOM     32  H   UNL     1       8.802  -1.097  23.353  0.00  0.00    +0.210 HD
ENDBRANCH  30  31
ENDBRANCH  27  30
ENDBRANCH  24  27
ENDBRANCH   2  24
TORSDOF 10
ENDMDL
