MODEL 1
REMARK VINA RESULT:      -3.3      0.000      0.000
REMARK  Name = 
REMARK  5 active torsions:
REMARK  status: ('A' for Active; 'I' for Inactive)
REMARK    1  A    between atoms: N_1  and  C_2
REMARK    2  A    between atoms: C_2  and  C_3
REMARK    3  A    between atoms: C_3  and  C_4
REMARK    4  A    between atoms: C_4  and  C_5
REMARK    5  A    between atoms: C_5  and  O_6
REMARK                            x       y       z     vdW  Elec       q    Type
REMARK                         _______ _______ _______ _____ _____    ______ ____
ROOT
ATOM      1  C   UNL     1      10.595   0.669  23.697  0.00  0.00    +0.026 C 
ENDROOT
BRANCH   1   2
ATOM      2  C   UNL     1      10.021   1.936  23.069  0.00  0.00    +0.078 C 
BRANCH   2   3
ATOM      3  N   UNL     1       9.978   1.796  21.620  0.00  0.00    -0.330 NA
ATOM      4  H   UNL     1      10.886   1.484  21.275  0.00  0.00    +0.118 HD
ATOM      5  H   UNL     1       9.318   1.061  21.369  0.00  0.00    +0.118 HD
ENDBRANCH   2   3
ENDBRANCH   1   2
BRANCH   1   6
ATOM      6  C   UNL     1       9.565  -0.455  23.689  0.00  0.00    +0.121 C 
BRANCH   6   7
ATOM      7  C   UNL     1      10.072  -1.678  22.969  0.00  0.00    +0.305 C 
ATOM      8  O   UNL     1      10.298  -2.744  23.522  0.00  0.00    -0.251 OA
BRANCH   7   9
ATOM      9  O   UNL     1      10.293  -1.484  21.651  0.00  0.00    -0.481 OA
ATOM     10  H   UNL     1       9.585  -1.824  21.074  0.00  0.00    +0.295 HD
ENDBRANCH   7   9
ENDBRANCH   6   7
ENDBRANCH   1   6
TORSDOF 5
ENDMDL
MODEL 2
REMARK VINA RESULT:      -3.1      5.303      6.279
REMARK  Name = 
REMARK  5 active torsions:
REMARK  status: ('A' for Active; 'I' for Inactive)
REMARK    1  A    between atoms: N_1  and  C_2
REMARK    2  A    between atoms: C_2  and  C_3
REMARK    3  A    between atoms: C_3  and  C_4
REMARK    4  A    between atoms: C_4  and  C_5
REMARK    5  A    between atoms: C_5  and  O_6
REMARK                            x       y       z     vdW  Elec       q    Type
REMARK                         _______ _______ _______ _____ _____    ______ ____
ROOT
ATOM      1  C   UNL     1       7.126  -5.077  25.250  0.00  0.00    +0.026 C 
ENDROOT
BRANCH   1   2
ATOM      2  C   UNL     1       6.701  -5.462  26.664  0.00  0.00    +0.078 C 
BRANCH   2   3
ATOM      3  N   UNL     1       7.866  -5.856  27.443  0.00  0.00    -0.330 NA
ATOM      4  H   UNL     1       8.296  -6.683  27.030  0.00  0.00    +0.118 HD
ATOM      5  H   UNL     1       8.573  -5.122  27.392  0.00  0.00    +0.118 HD
ENDBRANCH   2   3
ENDBRANCH   1   2
BRANCH   1   6
ATOM      6  C   UNL     1       8.023  -3.843  25.270  0.00  0.00    +0.121 C 
BRANCH   6   7
ATOM      7  C   UNL     1       9.393  -4.135  24.715  0.00  0.00    +0.305 C 
ATOM      8  O   UNL     1      10.070  -3.313  24.117  0.00  0.00    -0.251 OA
BRANCH   7   9
ATOM      9  O   UNL     1       9.800  -5.409  24.908  0.00  0.00    -0.481 OA
ATOM     10  H   UNL     1      10.296  -5.786  24.158  0.00  0.00    +0.295 HD
ENDBRANCH   7   9
ENDBRANCH   6   7
ENDBRANCH   1   6
TORSDOF 5
ENDMDL
MODEL 3
REMARK VINA RESULT:      -3.1      2.778      3.411
REMARK  Name = 
REMARK  5 active torsions:
REMARK  status: ('A' for Active; 'I' for Inactive)
REMARK    1  A    between atoms: N_1  and  C_2
REMARK    2  A    between atoms: C_2  and  C_3
REMARK    3  A    between atoms: C_3  and  C_4
REMARK    4  A    between atoms: C_4  and  C_5
REMARK    5  A    between atoms: C_5  and  O_6
REMARK                            x       y       z     vdW  Elec       q    Type
REMARK                         _______ _______ _______ _____ _____    ______ ____
ROOT
ATOM      1  C   UNL     1      10.155  -0.506  23.706  0.00  0.00    +0.026 C 
ENDROOT
BRANCH   1   2
ATOM      2  C   UNL     1      10.249  -1.780  22.871  0.00  0.00    +0.078 C 
BRANCH   2   3
ATOM      3  N   UNL     1      10.034  -1.469  21.465  0.00  0.00    -0.330 NA
ATOM      4  H   UNL     1       9.910  -2.331  20.934  0.00  0.00    +0.118 HD
ATOM      5  H   UNL     1       9.160  -0.953  21.361  0.00  0.00    +0.118 HD
ENDBRANCH   2   3
ENDBRANCH   1   2
BRANCH   1   6
ATOM      6  C   UNL     1       9.367   0.570  22.966  0.00  0.00    +0.121 C 
BRANCH   6   7
ATOM      7  C   UNL     1      10.164   1.840  22.806  0.00  0.00    +0.305 C 
ATOM      8  O   UNL     1      10.700   2.424  23.735  0.00  0.00    -0.251 OA
BRANCH   7   9
ATOM      9  O   UNL     1      10.206   2.301  21.538  0.00  0.00    -0.481 OA
ATOM     10  H   UNL     1      10.825   3.042  21.403  0.00  0.00    +0.295 HD
ENDBRANCH   7   9
ENDBRANCH   6   7
ENDBRANCH   1   6
TORSDOF 5
ENDMDL
MODEL 4
REMARK VINA RESULT:      -3.0      3.285      3.766
REMARK  Name = 
REMARK  5 active torsions:
REMARK  status: ('A' for Active; 'I' for Inactive)
REMARK    1  A    between atoms: N_1  and  C_2
REMARK    2  A    between atoms: C_2  and  C_3
REMARK    3  A    between atoms: C_3  and  C_4
REMARK    4  A    between atoms: C_4  and  C_5
REMARK    5  A    between atoms: C_5  and  O_6
REMARK                            x       y       z     vdW  Elec       q    Type
REMARK                         _______ _______ _______ _____ _____    ______ ____
ROOT
ATOM      1  C   UNL     1      10.252  -0.682  22.792  0.00  0.00    +0.026 C 
ENDROOT
BRANCH   1   2
ATOM      2  C   UNL     1       9.343  -1.634  23.566  0.00  0.00    +0.078 C 
BRANCH   2   3
ATOM      3  N   UNL     1      10.044  -2.883  23.830  0.00  0.00    -0.330 NA
ATOM      4  H   UNL     1       9.732  -3.274  24.718  0.00  0.00    +0.118 HD
ATOM      5  H   UNL     1       9.790  -3.571  23.120  0.00  0.00    +0.118 HD
ENDBRANCH   2   3
ENDBRANCH   1   2
BRANCH   1   6
ATOM      6  C   UNL     1       9.576  -0.210  21.509  0.00  0.00    +0.121 C 
BRANCH   6   7
ATOM      7  C   UNL     1       9.096   1.214  21.617  0.00  0.00    +0.305 C 
ATOM      8  O   UNL     1       7.919   1.527  21.708  0.00  0.00    -0.251 OA
BRANCH   7   9
ATOM      9  O   UNL     1      10.088   2.129  21.567  0.00  0.00    -0.481 OA
ATOM     10  H   UNL     1      10.112   2.648  20.742  0.00  0.00    +0.295 HD
ENDBRANCH   7   9
ENDBRANCH   6   7
ENDBRANCH   1   6
TORSDOF 5
ENDMDL
MODEL 5
REMARK VINA RESULT:      -2.9      3.982      4.848
REMARK  Name = 
REMARK  5 active torsions:
REMARK  status: ('A' for Active; 'I' for Inactive)
REMARK    1  A    between atoms: N_1  and  C_2
REMARK    2  A    between atoms: C_2  and  C_3
REMARK    3  A    between atoms: C_3  and  C_4
REMARK    4  A    between atoms: C_4  and  C_5
REMARK    5  A    between atoms: C_5  and  O_6
REMARK                            x       y       z     vdW  Elec       q    Type
REMARK                         _______ _______ _______ _____ _____    ______ ____
ROOT
ATOM      1  C   UNL     1       7.886  -3.295  24.461  0.00  0.00    +0.026 C 
ENDROOT
BRANCH   1   2
ATOM      2  C   UNL     1       9.088  -2.364  24.592  0.00  0.00    +0.078 C 
BRANCH   2   3
ATOM      3  N   UNL     1      10.160  -2.809  23.713  0.00  0.00    -0.330 NA
ATOM      4  H   UNL     1       9.785  -3.015  22.787  0.00  0.00    +0.118 HD
ATOM      5  H   UNL     1      10.828  -2.050  23.579  0.00  0.00    +0.118 HD
ENDBRANCH   2   3
ENDBRANCH   1   2
BRANCH   1   6
ATOM      6  C   UNL     1       8.335  -4.721  24.157  0.00  0.00    +0.121 C 
BRANCH   6   7
ATOM      7  C   UNL     1       8.864  -5.418  25.384  0.00  0.00    +0.305 C 
ATOM      8  O   UNL     1       8.165  -5.739  26.333  0.00  0.00    -0.251 OA
BRANCH   7   9
ATOM      9  O   UNL     1      10.197  -5.630  25.359  0.00  0.00    -0.481 OA
ATOM     10  H   UNL     1      10.725  -4.885  25.703  0.00  0.00    +0.295 HD
ENDBRANCH   7   9
ENDBRANCH   6   7
ENDBRANCH   1   6
TORSDOF 5
ENDMDL
MODEL 6
REMARK VINA RESULT:      -2.9      1.962      2.636
REMARK  Name = 
REMARK  5 active torsions:
REMARK  status: ('A' for Active; 'I' for Inactive)
REMARK    1  A    between atoms: N_1  and  C_2
REMARK    2  A    between atoms: C_2  and  C_3
REMARK    3  A    between atoms: C_3  and  C_4
REMARK    4  A    between atoms: C_4  and  C_5
REMARK    5  A    between atoms: C_5  and  O_6
REMARK                            x       y       z     vdW  Elec       q    Type
REMARK                         _______ _______ _______ _____ _____    ______ ____
ROOT
ATOM      1  C   UNL     1      10.164   2.321  22.810  0.00  0.00    +0.026 C 
ENDROOT
BRANCH   1   2
ATOM      2  C   UNL     1       8.912   2.122  21.961  0.00  0.00    +0.078 C 
BRANCH   2   3
ATOM      3  N   UNL     1       9.057   0.931  21.135  0.00  0.00    -0.330 NA
ATOM      4  H   UNL     1       8.710   0.115  21.639  0.00  0.00    +0.118 HD
ATOM      5  H   UNL     1       8.466   1.018  20.308  0.00  0.00    +0.118 HD
ENDBRANCH   2   3
ENDBRANCH   1   2
BRANCH   1   6
ATOM      6  C   UNL     1       9.890   1.973  24.270  0.00  0.00    +0.121 C 
BRANCH   6   7
ATOM      7  C   UNL     1      10.197   0.528  24.571  0.00  0.00    +0.305 C 
ATOM      8  O   UNL     1      10.545  -0.280  23.724  0.00  0.00    -0.251 OA
BRANCH   7   9
ATOM      9  O   UNL     1      10.018   0.191  25.866  0.00  0.00    -0.481 OA
ATOM     10  H   UNL     1       9.157   0.463  26.234  0.00  0.00    +0.295 HD
ENDBRANCH   7   9
ENDBRANCH   6   7
ENDBRANCH   1   6
TORSDOF 5
ENDMDL
MODEL 7
REMARK VINA RESULT:      -2.8      3.646      4.519
REMARK  Name = 
REMARK  5 active torsions:
REMARK  status: ('A' for Active; 'I' for Inactive)
REMARK    1  A    between atoms: N_1  and  C_2
REMARK    2  A    between atoms: C_2  and  C_3
REMARK    3  A    between atoms: C_3  and  C_4
REMARK    4  A    between atoms: C_4  and  C_5
REMARK    5  A    between atoms: C_5  and  O_6
REMARK                            x       y       z     vdW  Elec       q    Type
REMARK                         _______ _______ _______ _____ _____    ______ ____
ROOT
ATOM      1  C   UNL     1       9.708  -2.864  24.095  0.00  0.00    +0.026 C 
ENDROOT
BRANCH   1   2
ATOM      2  C   UNL     1       9.164  -4.080  24.839  0.00  0.00    +0.078 C 
BRANCH   2   3
ATOM      3  N   UNL     1      10.206  -5.088  24.972  0.00  0.00    -0.330 NA
ATOM      4  H   UNL     1      10.317  -5.346  25.953  0.00  0.00    +0.118 HD
ATOM      5  H   UNL     1       9.917  -5.941  24.493  0.00  0.00    +0.118 HD
ENDBRANCH   2   3
ENDBRANCH   1   2
BRANCH   1   6
ATOM      6  C   UNL     1       9.228  -1.570  24.744  0.00  0.00    +0.121 C 
BRANCH   6   7
ATOM      7  C   UNL     1      10.129  -0.408  24.416  0.00  0.00    +0.305 C 
ATOM      8  O   UNL     1      10.625  -0.226  23.315  0.00  0.00    -0.251 OA
BRANCH   7   9
ATOM      9  O   UNL     1      10.372   0.407  25.465  0.00  0.00    -0.481 OA
ATOM     10  H   UNL     1       9.624   0.496  26.084  0.00  0.00    +0.295 HD
ENDBRANCH   7   9
ENDBRANCH   6   7
ENDBRANCH   1   6
TORSDOF 5
ENDMDL
MODEL 8
REMARK VINA RESULT:      -2.8      5.571      6.182
REMARK  Name = 
REMARK  5 active torsions:
REMARK  status: ('A' for Active; 'I' for Inactive)
REMARK    1  A    between atoms: N_1  and  C_2
REMARK    2  A    between atoms: C_2  and  C_3
REMARK    3  A    between atoms: C_3  and  C_4
REMARK    4  A    between atoms: C_4  and  C_5
REMARK    5  A    between atoms: C_5  and  O_6
REMARK                            x       y       z     vdW  Elec       q    Type
REMARK                         _______ _______ _______ _____ _____    ______ ____
ROOT
ATOM      1  C   UNL     1       9.929   5.633  24.205  0.00  0.00    +0.026 C 
ENDROOT
BRANCH   1   2
ATOM      2  C   UNL     1       8.951   6.655  23.631  0.00  0.00    +0.078 C 
BRANCH   2   3
ATOM      3  N   UNL     1       8.315   6.116  22.436  0.00  0.00    -0.330 NA
ATOM      4  H   UNL     1       7.302   6.120  22.551  0.00  0.00    +0.118 HD
ATOM      5  H   UNL     1       8.507   6.729  21.644  0.00  0.00    +0.118 HD
ENDBRANCH   2   3
ENDBRANCH   1   2
BRANCH   1   6
ATOM      6  C   UNL     1      11.370   6.049  23.931  0.00  0.00    +0.121 C 
BRANCH   6   7
ATOM      7  C   UNL     1      12.209   4.891  23.454  0.00  0.00    +0.305 C 
ATOM      8  O   UNL     1      11.746   3.805  23.141  0.00  0.00    -0.251 OA
BRANCH   7   9
ATOM      9  O   UNL     1      13.534   5.148  23.436  0.00  0.00    -0.481 OA
ATOM     10  H   UNL     1      13.787   5.900  22.870  0.00  0.00    +0.295 HD
ENDBRANCH   7   9
ENDBRANCH   6   7
ENDBRANCH   1   6
TORSDOF 5
ENDMDL
MODEL 9
REMARK VINA RESULT:      -2.8      3.067      3.663
REMARK  Name = 
REMARK  5 active torsions:
REMARK  status: ('A' for Active; 'I' for Inactive)
REMARK    1  A    between atoms: N_1  and  C_2
REMARK    2  A    between atoms: C_2  and  C_3
REMARK    3  A    between atoms: C_3  and  C_4
REMARK    4  A    between atoms: C_4  and  C_5
REMARK    5  A    between atoms: C_5  and  O_6
REMARK                            x       y       z     vdW  Elec       q    Type
REMARK                         _______ _______ _______ _____ _____    ______ ____
ROOT
ATOM      1  C   UNL     1      10.062   1.566  22.056  0.00  0.00    +0.026 C 
ENDROOT
BRANCH   1   2
ATOM      2  C   UNL     1       9.092   0.524  21.505  0.00  0.00    +0.078 C 
BRANCH   2   3
ATOM      3  N   UNL     1       9.771  -0.755  21.351  0.00  0.00    -0.330 NA
ATOM      4  H   UNL     1      10.204  -1.026  22.234  0.00  0.00    +0.118 HD
ATOM      5  H   UNL     1       9.085  -1.482  21.145  0.00  0.00    +0.118 HD
ENDBRANCH   2   3
ENDBRANCH   1   2
BRANCH   1   6
ATOM      6  C   UNL     1      10.436   1.249  23.500  0.00  0.00    +0.121 C 
BRANCH   6   7
ATOM      7  C   UNL     1       9.514   1.925  24.481  0.00  0.00    +0.305 C 
ATOM      8  O   UNL     1       9.227   3.111  24.433  0.00  0.00    -0.251 OA
BRANCH   7   9
ATOM      9  O   UNL     1       9.054   1.106  25.451  0.00  0.00    -0.481 OA
ATOM     10  H   UNL     1       9.749   0.592  25.902  0.00  0.00    +0.295 HD
ENDBRANCH   7   9
ENDBRANCH   6   7
ENDBRANCH   1   6
TORSDOF 5
ENDMDL
