MODEL 1
REMARK VINA RESULT:      -6.6      0.000      0.000
REMARK  Name = 
REMARK  6 active torsions:
REMARK  status: ('A' for Active; 'I' for Inactive)
REMARK    1  A    between atoms: C_1  and  C_2
REMARK    2  A    between atoms: C_2  and  C_3
REMARK    3  A    between atoms: C_2  and  C_4
REMARK    4  A    between atoms: C_2  and  C_5
REMARK    5  A    between atoms: C_7  and  N_8
REMARK    6  A    between atoms: C_22  and  C_23
REMARK                            x       y       z     vdW  Elec       q    Type
REMARK                         _______ _______ _______ _____ _____    ______ ____
ROOT
ATOM      1  C   UNL     1       5.904   2.255  27.167  0.00  0.00    +0.139 A 
ATOM      2  N   UNL     1       6.603   3.384  26.952  0.00  0.00    -0.212 NA
ATOM      3  C   UNL     1       7.542   3.381  26.014  0.00  0.00    +0.167 A 
ATOM      4  C   UNL     1       7.832   2.238  25.284  0.00  0.00    +0.060 A 
ATOM      5  C   UNL     1       8.821   2.315  24.281  0.00  0.00    +0.031 A 
ATOM      6  C   UNL     1       9.554   3.478  24.082  0.00  0.00    +0.077 A 
ATOM      7  C   UNL     1       9.196   4.571  24.862  0.00  0.00    +0.131 A 
ATOM      8  N   UNL     1       9.829   5.820  24.772  0.00  0.00    -0.342 N 
ATOM      9  H   UNL     1       9.348   6.416  25.448  0.00  0.00    +0.144 HD
ATOM     10  H   UNL     1      10.808   5.728  25.032  0.00  0.00    +0.144 HD
ATOM     11  C   UNL     1       7.089   1.086  25.581  0.00  0.00    +0.134 A 
ATOM     12  N   UNL     1       8.209   4.522  25.785  0.00  0.00    -0.212 NA
ATOM     13  N   UNL     1       6.130   1.103  26.514  0.00  0.00    -0.216 NA
ENDROOT
BRANCH  11  14
ATOM     14  N   UNL     1       7.310  -0.077  24.848  0.00  0.00    -0.312 N 
ATOM     15  C   UNL     1       7.478  -1.336  25.614  0.00  0.00    +0.125 C 
ATOM     16  C   UNL     1       8.263  -2.338  24.732  0.00  0.00    +0.127 C 
ATOM     17  N   UNL     1       7.555  -2.510  23.463  0.00  0.00    -0.297 N 
ATOM     18  C   UNL     1       7.347  -3.752  22.932  0.00  0.00    +0.218 A 
ATOM     19  N   UNL     1       7.888  -4.821  23.540  0.00  0.00    -0.223 NA
ATOM     20  C   UNL     1       7.629  -6.036  23.023  0.00  0.00    +0.116 A 
ATOM     21  C   UNL     1       6.828  -6.237  21.929  0.00  0.00    +0.039 A 
ATOM     22  C   UNL     1       6.313  -5.096  21.375  0.00  0.00    +0.116 A 
ATOM     23  N   UNL     1       6.566  -3.863  21.844  0.00  0.00    -0.223 NA
ATOM     24  C   UNL     1       7.202  -1.295  22.721  0.00  0.00    +0.127 C 
ATOM     25  C   UNL     1       6.480  -0.285  23.647  0.00  0.00    +0.125 C 
ENDBRANCH  11  14
BRANCH   6  26
ATOM     26  C   UNL     1      10.660   3.409  23.092  0.00  0.00    +0.245 C 
ATOM     27  O   UNL     1      11.681   4.073  23.232  0.00  0.00    -0.270 OA
ATOM     28  N   UNL     1      10.522   2.596  22.005  0.00  0.00    -0.325 N 
ATOM     29  H   UNL     1      11.333   2.504  21.407  0.00  0.00    +0.145 HD
ATOM     30  H   UNL     1       9.831   1.854  22.002  0.00  0.00    +0.145 HD
ENDBRANCH   6  26
BRANCH   1  32
ATOM     31  C   UNL     1       3.481   1.922  27.662  0.00  0.00    +0.019 C 
ATOM     32  C   UNL     1       4.850   2.259  28.276  0.00  0.00    +0.022 C 
ATOM     33  C   UNL     1       5.181   1.218  29.364  0.00  0.00    +0.019 C 
ATOM     34  C   UNL     1       4.767   3.639  28.959  0.00  0.00    +0.019 C 
ENDBRANCH   1  32
TORSDOF 3
ENDMDL
MODEL 2
REMARK VINA RESULT:      -6.5      3.634      8.127
REMARK  Name = 
REMARK  6 active torsions:
REMARK  status: ('A' for Active; 'I' for Inactive)
REMARK    1  A    between atoms: C_1  and  C_2
REMARK    2  A    between atoms: C_2  and  C_3
REMARK    3  A    between atoms: C_2  and  C_4
REMARK    4  A    between atoms: C_2  and  C_5
REMARK    5  A    between atoms: C_7  and  N_8
REMARK    6  A    between atoms: C_22  and  C_23
REMARK                            x       y       z     vdW  Elec       q    Type
REMARK                         _______ _______ _______ _____ _____    ______ ____
ROOT
ATOM      1  C   UNL     1       9.116  -0.209  24.584  0.00  0.00    +0.139 A 
ATOM      2  N   UNL     1       9.584  -1.462  24.450  0.00  0.00    -0.212 NA
ATOM      3  C   UNL     1       8.938  -2.450  25.055  0.00  0.00    +0.167 A 
ATOM      4  C   UNL     1       7.821  -2.210  25.841  0.00  0.00    +0.060 A 
ATOM      5  C   UNL     1       7.165  -3.312  26.430  0.00  0.00    +0.031 A 
ATOM      6  C   UNL     1       7.669  -4.600  26.304  0.00  0.00    +0.077 A 
ATOM      7  C   UNL     1       8.794  -4.744  25.501  0.00  0.00    +0.131 A 
ATOM      8  N   UNL     1       9.415  -5.979  25.263  0.00  0.00    -0.342 N 
ATOM      9  H   UNL     1      10.194  -5.773  24.635  0.00  0.00    +0.144 HD
ATOM     10  H   UNL     1       9.770  -6.359  26.137  0.00  0.00    +0.144 HD
ATOM     11  C   UNL     1       7.405  -0.877  25.968  0.00  0.00    +0.134 A 
ATOM     12  N   UNL     1       9.394  -3.700  24.886  0.00  0.00    -0.212 NA
ATOM     13  N   UNL     1       8.050   0.111  25.336  0.00  0.00    -0.216 NA
ENDROOT
BRANCH  11  14
ATOM     14  N   UNL     1       6.264  -0.584  26.709  0.00  0.00    -0.312 N 
ATOM     15  C   UNL     1       6.367   0.512  27.702  0.00  0.00    +0.125 C 
ATOM     16  C   UNL     1       5.270   0.300  28.774  0.00  0.00    +0.127 C 
ATOM     17  N   UNL     1       3.967   0.224  28.113  0.00  0.00    -0.297 N 
ATOM     18  C   UNL     1       2.889   0.913  28.592  0.00  0.00    +0.218 A 
ATOM     19  N   UNL     1       3.009   1.593  29.745  0.00  0.00    -0.223 NA
ATOM     20  C   UNL     1       1.946   2.301  30.170  0.00  0.00    +0.116 A 
ATOM     21  C   UNL     1       0.765   2.380  29.479  0.00  0.00    +0.039 A 
ATOM     22  C   UNL     1       0.730   1.663  28.314  0.00  0.00    +0.116 A 
ATOM     23  N   UNL     1       1.759   0.925  27.865  0.00  0.00    -0.223 NA
ATOM     24  C   UNL     1       3.833  -0.726  27.002  0.00  0.00    +0.127 C 
ATOM     25  C   UNL     1       4.982  -0.534  25.983  0.00  0.00    +0.125 C 
ENDBRANCH  11  14
BRANCH   6  26
ATOM     26  C   UNL     1       6.976  -5.666  27.074  0.00  0.00    +0.245 C 
ATOM     27  O   UNL     1       7.342  -5.975  28.202  0.00  0.00    -0.270 OA
ATOM     28  N   UNL     1       5.921  -6.313  26.500  0.00  0.00    -0.325 N 
ATOM     29  H   UNL     1       5.417  -6.963  27.091  0.00  0.00    +0.145 HD
ATOM     30  H   UNL     1       5.440  -5.908  25.706  0.00  0.00    +0.145 HD
ENDBRANCH   6  26
BRANCH   1  32
ATOM     31  C   UNL     1      11.333   0.929  24.448  0.00  0.00    +0.019 C 
ATOM     32  C   UNL     1       9.891   0.927  23.913  0.00  0.00    +0.022 C 
ATOM     33  C   UNL     1       9.926   0.751  22.382  0.00  0.00    +0.019 C 
ATOM     34  C   UNL     1       9.245   2.295  24.213  0.00  0.00    +0.019 C 
ENDBRANCH   1  32
TORSDOF 3
ENDMDL
MODEL 3
REMARK VINA RESULT:      -6.5      3.088      7.056
REMARK  Name = 
REMARK  6 active torsions:
REMARK  status: ('A' for Active; 'I' for Inactive)
REMARK    1  A    between atoms: C_1  and  C_2
REMARK    2  A    between atoms: C_2  and  C_3
REMARK    3  A    between atoms: C_2  and  C_4
REMARK    4  A    between atoms: C_2  and  C_5
REMARK    5  A    between atoms: C_7  and  N_8
REMARK    6  A    between atoms: C_22  and  C_23
REMARK                            x       y       z     vdW  Elec       q    Type
REMARK                         _______ _______ _______ _____ _____    ______ ____
ROOT
ATOM      1  C   UNL     1       4.368  -1.394  27.674  0.00  0.00    +0.139 A 
ATOM      2  N   UNL     1       4.917  -2.620  27.739  0.00  0.00    -0.212 NA
ATOM      3  C   UNL     1       6.024  -2.858  27.048  0.00  0.00    +0.167 A 
ATOM      4  C   UNL     1       6.599  -1.883  26.244  0.00  0.00    +0.060 A 
ATOM      5  C   UNL     1       7.794  -2.196  25.563  0.00  0.00    +0.031 A 
ATOM      6  C   UNL     1       8.340  -3.471  25.617  0.00  0.00    +0.077 A 
ATOM      7  C   UNL     1       7.694  -4.382  26.443  0.00  0.00    +0.131 A 
ATOM      8  N   UNL     1       8.129  -5.705  26.617  0.00  0.00    -0.342 N 
ATOM      9  H   UNL     1       7.473  -6.119  27.282  0.00  0.00    +0.144 HD
ATOM     10  H   UNL     1       8.080  -6.202  25.731  0.00  0.00    +0.144 HD
ATOM     11  C   UNL     1       5.958  -0.637  26.195  0.00  0.00    +0.134 A 
ATOM     12  N   UNL     1       6.581  -4.073  27.147  0.00  0.00    -0.212 NA
ATOM     13  N   UNL     1       4.853  -0.400  26.912  0.00  0.00    -0.216 NA
ENDROOT
BRANCH  11  14
ATOM     14  N   UNL     1       6.517   0.390  25.440  0.00  0.00    -0.312 N 
ATOM     15  C   UNL     1       5.602   1.150  24.554  0.00  0.00    +0.125 C 
ATOM     16  C   UNL     1       6.445   1.794  23.426  0.00  0.00    +0.127 C 
ATOM     17  N   UNL     1       7.500   2.611  24.026  0.00  0.00    -0.297 N 
ATOM     18  C   UNL     1       7.764   3.872  23.570  0.00  0.00    +0.218 A 
ATOM     19  N   UNL     1       7.108   4.326  22.489  0.00  0.00    -0.223 NA
ATOM     20  C   UNL     1       7.355   5.586  22.088  0.00  0.00    +0.116 A 
ATOM     21  C   UNL     1       8.217   6.431  22.737  0.00  0.00    +0.039 A 
ATOM     22  C   UNL     1       8.838   5.891  23.831  0.00  0.00    +0.116 A 
ATOM     23  N   UNL     1       8.640   4.631  24.250  0.00  0.00    -0.223 NA
ATOM     24  C   UNL     1       8.346   1.974  25.041  0.00  0.00    +0.127 C 
ATOM     25  C   UNL     1       7.475   1.281  26.117  0.00  0.00    +0.125 C 
ENDBRANCH  11  14
BRANCH   6  26
ATOM     26  C   UNL     1       9.525  -3.727  24.755  0.00  0.00    +0.245 C 
ATOM     27  O   UNL     1      10.129  -4.792  24.806  0.00  0.00    -0.270 OA
ATOM     28  N   UNL     1       9.945  -2.747  23.905  0.00  0.00    -0.325 N 
ATOM     29  H   UNL     1      10.693  -2.994  23.269  0.00  0.00    +0.145 HD
ATOM     30  H   UNL     1       9.326  -1.985  23.652  0.00  0.00    +0.145 HD
ENDBRANCH   6  26
BRANCH   1  32
ATOM     31  C   UNL     1       2.798  -2.345  29.365  0.00  0.00    +0.019 C 
ATOM     32  C   UNL     1       3.070  -1.143  28.445  0.00  0.00    +0.022 C 
ATOM     33  C   UNL     1       3.169   0.133  29.305  0.00  0.00    +0.019 C 
ATOM     34  C   UNL     1       1.877  -0.968  27.483  0.00  0.00    +0.019 C 
ENDBRANCH   1  32
TORSDOF 3
ENDMDL
MODEL 4
REMARK VINA RESULT:      -6.4      1.687      2.169
REMARK  Name = 
REMARK  6 active torsions:
REMARK  status: ('A' for Active; 'I' for Inactive)
REMARK    1  A    between atoms: C_1  and  C_2
REMARK    2  A    between atoms: C_2  and  C_3
REMARK    3  A    between atoms: C_2  and  C_4
REMARK    4  A    between atoms: C_2  and  C_5
REMARK    5  A    between atoms: C_7  and  N_8
REMARK    6  A    between atoms: C_22  and  C_23
REMARK                            x       y       z     vdW  Elec       q    Type
REMARK                         _______ _______ _______ _____ _____    ______ ____
ROOT
ATOM      1  C   UNL     1       6.905   2.230  28.073  0.00  0.00    +0.139 A 
ATOM      2  N   UNL     1       7.372   3.224  27.297  0.00  0.00    -0.212 NA
ATOM      3  C   UNL     1       7.671   2.957  26.033  0.00  0.00    +0.167 A 
ATOM      4  C   UNL     1       7.542   1.677  25.513  0.00  0.00    +0.060 A 
ATOM      5  C   UNL     1       7.847   1.471  24.152  0.00  0.00    +0.031 A 
ATOM      6  C   UNL     1       8.351   2.499  23.365  0.00  0.00    +0.077 A 
ATOM      7  C   UNL     1       8.449   3.745  23.971  0.00  0.00    +0.131 A 
ATOM      8  N   UNL     1       8.924   4.887  23.308  0.00  0.00    -0.342 N 
ATOM      9  H   UNL     1       8.868   5.641  23.994  0.00  0.00    +0.144 HD
ATOM     10  H   UNL     1       9.893   4.745  23.032  0.00  0.00    +0.144 HD
ATOM     11  C   UNL     1       7.082   0.678  26.385  0.00  0.00    +0.134 A 
ATOM     12  N   UNL     1       8.102   3.964  25.259  0.00  0.00    -0.212 NA
ATOM     13  N   UNL     1       6.763   0.962  27.653  0.00  0.00    -0.216 NA
ENDROOT
BRANCH  11  14
ATOM     14  N   UNL     1       6.893  -0.614  25.904  0.00  0.00    -0.312 N 
ATOM     15  C   UNL     1       5.734  -0.837  25.006  0.00  0.00    +0.125 C 
ATOM     16  C   UNL     1       5.359  -2.339  25.062  0.00  0.00    +0.127 C 
ATOM     17  N   UNL     1       6.537  -3.136  24.715  0.00  0.00    -0.297 N 
ATOM     18  C   UNL     1       6.451  -4.179  23.837  0.00  0.00    +0.218 A 
ATOM     19  N   UNL     1       5.245  -4.535  23.362  0.00  0.00    -0.223 NA
ATOM     20  C   UNL     1       5.195  -5.536  22.464  0.00  0.00    +0.116 A 
ATOM     21  C   UNL     1       6.305  -6.189  21.996  0.00  0.00    +0.039 A 
ATOM     22  C   UNL     1       7.492  -5.760  22.527  0.00  0.00    +0.116 A 
ATOM     23  N   UNL     1       7.585  -4.782  23.443  0.00  0.00    -0.223 NA
ATOM     24  C   UNL     1       7.776  -2.857  25.450  0.00  0.00    +0.127 C 
ATOM     25  C   UNL     1       8.086  -1.340  25.434  0.00  0.00    +0.125 C 
ENDBRANCH  11  14
BRANCH   6  26
ATOM     26  C   UNL     1       8.764   2.139  21.983  0.00  0.00    +0.245 C 
ATOM     27  O   UNL     1       7.938   1.816  21.136  0.00  0.00    -0.270 OA
ATOM     28  N   UNL     1      10.090   2.162  21.664  0.00  0.00    -0.325 N 
ATOM     29  H   UNL     1      10.321   2.005  20.691  0.00  0.00    +0.145 HD
ATOM     30  H   UNL     1      10.749   2.669  22.243  0.00  0.00    +0.145 HD
ENDBRANCH   6  26
BRANCH   1  32
ATOM     31  C   UNL     1       6.464   4.064  29.707  0.00  0.00    +0.019 C 
ATOM     32  C   UNL     1       6.600   2.541  29.540  0.00  0.00    +0.022 C 
ATOM     33  C   UNL     1       5.288   1.869  29.992  0.00  0.00    +0.019 C 
ATOM     34  C   UNL     1       7.728   2.035  30.462  0.00  0.00    +0.019 C 
ENDBRANCH   1  32
TORSDOF 3
ENDMDL
MODEL 5
REMARK VINA RESULT:      -6.3      3.236      4.023
REMARK  Name = 
REMARK  6 active torsions:
REMARK  status: ('A' for Active; 'I' for Inactive)
REMARK    1  A    between atoms: C_1  and  C_2
REMARK    2  A    between atoms: C_2  and  C_3
REMARK    3  A    between atoms: C_2  and  C_4
REMARK    4  A    between atoms: C_2  and  C_5
REMARK    5  A    between atoms: C_7  and  N_8
REMARK    6  A    between atoms: C_22  and  C_23
REMARK                            x       y       z     vdW  Elec       q    Type
REMARK                         _______ _______ _______ _____ _____    ______ ____
ROOT
ATOM      1  C   UNL     1       7.071   3.083  26.504  0.00  0.00    +0.139 A 
ATOM      2  N   UNL     1       7.861   3.413  25.468  0.00  0.00    -0.212 NA
ATOM      3  C   UNL     1       8.301   2.448  24.671  0.00  0.00    +0.167 A 
ATOM      4  C   UNL     1       7.988   1.117  24.906  0.00  0.00    +0.060 A 
ATOM      5  C   UNL     1       8.463   0.146  23.999  0.00  0.00    +0.031 A 
ATOM      6  C   UNL     1       9.299   0.494  22.946  0.00  0.00    +0.077 A 
ATOM      7  C   UNL     1       9.561   1.850  22.791  0.00  0.00    +0.131 A 
ATOM      8  N   UNL     1      10.373   2.364  21.769  0.00  0.00    -0.342 N 
ATOM      9  H   UNL     1      10.367   3.377  21.903  0.00  0.00    +0.144 HD
ATOM     10  H   UNL     1      11.321   2.009  21.873  0.00  0.00    +0.144 HD
ATOM     11  C   UNL     1       7.187   0.837  26.023  0.00  0.00    +0.134 A 
ATOM     12  N   UNL     1       9.061   2.793  23.621  0.00  0.00    -0.212 NA
ATOM     13  N   UNL     1       6.731   1.820  26.809  0.00  0.00    -0.216 NA
ENDROOT
BRANCH  11  14
ATOM     14  N   UNL     1       6.807  -0.477  26.279  0.00  0.00    -0.312 N 
ATOM     15  C   UNL     1       7.823  -1.365  26.895  0.00  0.00    +0.125 C 
ATOM     16  C   UNL     1       7.448  -2.831  26.566  0.00  0.00    +0.127 C 
ATOM     17  N   UNL     1       6.082  -3.088  27.026  0.00  0.00    -0.297 N 
ATOM     18  C   UNL     1       5.772  -4.222  27.723  0.00  0.00    +0.218 A 
ATOM     19  N   UNL     1       6.719  -5.158  27.900  0.00  0.00    -0.223 NA
ATOM     20  C   UNL     1       6.400  -6.244  28.628  0.00  0.00    +0.116 A 
ATOM     21  C   UNL     1       5.175  -6.429  29.213  0.00  0.00    +0.039 A 
ATOM     22  C   UNL     1       4.272  -5.425  28.988  0.00  0.00    +0.116 A 
ATOM     23  N   UNL     1       4.541  -4.337  28.247  0.00  0.00    -0.223 NA
ATOM     24  C   UNL     1       5.041  -2.150  26.593  0.00  0.00    +0.127 C 
ATOM     25  C   UNL     1       5.475  -0.690  26.873  0.00  0.00    +0.125 C 
ENDBRANCH  11  14
BRANCH   6  26
ATOM     26  C   UNL     1       9.848  -0.623  22.133  0.00  0.00    +0.245 C 
ATOM     27  O   UNL     1      10.656  -1.415  22.606  0.00  0.00    -0.270 OA
ATOM     28  N   UNL     1       9.448  -0.753  20.836  0.00  0.00    -0.325 N 
ATOM     29  H   UNL     1       9.770  -1.580  20.347  0.00  0.00    +0.145 HD
ATOM     30  H   UNL     1       8.606  -0.295  20.509  0.00  0.00    +0.145 HD
ENDBRANCH   6  26
BRANCH   1  32
ATOM     31  C   UNL     1       7.424   5.467  27.151  0.00  0.00    +0.019 C 
ATOM     32  C   UNL     1       6.601   4.200  27.439  0.00  0.00    +0.022 C 
ATOM     33  C   UNL     1       5.107   4.515  27.226  0.00  0.00    +0.019 C 
ATOM     34  C   UNL     1       6.790   3.805  28.917  0.00  0.00    +0.019 C 
ENDBRANCH   1  32
TORSDOF 3
ENDMDL
MODEL 6
REMARK VINA RESULT:      -6.1      1.981      2.344
REMARK  Name = 
REMARK  6 active torsions:
REMARK  status: ('A' for Active; 'I' for Inactive)
REMARK    1  A    between atoms: C_1  and  C_2
REMARK    2  A    between atoms: C_2  and  C_3
REMARK    3  A    between atoms: C_2  and  C_4
REMARK    4  A    between atoms: C_2  and  C_5
REMARK    5  A    between atoms: C_7  and  N_8
REMARK    6  A    between atoms: C_22  and  C_23
REMARK                            x       y       z     vdW  Elec       q    Type
REMARK                         _______ _______ _______ _____ _____    ______ ____
ROOT
ATOM      1  C   UNL     1       5.875   4.099  27.142  0.00  0.00    +0.139 A 
ATOM      2  N   UNL     1       6.619   4.993  26.468  0.00  0.00    -0.212 NA
ATOM      3  C   UNL     1       7.543   4.546  25.627  0.00  0.00    +0.167 A 
ATOM      4  C   UNL     1       7.772   3.188  25.457  0.00  0.00    +0.060 A 
ATOM      5  C   UNL     1       8.748   2.784  24.523  0.00  0.00    +0.031 A 
ATOM      6  C   UNL     1       9.528   3.715  23.850  0.00  0.00    +0.077 A 
ATOM      7  C   UNL     1       9.230   5.051  24.085  0.00  0.00    +0.131 A 
ATOM      8  N   UNL     1       9.916   6.111  23.472  0.00  0.00    -0.342 N 
ATOM      9  H   UNL     1       9.472   6.960  23.825  0.00  0.00    +0.144 HD
ATOM     10  H   UNL     1      10.894   6.093  23.752  0.00  0.00    +0.144 HD
ATOM     11  C   UNL     1       6.983   2.310  26.215  0.00  0.00    +0.134 A 
ATOM     12  N   UNL     1       8.256   5.447  24.935  0.00  0.00    -0.212 NA
ATOM     13  N   UNL     1       6.040   2.769  27.045  0.00  0.00    -0.216 NA
ENDROOT
BRANCH  11  14
ATOM     14  N   UNL     1       7.141   0.936  26.051  0.00  0.00    -0.312 N 
ATOM     15  C   UNL     1       7.503   0.151  27.256  0.00  0.00    +0.125 C 
ATOM     16  C   UNL     1       8.182  -1.162  26.792  0.00  0.00    +0.127 C 
ATOM     17  N   UNL     1       7.283  -1.865  25.877  0.00  0.00    -0.297 N 
ATOM     18  C   UNL     1       7.057  -3.207  26.000  0.00  0.00    +0.218 A 
ATOM     19  N   UNL     1       7.749  -3.904  26.917  0.00  0.00    -0.223 NA
ATOM     20  C   UNL     1       7.474  -5.215  27.048  0.00  0.00    +0.116 A 
ATOM     21  C   UNL     1       6.514  -5.863  26.315  0.00  0.00    +0.039 A 
ATOM     22  C   UNL     1       5.853  -5.078  25.409  0.00  0.00    +0.116 A 
ATOM     23  N   UNL     1       6.113  -3.773  25.229  0.00  0.00    -0.223 NA
ATOM     24  C   UNL     1       6.746  -1.102  24.745  0.00  0.00    +0.127 C 
ATOM     25  C   UNL     1       6.135   0.235  25.233  0.00  0.00    +0.125 C 
ENDBRANCH  11  14
BRANCH   6  26
ATOM     26  C   UNL     1      10.615   3.177  22.990  0.00  0.00    +0.245 C 
ATOM     27  O   UNL     1      11.785   3.493  23.173  0.00  0.00    -0.270 OA
ATOM     28  N   UNL     1      10.292   2.326  21.974  0.00  0.00    -0.325 N 
ATOM     29  H   UNL     1      11.067   1.908  21.474  0.00  0.00    +0.145 HD
ATOM     30  H   UNL     1       9.398   1.849  21.968  0.00  0.00    +0.145 HD
ENDBRANCH   6  26
BRANCH   1  32
ATOM     31  C   UNL     1       4.166   5.873  27.541  0.00  0.00    +0.019 C 
ATOM     32  C   UNL     1       4.839   4.626  28.137  0.00  0.00    +0.022 C 
ATOM     33  C   UNL     1       3.758   3.566  28.432  0.00  0.00    +0.019 C 
ATOM     34  C   UNL     1       5.499   5.005  29.478  0.00  0.00    +0.019 C 
ENDBRANCH   1  32
TORSDOF 3
ENDMDL
MODEL 7
REMARK VINA RESULT:      -6.1      2.302      4.783
REMARK  Name = 
REMARK  6 active torsions:
REMARK  status: ('A' for Active; 'I' for Inactive)
REMARK    1  A    between atoms: C_1  and  C_2
REMARK    2  A    between atoms: C_2  and  C_3
REMARK    3  A    between atoms: C_2  and  C_4
REMARK    4  A    between atoms: C_2  and  C_5
REMARK    5  A    between atoms: C_7  and  N_8
REMARK    6  A    between atoms: C_22  and  C_23
REMARK                            x       y       z     vdW  Elec       q    Type
REMARK                         _______ _______ _______ _____ _____    ______ ____
ROOT
ATOM      1  C   UNL     1       9.079   4.570  24.874  0.00  0.00    +0.139 A 
ATOM      2  N   UNL     1       8.269   4.895  25.898  0.00  0.00    -0.212 NA
ATOM      3  C   UNL     1       7.525   3.943  26.446  0.00  0.00    +0.167 A 
ATOM      4  C   UNL     1       7.543   2.642  25.964  0.00  0.00    +0.060 A 
ATOM      5  C   UNL     1       6.750   1.674  26.614  0.00  0.00    +0.031 A 
ATOM      6  C   UNL     1       5.900   2.023  27.656  0.00  0.00    +0.077 A 
ATOM      7  C   UNL     1       5.945   3.350  28.068  0.00  0.00    +0.131 A 
ATOM      8  N   UNL     1       5.160   3.856  29.114  0.00  0.00    -0.342 N 
ATOM      9  H   UNL     1       5.419   4.841  29.194  0.00  0.00    +0.144 HD
ATOM     10  H   UNL     1       4.175   3.778  28.873  0.00  0.00    +0.144 HD
ATOM     11  C   UNL     1       8.384   2.378  24.872  0.00  0.00    +0.134 A 
ATOM     12  N   UNL     1       6.747   4.271  27.488  0.00  0.00    -0.212 NA
ATOM     13  N   UNL     1       9.147   3.340  24.340  0.00  0.00    -0.216 NA
ENDROOT
BRANCH  11  14
ATOM     14  N   UNL     1       8.474   1.081  24.377  0.00  0.00    -0.312 N 
ATOM     15  C   UNL     1       8.688  -0.005  25.365  0.00  0.00    +0.125 C 
ATOM     16  C   UNL     1       9.326  -1.210  24.630  0.00  0.00    +0.127 C 
ATOM     17  N   UNL     1       8.466  -1.593  23.509  0.00  0.00    -0.297 N 
ATOM     18  C   UNL     1       8.152  -2.901  23.274  0.00  0.00    +0.218 A 
ATOM     19  N   UNL     1       8.723  -3.856  24.028  0.00  0.00    -0.223 NA
ATOM     20  C   UNL     1       8.361  -5.132  23.805  0.00  0.00    +0.116 A 
ATOM     21  C   UNL     1       7.430  -5.503  22.871  0.00  0.00    +0.039 A 
ATOM     22  C   UNL     1       6.893  -4.468  22.151  0.00  0.00    +0.116 A 
ATOM     23  N   UNL     1       7.244  -3.183  22.324  0.00  0.00    -0.223 NA
ATOM     24  C   UNL     1       8.070  -0.533  22.574  0.00  0.00    +0.127 C 
ATOM     25  C   UNL     1       7.501   0.684  23.344  0.00  0.00    +0.125 C 
ENDBRANCH  11  14
BRANCH   6  26
ATOM     26  C   UNL     1       5.012   0.952  28.179  0.00  0.00    +0.245 C 
ATOM     27  O   UNL     1       4.877   0.772  29.385  0.00  0.00    -0.270 OA
ATOM     28  N   UNL     1       4.348   0.155  27.295  0.00  0.00    -0.325 N 
ATOM     29  H   UNL     1       3.682  -0.498  27.689  0.00  0.00    +0.145 HD
ATOM     30  H   UNL     1       4.230   0.444  26.330  0.00  0.00    +0.145 HD
ENDBRANCH   6  26
BRANCH   1  32
ATOM     31  C   UNL     1       9.057   6.358  23.133  0.00  0.00    +0.019 C 
ATOM     32  C   UNL     1       9.904   5.684  24.226  0.00  0.00    +0.022 C 
ATOM     33  C   UNL     1      10.320   6.747  25.263  0.00  0.00    +0.019 C 
ATOM     34  C   UNL     1      11.191   5.123  23.588  0.00  0.00    +0.019 C 
ENDBRANCH   1  32
TORSDOF 3
ENDMDL
MODEL 8
REMARK VINA RESULT:      -6.0      2.595      7.374
REMARK  Name = 
REMARK  6 active torsions:
REMARK  status: ('A' for Active; 'I' for Inactive)
REMARK    1  A    between atoms: C_1  and  C_2
REMARK    2  A    between atoms: C_2  and  C_3
REMARK    3  A    between atoms: C_2  and  C_4
REMARK    4  A    between atoms: C_2  and  C_5
REMARK    5  A    between atoms: C_7  and  N_8
REMARK    6  A    between atoms: C_22  and  C_23
REMARK                            x       y       z     vdW  Elec       q    Type
REMARK                         _______ _______ _______ _____ _____    ______ ____
ROOT
ATOM      1  C   UNL     1       7.048  -3.162  25.806  0.00  0.00    +0.139 A 
ATOM      2  N   UNL     1       7.742  -3.187  24.655  0.00  0.00    -0.212 NA
ATOM      3  C   UNL     1       7.988  -2.040  24.035  0.00  0.00    +0.167 A 
ATOM      4  C   UNL     1       7.518  -0.833  24.533  0.00  0.00    +0.060 A 
ATOM      5  C   UNL     1       7.844   0.351  23.839  0.00  0.00    +0.031 A 
ATOM      6  C   UNL     1       8.542   0.312  22.639  0.00  0.00    +0.077 A 
ATOM      7  C   UNL     1       8.969  -0.941  22.216  0.00  0.00    +0.131 A 
ATOM      8  N   UNL     1       9.696  -1.146  21.035  0.00  0.00    -0.342 N 
ATOM      9  H   UNL     1       9.876  -2.151  20.999  0.00  0.00    +0.144 HD
ATOM     10  H   UNL     1       9.134  -0.869  20.233  0.00  0.00    +0.144 HD
ATOM     11  C   UNL     1       6.771  -0.881  25.719  0.00  0.00    +0.134 A 
ATOM     12  N   UNL     1       8.711  -2.075  22.906  0.00  0.00    -0.212 NA
ATOM     13  N   UNL     1       6.546  -2.040  26.349  0.00  0.00    -0.216 NA
ENDROOT
BRANCH  11  14
ATOM     14  N   UNL     1       6.313   0.305  26.286  0.00  0.00    -0.312 N 
ATOM     15  C   UNL     1       4.849   0.542  26.264  0.00  0.00    +0.125 C 
ATOM     16  C   UNL     1       4.603   2.067  26.376  0.00  0.00    +0.127 C 
ATOM     17  N   UNL     1       5.264   2.568  27.582  0.00  0.00    -0.297 N 
ATOM     18  C   UNL     1       4.623   3.418  28.438  0.00  0.00    +0.218 A 
ATOM     19  N   UNL     1       3.401   3.874  28.113  0.00  0.00    -0.223 NA
ATOM     20  C   UNL     1       2.774   4.673  28.995  0.00  0.00    +0.116 A 
ATOM     21  C   UNL     1       3.304   5.022  30.209  0.00  0.00    +0.039 A 
ATOM     22  C   UNL     1       4.548   4.510  30.463  0.00  0.00    +0.116 A 
ATOM     23  N   UNL     1       5.220   3.729  29.601  0.00  0.00    -0.223 NA
ATOM     24  C   UNL     1       6.681   2.232  27.759  0.00  0.00    +0.127 C 
ATOM     25  C   UNL     1       6.905   0.711  27.574  0.00  0.00    +0.125 C 
ENDBRANCH  11  14
BRANCH   6  26
ATOM     26  C   UNL     1       8.715   1.605  21.926  0.00  0.00    +0.245 C 
ATOM     27  O   UNL     1       7.767   2.163  21.383  0.00  0.00    -0.270 OA
ATOM     28  N   UNL     1       9.956   2.167  21.872  0.00  0.00    -0.325 N 
ATOM     29  H   UNL     1      10.014   3.091  21.462  0.00  0.00    +0.145 HD
ATOM     30  H   UNL     1      10.680   1.879  22.520  0.00  0.00    +0.145 HD
ENDBRANCH   6  26
BRANCH   1  32
ATOM     31  C   UNL     1       8.061  -5.211  26.807  0.00  0.00    +0.019 C 
ATOM     32  C   UNL     1       6.737  -4.494  26.492  0.00  0.00    +0.022 C 
ATOM     33  C   UNL     1       5.960  -4.279  27.806  0.00  0.00    +0.019 C 
ATOM     34  C   UNL     1       5.881  -5.401  25.584  0.00  0.00    +0.019 C 
ENDBRANCH   1  32
TORSDOF 3
ENDMDL
MODEL 9
REMARK VINA RESULT:      -5.9      2.044      2.263
REMARK  Name = 
REMARK  6 active torsions:
REMARK  status: ('A' for Active; 'I' for Inactive)
REMARK    1  A    between atoms: C_1  and  C_2
REMARK    2  A    between atoms: C_2  and  C_3
REMARK    3  A    between atoms: C_2  and  C_4
REMARK    4  A    between atoms: C_2  and  C_5
REMARK    5  A    between atoms: C_7  and  N_8
REMARK    6  A    between atoms: C_22  and  C_23
REMARK                            x       y       z     vdW  Elec       q    Type
REMARK                         _______ _______ _______ _____ _____    ______ ____
ROOT
ATOM      1  C   UNL     1       4.672   3.790  24.556  0.00  0.00    +0.139 A 
ATOM      2  N   UNL     1       5.594   4.762  24.444  0.00  0.00    -0.212 NA
ATOM      3  C   UNL     1       6.854   4.419  24.206  0.00  0.00    +0.167 A 
ATOM      4  C   UNL     1       7.235   3.088  24.105  0.00  0.00    +0.060 A 
ATOM      5  C   UNL     1       8.585   2.797  23.819  0.00  0.00    +0.031 A 
ATOM      6  C   UNL     1       9.534   3.806  23.728  0.00  0.00    +0.077 A 
ATOM      7  C   UNL     1       9.062   5.108  23.846  0.00  0.00    +0.131 A 
ATOM      8  N   UNL     1       9.890   6.236  23.763  0.00  0.00    -0.342 N 
ATOM      9  H   UNL     1       9.266   7.038  23.872  0.00  0.00    +0.144 HD
ATOM     10  H   UNL     1      10.567   6.222  24.523  0.00  0.00    +0.144 HD
ATOM     11  C   UNL     1       6.229   2.123  24.265  0.00  0.00    +0.134 A 
ATOM     12  N   UNL     1       7.759   5.398  24.062  0.00  0.00    -0.212 NA
ATOM     13  N   UNL     1       4.958   2.480  24.484  0.00  0.00    -0.216 NA
ENDROOT
BRANCH  11  14
ATOM     14  N   UNL     1       6.548   0.775  24.130  0.00  0.00    -0.312 N 
ATOM     15  C   UNL     1       5.721  -0.193  24.889  0.00  0.00    +0.125 C 
ATOM     16  C   UNL     1       6.546  -1.490  25.081  0.00  0.00    +0.127 C 
ATOM     17  N   UNL     1       6.975  -1.979  23.770  0.00  0.00    -0.297 N 
ATOM     18  C   UNL     1       6.858  -3.299  23.435  0.00  0.00    +0.218 A 
ATOM     19  N   UNL     1       6.432  -4.173  24.363  0.00  0.00    -0.223 NA
ATOM     20  C   UNL     1       6.283  -5.458  23.994  0.00  0.00    +0.116 A 
ATOM     21  C   UNL     1       6.518  -5.912  22.722  0.00  0.00    +0.039 A 
ATOM     22  C   UNL     1       6.942  -4.955  21.839  0.00  0.00    +0.116 A 
ATOM     23  N   UNL     1       7.128  -3.667  22.172  0.00  0.00    -0.223 NA
ATOM     24  C   UNL     1       7.657  -1.026  22.888  0.00  0.00    +0.127 C 
ATOM     25  C   UNL     1       6.841   0.285  22.771  0.00  0.00    +0.125 C 
ENDBRANCH  11  14
BRANCH   6  26
ATOM     26  C   UNL     1      10.948   3.379  23.557  0.00  0.00    +0.245 C 
ATOM     27  O   UNL     1      11.823   4.184  23.259  0.00  0.00    -0.270 OA
ATOM     28  N   UNL     1      11.264   2.063  23.725  0.00  0.00    -0.325 N 
ATOM     29  H   UNL     1      12.248   1.829  23.695  0.00  0.00    +0.145 HD
ATOM     30  H   UNL     1      10.634   1.442  24.221  0.00  0.00    +0.145 HD
ENDBRANCH   6  26
BRANCH   1  32
ATOM     31  C   UNL     1       2.306   3.630  23.777  0.00  0.00    +0.019 C 
ATOM     32  C   UNL     1       3.230   4.196  24.869  0.00  0.00    +0.022 C 
ATOM     33  C   UNL     1       2.780   3.649  26.238  0.00  0.00    +0.019 C 
ATOM     34  C   UNL     1       3.079   5.731  24.906  0.00  0.00    +0.019 C 
ENDBRANCH   1  32
TORSDOF 3
ENDMDL
