MODEL 1
REMARK VINA RESULT:      -6.8      0.000      0.000
REMARK  Name = 
REMARK  14 active torsions:
REMARK  status: ('A' for Active; 'I' for Inactive)
REMARK    1  A    between atoms: N_10  and  C_11
REMARK    2  A    between atoms: C_14  and  C_16
REMARK    3  A    between atoms: C_16  and  O_17
REMARK    4  A    between atoms: O_17  and  P_18
REMARK    5  A    between atoms: P_18  and  O_19
REMARK    6  A    between atoms: P_18  and  O_21
REMARK    7  A    between atoms: O_21  and  P_22
REMARK    8  A    between atoms: P_22  and  O_23
REMARK    9  A    between atoms: P_22  and  O_25
REMARK   10  A    between atoms: O_25  and  P_26
REMARK   11  A    between atoms: P_26  and  O_27
REMARK   12  A    between atoms: P_26  and  S_28
REMARK   13  A    between atoms: C_30  and  O_32
REMARK   14  A    between atoms: C_33  and  O_35
REMARK                            x       y       z     vdW  Elec       q    Type
REMARK                         _______ _______ _______ _____ _____    ______ ____
ROOT
ATOM      1  C   UNL     1       8.488  -0.334  22.843  0.00  0.00    +0.253 C 
ATOM      2  C   UNL     1       9.955  -0.471  23.275  0.00  0.00    +0.195 C 
ATOM      3  C   UNL     1       9.887  -0.811  24.766  0.00  0.00    +0.178 C 
ATOM      4  C   UNL     1       8.405  -1.093  25.028  0.00  0.00    +0.178 C 
ATOM      5  O   UNL     1       7.797  -1.258  23.725  0.00  0.00    -0.346 OA
ENDROOT
BRANCH   1  13
ATOM      6  N   UNL     1       6.883   5.514  23.014  0.00  0.00    -0.341 N 
ATOM      7  H   UNL     1       5.912   5.229  23.058  0.00  0.00    +0.144 HD
ATOM      8  H   UNL     1       7.153   6.329  23.547  0.00  0.00    +0.144 HD
ATOM      9  C   UNL     1       7.776   4.462  23.184  0.00  0.00    +0.147 A 
ATOM     10  C   UNL     1       7.430   3.114  22.981  0.00  0.00    +0.147 A 
ATOM     11  N   UNL     1       6.250   2.499  22.625  0.00  0.00    -0.231 NA
ATOM     12  C   UNL     1       6.541   1.219  22.572  0.00  0.00    +0.203 A 
ATOM     13  N   UNL     1       7.848   0.965  22.914  0.00  0.00    -0.286 N 
ATOM     14  C   UNL     1       8.438   2.176  23.166  0.00  0.00    +0.167 A 
ATOM     15  N   UNL     1       9.711   2.425  23.510  0.00  0.00    -0.216 NA
ATOM     16  C   UNL     1       9.917   3.743  23.707  0.00  0.00    +0.225 A 
ATOM     17  N   UNL     1       9.035   4.757  23.571  0.00  0.00    -0.219 NA
ENDBRANCH   1  13
BRANCH   2  18
ATOM     18  O   UNL     1      10.561  -1.586  22.580  0.00  0.00    -0.385 OA
ATOM     19  H   UNL     1       9.856  -2.096  22.141  0.00  0.00    +0.210 HD
ENDBRANCH   2  18
BRANCH   3  20
ATOM     20  O   UNL     1      10.342   0.287  25.549  0.00  0.00    -0.386 OA
ATOM     21  H   UNL     1      10.606  -0.046  26.426  0.00  0.00    +0.210 HD
ENDBRANCH   3  20
BRANCH   4  22
ATOM     22  C   UNL     1       8.176  -2.341  25.886  0.00  0.00    +0.206 C 
BRANCH  22  23
ATOM     23  O   UNL     1       7.823  -3.454  25.069  0.00  0.00    -0.284 OA
BRANCH  23  24
ATOM     24  P   UNL     1       8.949  -4.564  24.758  0.00  0.00    +0.483 P 
ATOM     25  O   UNL     1      10.327  -4.046  24.509  0.00  0.00    -0.227 OA
BRANCH  24  26
ATOM     26  O   UNL     1       8.906  -5.503  26.057  0.00  0.00    -0.302 OA
ATOM     27  H   UNL     1       9.629  -6.158  25.998  0.00  0.00    +0.222 HD
ENDBRANCH  24  26
BRANCH  24  28
ATOM     28  O   UNL     1       8.330  -5.475  23.629  0.00  0.00    -0.186 OA
BRANCH  28  29
ATOM     29  P   UNL     1       6.810  -5.093  22.893  0.00  0.00    +0.491 P 
ATOM     30  O   UNL     1       7.008  -6.231  21.889  0.00  0.00    -0.226 OA
BRANCH  29  31
ATOM     31  O   UNL     1       7.472  -3.743  22.234  0.00  0.00    -0.302 OA
ATOM     32  H   UNL     1       7.684  -3.862  21.292  0.00  0.00    +0.222 HD
ENDBRANCH  29  31
BRANCH  29  33
ATOM     33  O   UNL     1       5.291  -4.711  22.158  0.00  0.00    -0.200 OA
BRANCH  33  34
ATOM     34  P   UNL     1       4.140  -4.260  23.368  0.00  0.00    +0.394 P 
ATOM     35  O   UNL     1       3.198  -5.394  22.894  0.00  0.00    -0.246 OA
BRANCH  34  36
ATOM     36  O   UNL     1       5.192  -2.993  23.897  0.00  0.00    -0.316 OA
ATOM     37  H   UNL     1       5.703  -2.663  23.132  0.00  0.00    +0.221 HD
ENDBRANCH  34  36
BRANCH  34  38
ATOM     38  S   UNL     1       4.684  -5.388  25.126  0.00  0.00    -0.058 S 
ATOM     39  H   UNL     1       4.030  -4.571  25.963  0.00  0.00    +0.114 HD
ENDBRANCH  34  38
ENDBRANCH  33  34
ENDBRANCH  29  33
ENDBRANCH  28  29
ENDBRANCH  24  28
ENDBRANCH  23  24
ENDBRANCH  22  23
ENDBRANCH   4  22
TORSDOF 14
ENDMDL
MODEL 2
REMARK VINA RESULT:      -6.8      2.419      3.807
REMARK  Name = 
REMARK  14 active torsions:
REMARK  status: ('A' for Active; 'I' for Inactive)
REMARK    1  A    between atoms: N_10  and  C_11
REMARK    2  A    between atoms: C_14  and  C_16
REMARK    3  A    between atoms: C_16  and  O_17
REMARK    4  A    between atoms: O_17  and  P_18
REMARK    5  A    between atoms: P_18  and  O_19
REMARK    6  A    between atoms: P_18  and  O_21
REMARK    7  A    between atoms: O_21  and  P_22
REMARK    8  A    between atoms: P_22  and  O_23
REMARK    9  A    between atoms: P_22  and  O_25
REMARK   10  A    between atoms: O_25  and  P_26
REMARK   11  A    between atoms: P_26  and  O_27
REMARK   12  A    between atoms: P_26  and  S_28
REMARK   13  A    between atoms: C_30  and  O_32
REMARK   14  A    between atoms: C_33  and  O_35
REMARK                            x       y       z     vdW  Elec       q    Type
REMARK                         _______ _______ _______ _____ _____    ______ ____
ROOT
ATOM      1  C   UNL     1       9.034   0.275  25.075  0.00  0.00    +0.253 C 
ATOM      2  C   UNL     1       7.543  -0.068  25.199  0.00  0.00    +0.195 C 
ATOM      3  C   UNL     1       7.218  -0.844  23.921  0.00  0.00    +0.178 C 
ATOM      4  C   UNL     1       8.582  -1.112  23.278  0.00  0.00    +0.178 C 
ATOM      5  O   UNL     1       9.564  -0.836  24.304  0.00  0.00    -0.346 OA
ENDROOT
BRANCH   1  13
ATOM      6  N   UNL     1       9.971   5.980  23.236  0.00  0.00    -0.341 N 
ATOM      7  H   UNL     1      10.646   5.634  22.564  0.00  0.00    +0.144 HD
ATOM      8  H   UNL     1       9.393   6.759  22.954  0.00  0.00    +0.144 HD
ATOM      9  C   UNL     1       9.228   4.972  23.839  0.00  0.00    +0.147 A 
ATOM     10  C   UNL     1       9.641   3.629  23.887  0.00  0.00    +0.147 A 
ATOM     11  N   UNL     1      10.751   2.978  23.392  0.00  0.00    -0.231 NA
ATOM     12  C   UNL     1      10.600   1.727  23.765  0.00  0.00    +0.203 A 
ATOM     13  N   UNL     1       9.424   1.522  24.447  0.00  0.00    -0.286 N 
ATOM     14  C   UNL     1       8.803   2.740  24.547  0.00  0.00    +0.167 A 
ATOM     15  N   UNL     1       7.641   3.033  25.152  0.00  0.00    -0.216 NA
ATOM     16  C   UNL     1       7.333   4.338  25.015  0.00  0.00    +0.225 A 
ATOM     17  N   UNL     1       8.045   5.306  24.399  0.00  0.00    -0.219 NA
ENDBRANCH   1  13
BRANCH   2  18
ATOM     18  O   UNL     1       7.341  -0.947  26.330  0.00  0.00    -0.385 OA
ATOM     19  H   UNL     1       7.973  -0.699  27.030  0.00  0.00    +0.210 HD
ENDBRANCH   2  18
BRANCH   3  20
ATOM     20  O   UNL     1       6.395  -0.065  23.060  0.00  0.00    -0.386 OA
ATOM     21  H   UNL     1       6.138  -0.614  22.297  0.00  0.00    +0.210 HD
ENDBRANCH   3  20
BRANCH   4  22
ATOM     22  C   UNL     1       8.730  -2.548  22.768  0.00  0.00    +0.206 C 
BRANCH  22  23
ATOM     23  O   UNL     1       7.725  -3.386  23.332  0.00  0.00    -0.284 OA
BRANCH  23  24
ATOM     24  P   UNL     1       8.144  -4.396  24.516  0.00  0.00    +0.483 P 
ATOM     25  O   UNL     1       8.950  -5.584  24.107  0.00  0.00    -0.227 OA
BRANCH  24  26
ATOM     26  O   UNL     1       8.962  -3.456  25.525  0.00  0.00    -0.302 OA
ATOM     27  H   UNL     1       9.049  -3.915  26.385  0.00  0.00    +0.222 HD
ENDBRANCH  24  26
BRANCH  24  28
ATOM     28  O   UNL     1       6.806  -4.693  25.297  0.00  0.00    -0.186 OA
BRANCH  28  29
ATOM     29  P   UNL     1       6.819  -5.173  26.960  0.00  0.00    +0.491 P 
ATOM     30  O   UNL     1       7.015  -3.715  27.382  0.00  0.00    -0.226 OA
BRANCH  29  31
ATOM     31  O   UNL     1       8.312  -5.824  26.757  0.00  0.00    -0.302 OA
ATOM     32  H   UNL     1       8.579  -5.845  25.822  0.00  0.00    +0.222 HD
ENDBRANCH  29  31
BRANCH  29  33
ATOM     33  O   UNL     1       6.832  -5.654  28.621  0.00  0.00    -0.200 OA
BRANCH  33  34
ATOM     34  P   UNL     1       5.245  -6.137  29.115  0.00  0.00    +0.394 P 
ATOM     35  O   UNL     1       5.050  -4.772  29.820  0.00  0.00    -0.246 OA
BRANCH  34  36
ATOM     36  O   UNL     1       5.463  -7.661  28.328  0.00  0.00    -0.316 OA
ATOM     37  H   UNL     1       4.887  -7.698  27.540  0.00  0.00    +0.221 HD
ENDBRANCH  34  36
BRANCH  34  38
ATOM     38  S   UNL     1       3.938  -5.539  27.504  0.00  0.00    -0.058 S 
ATOM     39  H   UNL     1       4.929  -5.482  26.603  0.00  0.00    +0.114 HD
ENDBRANCH  34  38
ENDBRANCH  33  34
ENDBRANCH  29  33
ENDBRANCH  28  29
ENDBRANCH  24  28
ENDBRANCH  23  24
ENDBRANCH  22  23
ENDBRANCH   4  22
TORSDOF 14
ENDMDL
MODEL 3
REMARK VINA RESULT:      -6.8      5.019      7.354
REMARK  Name = 
REMARK  14 active torsions:
REMARK  status: ('A' for Active; 'I' for Inactive)
REMARK    1  A    between atoms: N_10  and  C_11
REMARK    2  A    between atoms: C_14  and  C_16
REMARK    3  A    between atoms: C_16  and  O_17
REMARK    4  A    between atoms: O_17  and  P_18
REMARK    5  A    between atoms: P_18  and  O_19
REMARK    6  A    between atoms: P_18  and  O_21
REMARK    7  A    between atoms: O_21  and  P_22
REMARK    8  A    between atoms: P_22  and  O_23
REMARK    9  A    between atoms: P_22  and  O_25
REMARK   10  A    between atoms: O_25  and  P_26
REMARK   11  A    between atoms: P_26  and  O_27
REMARK   12  A    between atoms: P_26  and  S_28
REMARK   13  A    between atoms: C_30  and  O_32
REMARK   14  A    between atoms: C_33  and  O_35
REMARK                            x       y       z     vdW  Elec       q    Type
REMARK                         _______ _______ _______ _____ _____    ______ ____
ROOT
ATOM      1  C   UNL     1       7.023  -1.678  23.991  0.00  0.00    +0.253 C 
ATOM      2  C   UNL     1       8.329  -1.738  24.794  0.00  0.00    +0.195 C 
ATOM      3  C   UNL     1       9.434  -1.725  23.734  0.00  0.00    +0.178 C 
ATOM      4  C   UNL     1       8.706  -1.405  22.425  0.00  0.00    +0.178 C 
ATOM      5  O   UNL     1       7.397  -0.921  22.809  0.00  0.00    -0.346 OA
ENDROOT
BRANCH   1  13
ATOM      6  N   UNL     1       4.163  -6.999  23.425  0.00  0.00    -0.341 N 
ATOM      7  H   UNL     1       4.227  -6.906  22.418  0.00  0.00    +0.144 HD
ATOM      8  H   UNL     1       4.265  -7.926  23.814  0.00  0.00    +0.144 HD
ATOM      9  C   UNL     1       4.922  -6.060  24.114  0.00  0.00    +0.147 A 
ATOM     10  C   UNL     1       5.356  -4.849  23.546  0.00  0.00    +0.147 A 
ATOM     11  N   UNL     1       5.206  -4.303  22.290  0.00  0.00    -0.231 NA
ATOM     12  C   UNL     1       5.811  -3.138  22.355  0.00  0.00    +0.203 A 
ATOM     13  N   UNL     1       6.383  -2.914  23.585  0.00  0.00    -0.286 N 
ATOM     14  C   UNL     1       6.086  -3.999  24.367  0.00  0.00    +0.167 A 
ATOM     15  N   UNL     1       6.414  -4.212  25.652  0.00  0.00    -0.216 NA
ATOM     16  C   UNL     1       5.973  -5.413  26.077  0.00  0.00    +0.225 A 
ATOM     17  N   UNL     1       5.263  -6.335  25.391  0.00  0.00    -0.219 NA
ENDBRANCH   1  13
BRANCH   2  18
ATOM     18  O   UNL     1       8.457  -0.544  25.601  0.00  0.00    -0.385 OA
ATOM     19  H   UNL     1       8.885   0.146  25.063  0.00  0.00    +0.210 HD
ENDBRANCH   2  18
BRANCH   3  20
ATOM     20  O   UNL     1      10.072  -2.995  23.664  0.00  0.00    -0.386 OA
ATOM     21  H   UNL     1      10.412  -3.121  22.760  0.00  0.00    +0.210 HD
ENDBRANCH   3  20
BRANCH   4  22
ATOM     22  C   UNL     1       9.435  -0.360  21.576  0.00  0.00    +0.206 C 
BRANCH  22  23
ATOM     23  O   UNL     1      10.272   0.454  22.393  0.00  0.00    -0.284 OA
BRANCH  23  24
ATOM     24  P   UNL     1       9.773   1.942  22.760  0.00  0.00    +0.483 P 
ATOM     25  O   UNL     1      10.844   2.968  22.926  0.00  0.00    -0.227 OA
BRANCH  24  26
ATOM     26  O   UNL     1       8.796   2.310  21.543  0.00  0.00    -0.302 OA
ATOM     27  H   UNL     1       7.870   2.176  21.828  0.00  0.00    +0.222 HD
ENDBRANCH  24  26
BRANCH  24  28
ATOM     28  O   UNL     1       8.786   1.757  23.977  0.00  0.00    -0.186 OA
BRANCH  28  29
ATOM     29  P   UNL     1       7.332   2.686  24.109  0.00  0.00    +0.491 P 
ATOM     30  O   UNL     1       7.129   2.170  25.536  0.00  0.00    -0.226 OA
BRANCH  29  31
ATOM     31  O   UNL     1       6.573   1.636  23.101  0.00  0.00    -0.302 OA
ATOM     32  H   UNL     1       7.197   1.177  22.514  0.00  0.00    +0.222 HD
ENDBRANCH  29  31
BRANCH  29  33
ATOM     33  O   UNL     1       5.879   3.615  24.241  0.00  0.00    -0.200 OA
BRANCH  33  34
ATOM     34  P   UNL     1       4.904   3.403  22.827  0.00  0.00    +0.394 P 
ATOM     35  O   UNL     1       3.793   2.756  23.690  0.00  0.00    -0.246 OA
BRANCH  34  36
ATOM     36  O   UNL     1       6.145   4.125  21.863  0.00  0.00    -0.316 OA
ATOM     37  H   UNL     1       6.841   4.477  22.451  0.00  0.00    +0.221 HD
ENDBRANCH  34  36
BRANCH  34  38
ATOM     38  S   UNL     1       3.759   5.223  22.642  0.00  0.00    -0.058 S 
ATOM     39  H   UNL     1       2.694   4.606  22.112  0.00  0.00    +0.114 HD
ENDBRANCH  34  38
ENDBRANCH  33  34
ENDBRANCH  29  33
ENDBRANCH  28  29
ENDBRANCH  24  28
ENDBRANCH  23  24
ENDBRANCH  22  23
ENDBRANCH   4  22
TORSDOF 14
ENDMDL
MODEL 4
REMARK VINA RESULT:      -6.8      1.865      2.824
REMARK  Name = 
REMARK  14 active torsions:
REMARK  status: ('A' for Active; 'I' for Inactive)
REMARK    1  A    between atoms: N_10  and  C_11
REMARK    2  A    between atoms: C_14  and  C_16
REMARK    3  A    between atoms: C_16  and  O_17
REMARK    4  A    between atoms: O_17  and  P_18
REMARK    5  A    between atoms: P_18  and  O_19
REMARK    6  A    between atoms: P_18  and  O_21
REMARK    7  A    between atoms: O_21  and  P_22
REMARK    8  A    between atoms: P_22  and  O_23
REMARK    9  A    between atoms: P_22  and  O_25
REMARK   10  A    between atoms: O_25  and  P_26
REMARK   11  A    between atoms: P_26  and  O_27
REMARK   12  A    between atoms: P_26  and  S_28
REMARK   13  A    between atoms: C_30  and  O_32
REMARK   14  A    between atoms: C_33  and  O_35
REMARK                            x       y       z     vdW  Elec       q    Type
REMARK                         _______ _______ _______ _____ _____    ______ ____
ROOT
ATOM      1  C   UNL     1       7.774  -0.789  22.868  0.00  0.00    +0.253 C 
ATOM      2  C   UNL     1       8.358  -2.073  22.261  0.00  0.00    +0.195 C 
ATOM      3  C   UNL     1       9.178  -2.696  23.394  0.00  0.00    +0.178 C 
ATOM      4  C   UNL     1       8.808  -1.873  24.632  0.00  0.00    +0.178 C 
ATOM      5  O   UNL     1       7.621  -1.128  24.272  0.00  0.00    -0.346 OA
ENDROOT
BRANCH   1  13
ATOM      6  N   UNL     1      10.572   4.558  23.486  0.00  0.00    -0.341 N 
ATOM      7  H   UNL     1      10.941   4.454  22.548  0.00  0.00    +0.144 HD
ATOM      8  H   UNL     1      10.311   5.488  23.781  0.00  0.00    +0.144 HD
ATOM      9  C   UNL     1       9.599   3.618  23.802  0.00  0.00    +0.147 A 
ATOM     10  C   UNL     1       9.453   2.396  23.123  0.00  0.00    +0.147 A 
ATOM     11  N   UNL     1      10.124   1.838  22.056  0.00  0.00    -0.231 NA
ATOM     12  C   UNL     1       9.555   0.667  21.876  0.00  0.00    +0.203 A 
ATOM     13  N   UNL     1       8.517   0.450  22.752  0.00  0.00    -0.286 N 
ATOM     14  C   UNL     1       8.449   1.547  23.570  0.00  0.00    +0.167 A 
ATOM     15  N   UNL     1       7.608   1.770  24.592  0.00  0.00    -0.216 NA
ATOM     16  C   UNL     1       7.820   2.981  25.146  0.00  0.00    +0.225 A 
ATOM     17  N   UNL     1       8.748   3.903  24.811  0.00  0.00    -0.219 NA
ENDBRANCH   1  13
BRANCH   2  18
ATOM     18  O   UNL     1       7.283  -2.981  21.924  0.00  0.00    -0.385 OA
ATOM     19  H   UNL     1       6.456  -2.634  22.304  0.00  0.00    +0.210 HD
ENDBRANCH   2  18
BRANCH   3  20
ATOM     20  O   UNL     1      10.570  -2.596  23.114  0.00  0.00    -0.386 OA
ATOM     21  H   UNL     1      10.749  -3.048  22.270  0.00  0.00    +0.210 HD
ENDBRANCH   3  20
BRANCH   4  22
ATOM     22  C   UNL     1       8.542  -2.739  25.867  0.00  0.00    +0.206 C 
BRANCH  22  23
ATOM     23  O   UNL     1       8.453  -4.114  25.505  0.00  0.00    -0.284 OA
BRANCH  23  24
ATOM     24  P   UNL     1       7.000  -4.810  25.484  0.00  0.00    +0.483 P 
ATOM     25  O   UNL     1       6.768  -5.869  26.511  0.00  0.00    -0.227 OA
BRANCH  24  26
ATOM     26  O   UNL     1       6.000  -3.574  25.686  0.00  0.00    -0.302 OA
ATOM     27  H   UNL     1       5.155  -3.772  25.234  0.00  0.00    +0.222 HD
ENDBRANCH  24  26
BRANCH  24  28
ATOM     28  O   UNL     1       6.764  -5.229  23.982  0.00  0.00    -0.186 OA
BRANCH  28  29
ATOM     29  P   UNL     1       5.170  -5.477  23.354  0.00  0.00    +0.491 P 
ATOM     30  O   UNL     1       5.020  -3.970  23.134  0.00  0.00    -0.226 OA
BRANCH  29  31
ATOM     31  O   UNL     1       4.627  -5.803  24.868  0.00  0.00    -0.302 OA
ATOM     32  H   UNL     1       5.196  -5.412  25.553  0.00  0.00    +0.222 HD
ENDBRANCH  29  31
BRANCH  29  33
ATOM     33  O   UNL     1       3.578  -5.726  22.725  0.00  0.00    -0.200 OA
BRANCH  33  34
ATOM     34  P   UNL     1       2.533  -6.325  23.967  0.00  0.00    +0.394 P 
ATOM     35  O   UNL     1       1.959  -4.901  24.171  0.00  0.00    -0.246 OA
BRANCH  34  36
ATOM     36  O   UNL     1       3.174  -7.915  23.739  0.00  0.00    -0.316 OA
ATOM     37  H   UNL     1       4.150  -7.869  23.750  0.00  0.00    +0.221 HD
ENDBRANCH  34  36
BRANCH  34  38
ATOM     38  S   UNL     1       0.735  -6.950  22.949  0.00  0.00    -0.058 S 
ATOM     39  H   UNL     1       0.719  -8.158  23.531  0.00  0.00    +0.114 HD
ENDBRANCH  34  38
ENDBRANCH  33  34
ENDBRANCH  29  33
ENDBRANCH  28  29
ENDBRANCH  24  28
ENDBRANCH  23  24
ENDBRANCH  22  23
ENDBRANCH   4  22
TORSDOF 14
ENDMDL
MODEL 5
REMARK VINA RESULT:      -6.7      2.461      3.810
REMARK  Name = 
REMARK  14 active torsions:
REMARK  status: ('A' for Active; 'I' for Inactive)
REMARK    1  A    between atoms: N_10  and  C_11
REMARK    2  A    between atoms: C_14  and  C_16
REMARK    3  A    between atoms: C_16  and  O_17
REMARK    4  A    between atoms: O_17  and  P_18
REMARK    5  A    between atoms: P_18  and  O_19
REMARK    6  A    between atoms: P_18  and  O_21
REMARK    7  A    between atoms: O_21  and  P_22
REMARK    8  A    between atoms: P_22  and  O_23
REMARK    9  A    between atoms: P_22  and  O_25
REMARK   10  A    between atoms: O_25  and  P_26
REMARK   11  A    between atoms: P_26  and  O_27
REMARK   12  A    between atoms: P_26  and  S_28
REMARK   13  A    between atoms: C_30  and  O_32
REMARK   14  A    between atoms: C_33  and  O_35
REMARK                            x       y       z     vdW  Elec       q    Type
REMARK                         _______ _______ _______ _____ _____    ______ ____
ROOT
ATOM      1  C   UNL     1       7.225  -2.813  23.127  0.00  0.00    +0.253 C 
ATOM      2  C   UNL     1       7.766  -4.247  23.207  0.00  0.00    +0.195 C 
ATOM      3  C   UNL     1       8.374  -4.352  24.608  0.00  0.00    +0.178 C 
ATOM      4  C   UNL     1       7.921  -3.073  25.319  0.00  0.00    +0.178 C 
ATOM      5  O   UNL     1       6.862  -2.520  24.503  0.00  0.00    -0.346 OA
ENDROOT
BRANCH   1  13
ATOM      6  N   UNL     1      10.164   2.292  21.673  0.00  0.00    -0.341 N 
ATOM      7  H   UNL     1      10.823   1.739  21.138  0.00  0.00    +0.144 HD
ATOM      8  H   UNL     1       9.912   3.199  21.306  0.00  0.00    +0.144 HD
ATOM      9  C   UNL     1       9.051   1.571  22.089  0.00  0.00    +0.147 A 
ATOM     10  C   UNL     1       9.026   0.168  22.179  0.00  0.00    +0.147 A 
ATOM     11  N   UNL     1       9.966  -0.799  21.894  0.00  0.00    -0.231 NA
ATOM     12  C   UNL     1       9.378  -1.936  22.194  0.00  0.00    +0.203 A 
ATOM     13  N   UNL     1       8.085  -1.759  22.625  0.00  0.00    -0.286 N 
ATOM     14  C   UNL     1       7.849  -0.409  22.635  0.00  0.00    +0.167 A 
ATOM     15  N   UNL     1       6.732   0.236  23.008  0.00  0.00    -0.216 NA
ATOM     16  C   UNL     1       6.860   1.569  22.850  0.00  0.00    +0.225 A 
ATOM     17  N   UNL     1       7.936   2.260  22.414  0.00  0.00    -0.219 NA
ENDBRANCH   1  13
BRANCH   2  18
ATOM     18  O   UNL     1       6.668  -5.184  23.115  0.00  0.00    -0.385 OA
ATOM     19  H   UNL     1       5.966  -4.783  22.571  0.00  0.00    +0.210 HD
ENDBRANCH   2  18
BRANCH   3  20
ATOM     20  O   UNL     1       9.793  -4.416  24.533  0.00  0.00    -0.386 OA
ATOM     21  H   UNL     1      10.040  -5.164  23.959  0.00  0.00    +0.210 HD
ENDBRANCH   3  20
BRANCH   4  22
ATOM     22  C   UNL     1       7.421  -3.327  26.744  0.00  0.00    +0.206 C 
BRANCH  22  23
ATOM     23  O   UNL     1       7.719  -4.660  27.150  0.00  0.00    -0.284 OA
BRANCH  23  24
ATOM     24  P   UNL     1       6.513  -5.589  27.678  0.00  0.00    +0.483 P 
ATOM     25  O   UNL     1       6.790  -6.382  28.911  0.00  0.00    -0.227 OA
BRANCH  24  26
ATOM     26  O   UNL     1       5.322  -4.543  27.914  0.00  0.00    -0.302 OA
ATOM     27  H   UNL     1       4.803  -4.460  27.088  0.00  0.00    +0.222 HD
ENDBRANCH  24  26
BRANCH  24  28
ATOM     28  O   UNL     1       6.037  -6.405  26.414  0.00  0.00    -0.186 OA
BRANCH  28  29
ATOM     29  P   UNL     1       4.446  -6.211  25.761  0.00  0.00    +0.491 P 
ATOM     30  O   UNL     1       3.876  -7.075  26.888  0.00  0.00    -0.226 OA
BRANCH  29  31
ATOM     31  O   UNL     1       4.834  -7.220  24.525  0.00  0.00    -0.302 OA
ATOM     32  H   UNL     1       5.753  -7.099  24.229  0.00  0.00    +0.222 HD
ENDBRANCH  29  31
BRANCH  29  33
ATOM     33  O   UNL     1       2.856  -6.017  25.107  0.00  0.00    -0.200 OA
BRANCH  33  34
ATOM     34  P   UNL     1       2.693  -4.451  24.390  0.00  0.00    +0.394 P 
ATOM     35  O   UNL     1       1.221  -4.771  24.028  0.00  0.00    -0.246 OA
BRANCH  34  36
ATOM     36  O   UNL     1       4.336  -4.095  24.793  0.00  0.00    -0.316 OA
ATOM     37  H   UNL     1       4.404  -3.156  25.054  0.00  0.00    +0.221 HD
ENDBRANCH  34  36
BRANCH  34  38
ATOM     38  S   UNL     1       2.061  -3.150  25.992  0.00  0.00    -0.058 S 
ATOM     39  H   UNL     1       3.256  -3.172  26.601  0.00  0.00    +0.114 HD
ENDBRANCH  34  38
ENDBRANCH  33  34
ENDBRANCH  29  33
ENDBRANCH  28  29
ENDBRANCH  24  28
ENDBRANCH  23  24
ENDBRANCH  22  23
ENDBRANCH   4  22
TORSDOF 14
ENDMDL
MODEL 6
REMARK VINA RESULT:      -6.7      2.837      4.493
REMARK  Name = 
REMARK  14 active torsions:
REMARK  status: ('A' for Active; 'I' for Inactive)
REMARK    1  A    between atoms: N_10  and  C_11
REMARK    2  A    between atoms: C_14  and  C_16
REMARK    3  A    between atoms: C_16  and  O_17
REMARK    4  A    between atoms: O_17  and  P_18
REMARK    5  A    between atoms: P_18  and  O_19
REMARK    6  A    between atoms: P_18  and  O_21
REMARK    7  A    between atoms: O_21  and  P_22
REMARK    8  A    between atoms: P_22  and  O_23
REMARK    9  A    between atoms: P_22  and  O_25
REMARK   10  A    between atoms: O_25  and  P_26
REMARK   11  A    between atoms: P_26  and  O_27
REMARK   12  A    between atoms: P_26  and  S_28
REMARK   13  A    between atoms: C_30  and  O_32
REMARK   14  A    between atoms: C_33  and  O_35
REMARK                            x       y       z     vdW  Elec       q    Type
REMARK                         _______ _______ _______ _____ _____    ______ ____
ROOT
ATOM      1  C   UNL     1       7.647  -3.156  24.321  0.00  0.00    +0.253 C 
ATOM      2  C   UNL     1       8.269  -4.411  23.693  0.00  0.00    +0.195 C 
ATOM      3  C   UNL     1       8.842  -5.191  24.879  0.00  0.00    +0.178 C 
ATOM      4  C   UNL     1       8.295  -4.468  26.114  0.00  0.00    +0.178 C 
ATOM      5  O   UNL     1       7.229  -3.616  25.633  0.00  0.00    -0.346 OA
ENDROOT
BRANCH   1  13
ATOM      6  N   UNL     1      10.683   2.076  23.860  0.00  0.00    -0.341 N 
ATOM      7  H   UNL     1      10.978   1.970  24.823  0.00  0.00    +0.144 HD
ATOM      8  H   UNL     1      11.346   2.480  23.213  0.00  0.00    +0.144 HD
ATOM      9  C   UNL     1      10.076   0.939  23.341  0.00  0.00    +0.147 A 
ATOM     10  C   UNL     1       9.511  -0.070  24.141  0.00  0.00    +0.147 A 
ATOM     11  N   UNL     1       9.421  -0.235  25.506  0.00  0.00    -0.231 NA
ATOM     12  C   UNL     1       8.765  -1.363  25.666  0.00  0.00    +0.203 A 
ATOM     13  N   UNL     1       8.457  -1.963  24.468  0.00  0.00    -0.286 N 
ATOM     14  C   UNL     1       8.917  -1.135  23.477  0.00  0.00    +0.167 A 
ATOM     15  N   UNL     1       8.819  -1.297  22.148  0.00  0.00    -0.216 NA
ATOM     16  C   UNL     1       9.421  -0.288  21.486  0.00  0.00    +0.225 A 
ATOM     17  N   UNL     1      10.037   0.798  21.998  0.00  0.00    -0.219 NA
ENDBRANCH   1  13
BRANCH   2  18
ATOM     18  O   UNL     1       7.231  -5.211  23.080  0.00  0.00    -0.385 OA
ATOM     19  H   UNL     1       6.431  -4.661  22.991  0.00  0.00    +0.210 HD
ENDBRANCH   2  18
BRANCH   3  20
ATOM     20  O   UNL     1      10.265  -5.156  24.858  0.00  0.00    -0.386 OA
ATOM     21  H   UNL     1      10.548  -4.458  24.240  0.00  0.00    +0.210 HD
ENDBRANCH   3  20
BRANCH   4  22
ATOM     22  C   UNL     1       7.771  -5.428  27.185  0.00  0.00    +0.206 C 
BRANCH  22  23
ATOM     23  O   UNL     1       6.442  -5.842  26.880  0.00  0.00    -0.284 OA
BRANCH  23  24
ATOM     24  P   UNL     1       5.439  -6.163  28.100  0.00  0.00    +0.483 P 
ATOM     25  O   UNL     1       5.503  -7.549  28.651  0.00  0.00    -0.227 OA
BRANCH  24  26
ATOM     26  O   UNL     1       5.850  -5.077  29.206  0.00  0.00    -0.302 OA
ATOM     27  H   UNL     1       5.037  -4.668  29.565  0.00  0.00    +0.222 HD
ENDBRANCH  24  26
BRANCH  24  28
ATOM     28  O   UNL     1       4.023  -5.669  27.611  0.00  0.00    -0.186 OA
BRANCH  28  29
ATOM     29  P   UNL     1       3.306  -6.279  26.159  0.00  0.00    +0.491 P 
ATOM     30  O   UNL     1       2.036  -6.637  26.934  0.00  0.00    -0.226 OA
BRANCH  29  31
ATOM     31  O   UNL     1       4.297  -7.585  26.222  0.00  0.00    -0.302 OA
ATOM     32  H   UNL     1       4.804  -7.621  27.051  0.00  0.00    +0.222 HD
ENDBRANCH  29  31
BRANCH  29  33
ATOM     33  O   UNL     1       2.590  -6.887  24.707  0.00  0.00    -0.200 OA
BRANCH  33  34
ATOM     34  P   UNL     1       3.150  -5.985  23.341  0.00  0.00    +0.394 P 
ATOM     35  O   UNL     1       1.754  -5.331  23.200  0.00  0.00    -0.246 OA
BRANCH  34  36
ATOM     36  O   UNL     1       4.710  -6.716  23.498  0.00  0.00    -0.316 OA
ATOM     37  H   UNL     1       5.215  -6.567  22.676  0.00  0.00    +0.221 HD
ENDBRANCH  34  36
BRANCH  34  38
ATOM     38  S   UNL     1       3.969  -4.162  24.157  0.00  0.00    -0.058 S 
ATOM     39  H   UNL     1       4.301  -3.668  22.955  0.00  0.00    +0.114 HD
ENDBRANCH  34  38
ENDBRANCH  33  34
ENDBRANCH  29  33
ENDBRANCH  28  29
ENDBRANCH  24  28
ENDBRANCH  23  24
ENDBRANCH  22  23
ENDBRANCH   4  22
TORSDOF 14
ENDMDL
MODEL 7
REMARK VINA RESULT:      -6.6      1.862      2.552
REMARK  Name = 
REMARK  14 active torsions:
REMARK  status: ('A' for Active; 'I' for Inactive)
REMARK    1  A    between atoms: N_10  and  C_11
REMARK    2  A    between atoms: C_14  and  C_16
REMARK    3  A    between atoms: C_16  and  O_17
REMARK    4  A    between atoms: O_17  and  P_18
REMARK    5  A    between atoms: P_18  and  O_19
REMARK    6  A    between atoms: P_18  and  O_21
REMARK    7  A    between atoms: O_21  and  P_22
REMARK    8  A    between atoms: P_22  and  O_23
REMARK    9  A    between atoms: P_22  and  O_25
REMARK   10  A    between atoms: O_25  and  P_26
REMARK   11  A    between atoms: P_26  and  O_27
REMARK   12  A    between atoms: P_26  and  S_28
REMARK   13  A    between atoms: C_30  and  O_32
REMARK   14  A    between atoms: C_33  and  O_35
REMARK                            x       y       z     vdW  Elec       q    Type
REMARK                         _______ _______ _______ _____ _____    ______ ____
ROOT
ATOM      1  C   UNL     1       7.802  -0.420  23.026  0.00  0.00    +0.253 C 
ATOM      2  C   UNL     1       8.246  -1.704  22.311  0.00  0.00    +0.195 C 
ATOM      3  C   UNL     1       9.193  -2.388  23.300  0.00  0.00    +0.178 C 
ATOM      4  C   UNL     1       9.032  -1.591  24.599  0.00  0.00    +0.178 C 
ATOM      5  O   UNL     1       7.835  -0.796  24.429  0.00  0.00    -0.346 OA
ENDROOT
BRANCH   1  13
ATOM      6  N   UNL     1      10.732   4.883  23.342  0.00  0.00    -0.341 N 
ATOM      7  H   UNL     1      11.068   4.733  22.398  0.00  0.00    +0.144 HD
ATOM      8  H   UNL     1      10.499   5.830  23.607  0.00  0.00    +0.144 HD
ATOM      9  C   UNL     1       9.749   3.978  23.726  0.00  0.00    +0.147 A 
ATOM     10  C   UNL     1       9.556   2.734  23.101  0.00  0.00    +0.147 A 
ATOM     11  N   UNL     1      10.180   2.119  22.037  0.00  0.00    -0.231 NA
ATOM     12  C   UNL     1       9.581   0.955  21.922  0.00  0.00    +0.203 A 
ATOM     13  N   UNL     1       8.568   0.796  22.838  0.00  0.00    -0.286 N 
ATOM     14  C   UNL     1       8.549   1.926  23.613  0.00  0.00    +0.167 A 
ATOM     15  N   UNL     1       7.745   2.208  24.651  0.00  0.00    -0.216 NA
ATOM     16  C   UNL     1       8.000   3.435  25.149  0.00  0.00    +0.225 A 
ATOM     17  N   UNL     1       8.937   4.322  24.748  0.00  0.00    -0.219 NA
ENDBRANCH   1  13
BRANCH   2  18
ATOM     18  O   UNL     1       7.102  -2.565  22.106  0.00  0.00    -0.385 OA
ATOM     19  H   UNL     1       6.611  -2.245  21.328  0.00  0.00    +0.210 HD
ENDBRANCH   2  18
BRANCH   3  20
ATOM     20  O   UNL     1      10.535  -2.326  22.830  0.00  0.00    -0.386 OA
ATOM     21  H   UNL     1      10.628  -2.939  22.078  0.00  0.00    +0.210 HD
ENDBRANCH   3  20
BRANCH   4  22
ATOM     22  C   UNL     1       8.910  -2.484  25.836  0.00  0.00    +0.206 C 
BRANCH  22  23
ATOM     23  O   UNL     1       8.031  -3.577  25.580  0.00  0.00    -0.284 OA
BRANCH  23  24
ATOM     24  P   UNL     1       8.578  -5.073  25.825  0.00  0.00    +0.483 P 
ATOM     25  O   UNL     1       9.384  -5.664  24.716  0.00  0.00    -0.227 OA
BRANCH  24  26
ATOM     26  O   UNL     1       9.446  -4.931  27.165  0.00  0.00    -0.302 OA
ATOM     27  H   UNL     1       9.573  -5.819  27.557  0.00  0.00    +0.222 HD
ENDBRANCH  24  26
BRANCH  24  28
ATOM     28  O   UNL     1       7.319  -5.901  26.292  0.00  0.00    -0.186 OA
BRANCH  28  29
ATOM     29  P   UNL     1       5.723  -5.492  25.764  0.00  0.00    +0.491 P 
ATOM     30  O   UNL     1       5.216  -6.860  26.228  0.00  0.00    -0.226 OA
BRANCH  29  31
ATOM     31  O   UNL     1       6.201  -5.657  24.202  0.00  0.00    -0.302 OA
ATOM     32  H   UNL     1       6.625  -6.517  24.037  0.00  0.00    +0.222 HD
ENDBRANCH  29  31
BRANCH  29  33
ATOM     33  O   UNL     1       4.127  -5.083  25.235  0.00  0.00    -0.200 OA
BRANCH  33  34
ATOM     34  P   UNL     1       3.876  -3.376  25.360  0.00  0.00    +0.394 P 
ATOM     35  O   UNL     1       2.536  -3.627  26.094  0.00  0.00    -0.246 OA
BRANCH  34  36
ATOM     36  O   UNL     1       5.373  -3.096  24.540  0.00  0.00    -0.316 OA
ATOM     37  H   UNL     1       5.855  -3.942  24.460  0.00  0.00    +0.221 HD
ENDBRANCH  34  36
BRANCH  34  38
ATOM     38  S   UNL     1       4.828  -2.792  27.207  0.00  0.00    -0.058 S 
ATOM     39  H   UNL     1       3.671  -2.480  27.809  0.00  0.00    +0.114 HD
ENDBRANCH  34  38
ENDBRANCH  33  34
ENDBRANCH  29  33
ENDBRANCH  28  29
ENDBRANCH  24  28
ENDBRANCH  23  24
ENDBRANCH  22  23
ENDBRANCH   4  22
TORSDOF 14
ENDMDL
MODEL 8
REMARK VINA RESULT:      -6.6      4.705      7.231
REMARK  Name = 
REMARK  14 active torsions:
REMARK  status: ('A' for Active; 'I' for Inactive)
REMARK    1  A    between atoms: N_10  and  C_11
REMARK    2  A    between atoms: C_14  and  C_16
REMARK    3  A    between atoms: C_16  and  O_17
REMARK    4  A    between atoms: O_17  and  P_18
REMARK    5  A    between atoms: P_18  and  O_19
REMARK    6  A    between atoms: P_18  and  O_21
REMARK    7  A    between atoms: O_21  and  P_22
REMARK    8  A    between atoms: P_22  and  O_23
REMARK    9  A    between atoms: P_22  and  O_25
REMARK   10  A    between atoms: O_25  and  P_26
REMARK   11  A    between atoms: P_26  and  O_27
REMARK   12  A    between atoms: P_26  and  S_28
REMARK   13  A    between atoms: C_30  and  O_32
REMARK   14  A    between atoms: C_33  and  O_35
REMARK                            x       y       z     vdW  Elec       q    Type
REMARK                         _______ _______ _______ _____ _____    ______ ____
ROOT
ATOM      1  C   UNL     1       7.036  -1.673  24.029  0.00  0.00    +0.253 C 
ATOM      2  C   UNL     1       8.350  -1.750  24.818  0.00  0.00    +0.195 C 
ATOM      3  C   UNL     1       9.444  -1.722  23.748  0.00  0.00    +0.178 C 
ATOM      4  C   UNL     1       8.703  -1.379  22.452  0.00  0.00    +0.178 C 
ATOM      5  O   UNL     1       7.400  -0.898  22.856  0.00  0.00    -0.346 OA
ENDROOT
BRANCH   1  13
ATOM      6  N   UNL     1       4.165  -6.982  23.405  0.00  0.00    -0.341 N 
ATOM      7  H   UNL     1       4.212  -6.869  22.399  0.00  0.00    +0.144 HD
ATOM      8  H   UNL     1       4.272  -7.917  23.773  0.00  0.00    +0.144 HD
ATOM      9  C   UNL     1       4.935  -6.057  24.100  0.00  0.00    +0.147 A 
ATOM     10  C   UNL     1       5.361  -4.835  23.549  0.00  0.00    +0.147 A 
ATOM     11  N   UNL     1       5.190  -4.264  22.306  0.00  0.00    -0.231 NA
ATOM     12  C   UNL     1       5.797  -3.101  22.385  0.00  0.00    +0.203 A 
ATOM     13  N   UNL     1       6.389  -2.902  23.610  0.00  0.00    -0.286 N 
ATOM     14  C   UNL     1       6.104  -4.002  24.375  0.00  0.00    +0.167 A 
ATOM     15  N   UNL     1       6.453  -4.240  25.649  0.00  0.00    -0.216 NA
ATOM     16  C   UNL     1       6.018  -5.449  26.058  0.00  0.00    +0.225 A 
ATOM     17  N   UNL     1       5.297  -6.357  25.366  0.00  0.00    -0.219 NA
ENDBRANCH   1  13
BRANCH   2  18
ATOM     18  O   UNL     1       8.489  -0.570  25.643  0.00  0.00    -0.385 OA
ATOM     19  H   UNL     1       7.623  -0.371  26.044  0.00  0.00    +0.210 HD
ENDBRANCH   2  18
BRANCH   3  20
ATOM     20  O   UNL     1      10.078  -2.992  23.650  0.00  0.00    -0.386 OA
ATOM     21  H   UNL     1      11.037  -2.870  23.774  0.00  0.00    +0.210 HD
ENDBRANCH   3  20
BRANCH   4  22
ATOM     22  C   UNL     1       9.426  -0.322  21.613  0.00  0.00    +0.206 C 
BRANCH  22  23
ATOM     23  O   UNL     1       8.839   0.962  21.809  0.00  0.00    -0.284 OA
BRANCH  23  24
ATOM     24  P   UNL     1       9.620   2.030  22.727  0.00  0.00    +0.483 P 
ATOM     25  O   UNL     1      10.207   1.498  23.992  0.00  0.00    -0.227 OA
BRANCH  24  26
ATOM     26  O   UNL     1      10.757   2.593  21.748  0.00  0.00    -0.302 OA
ATOM     27  H   UNL     1      10.336   2.920  20.928  0.00  0.00    +0.222 HD
ENDBRANCH  24  26
BRANCH  24  28
ATOM     28  O   UNL     1       8.630   3.249  22.875  0.00  0.00    -0.186 OA
BRANCH  28  29
ATOM     29  P   UNL     1       7.385   3.261  24.078  0.00  0.00    +0.491 P 
ATOM     30  O   UNL     1       8.384   3.790  25.110  0.00  0.00    -0.226 OA
BRANCH  29  31
ATOM     31  O   UNL     1       7.439   1.622  24.145  0.00  0.00    -0.302 OA
ATOM     32  H   UNL     1       8.033   1.247  23.473  0.00  0.00    +0.222 HD
ENDBRANCH  29  31
BRANCH  29  33
ATOM     33  O   UNL     1       6.141   3.274  25.279  0.00  0.00    -0.200 OA
BRANCH  33  34
ATOM     34  P   UNL     1       5.480   1.686  25.471  0.00  0.00    +0.394 P 
ATOM     35  O   UNL     1       6.393   1.454  26.699  0.00  0.00    -0.246 OA
BRANCH  34  36
ATOM     36  O   UNL     1       4.460   1.945  24.098  0.00  0.00    -0.316 OA
ATOM     37  H   UNL     1       3.646   1.416  24.202  0.00  0.00    +0.221 HD
ENDBRANCH  34  36
BRANCH  34  38
ATOM     38  S   UNL     1       3.756   1.933  26.745  0.00  0.00    -0.058 S 
ATOM     39  H   UNL     1       3.310   3.011  26.084  0.00  0.00    +0.114 HD
ENDBRANCH  34  38
ENDBRANCH  33  34
ENDBRANCH  29  33
ENDBRANCH  28  29
ENDBRANCH  24  28
ENDBRANCH  23  24
ENDBRANCH  22  23
ENDBRANCH   4  22
TORSDOF 14
ENDMDL
MODEL 9
REMARK VINA RESULT:      -6.5      5.638      8.323
REMARK  Name = 
REMARK  14 active torsions:
REMARK  status: ('A' for Active; 'I' for Inactive)
REMARK    1  A    between atoms: N_10  and  C_11
REMARK    2  A    between atoms: C_14  and  C_16
REMARK    3  A    between atoms: C_16  and  O_17
REMARK    4  A    between atoms: O_17  and  P_18
REMARK    5  A    between atoms: P_18  and  O_19
REMARK    6  A    between atoms: P_18  and  O_21
REMARK    7  A    between atoms: O_21  and  P_22
REMARK    8  A    between atoms: P_22  and  O_23
REMARK    9  A    between atoms: P_22  and  O_25
REMARK   10  A    between atoms: O_25  and  P_26
REMARK   11  A    between atoms: P_26  and  O_27
REMARK   12  A    between atoms: P_26  and  S_28
REMARK   13  A    between atoms: C_30  and  O_32
REMARK   14  A    between atoms: C_33  and  O_35
REMARK                            x       y       z     vdW  Elec       q    Type
REMARK                         _______ _______ _______ _____ _____    ______ ____
ROOT
ATOM      1  C   UNL     1       8.052  -5.063  26.014  0.00  0.00    +0.253 C 
ATOM      2  C   UNL     1       8.784  -5.361  24.699  0.00  0.00    +0.195 C 
ATOM      3  C   UNL     1       8.336  -4.248  23.748  0.00  0.00    +0.178 C 
ATOM      4  C   UNL     1       7.586  -3.257  24.643  0.00  0.00    +0.178 C 
ATOM      5  O   UNL     1       7.928  -3.616  26.003  0.00  0.00    -0.346 OA
ENDROOT
BRANCH   1  13
ATOM      6  N   UNL     1       2.779  -7.229  28.092  0.00  0.00    -0.341 N 
ATOM      7  H   UNL     1       2.519  -7.460  27.140  0.00  0.00    +0.144 HD
ATOM      8  H   UNL     1       2.489  -7.867  28.820  0.00  0.00    +0.144 HD
ATOM      9  C   UNL     1       4.112  -6.859  28.224  0.00  0.00    +0.147 A 
ATOM     10  C   UNL     1       4.900  -6.405  27.151  0.00  0.00    +0.147 A 
ATOM     11  N   UNL     1       4.635  -6.235  25.809  0.00  0.00    -0.231 NA
ATOM     12  C   UNL     1       5.753  -5.762  25.304  0.00  0.00    +0.203 A 
ATOM     13  N   UNL     1       6.748  -5.652  26.248  0.00  0.00    -0.286 N 
ATOM     14  C   UNL     1       6.209  -6.048  27.444  0.00  0.00    +0.167 A 
ATOM     15  N   UNL     1       6.800  -6.084  28.649  0.00  0.00    -0.216 NA
ATOM     16  C   UNL     1       5.962  -6.563  29.591  0.00  0.00    +0.225 A 
ATOM     17  N   UNL     1       4.676  -6.951  29.448  0.00  0.00    -0.219 NA
ENDBRANCH   1  13
BRANCH   2  18
ATOM     18  O   UNL     1      10.212  -5.239  24.902  0.00  0.00    -0.385 OA
ATOM     19  H   UNL     1      10.378  -4.454  25.454  0.00  0.00    +0.210 HD
ENDBRANCH   2  18
BRANCH   3  20
ATOM     20  O   UNL     1       7.478  -4.771  22.739  0.00  0.00    -0.386 OA
ATOM     21  H   UNL     1       6.906  -4.052  22.416  0.00  0.00    +0.210 HD
ENDBRANCH   3  20
BRANCH   4  22
ATOM     22  C   UNL     1       7.961  -1.799  24.364  0.00  0.00    +0.206 C 
BRANCH  22  23
ATOM     23  O   UNL     1       9.355  -1.683  24.090  0.00  0.00    -0.284 OA
BRANCH  23  24
ATOM     24  P   UNL     1       9.836  -0.585  23.014  0.00  0.00    +0.483 P 
ATOM     25  O   UNL     1      10.957   0.304  23.443  0.00  0.00    -0.227 OA
BRANCH  24  26
ATOM     26  O   UNL     1      10.251  -1.472  21.745  0.00  0.00    -0.302 OA
ATOM     27  H   UNL     1       9.963  -1.015  20.930  0.00  0.00    +0.222 HD
ENDBRANCH  24  26
BRANCH  24  28
ATOM     28  O   UNL     1       8.515   0.135  22.540  0.00  0.00    -0.186 OA
BRANCH  28  29
ATOM     29  P   UNL     1       8.352   1.857  22.605  0.00  0.00    +0.491 P 
ATOM     30  O   UNL     1       7.042   1.765  21.818  0.00  0.00    -0.226 OA
BRANCH  29  31
ATOM     31  O   UNL     1       9.566   2.010  21.510  0.00  0.00    -0.302 OA
ATOM     32  H   UNL     1      10.438   2.068  21.937  0.00  0.00    +0.222 HD
ENDBRANCH  29  31
BRANCH  29  33
ATOM     33  O   UNL     1       8.189   3.578  22.671  0.00  0.00    -0.200 OA
BRANCH  33  34
ATOM     34  P   UNL     1       9.207   4.227  23.911  0.00  0.00    +0.394 P 
ATOM     35  O   UNL     1       8.926   5.658  23.392  0.00  0.00    -0.246 OA
BRANCH  34  36
ATOM     36  O   UNL     1       9.520   2.627  24.490  0.00  0.00    -0.316 OA
ATOM     37  H   UNL     1      10.293   2.651  25.086  0.00  0.00    +0.221 HD
ENDBRANCH  34  36
BRANCH  34  38
ATOM     38  S   UNL     1       7.910   4.542  25.607  0.00  0.00    -0.058 S 
ATOM     39  H   UNL     1       7.028   5.273  24.911  0.00  0.00    +0.114 HD
ENDBRANCH  34  38
ENDBRANCH  33  34
ENDBRANCH  29  33
ENDBRANCH  28  29
ENDBRANCH  24  28
ENDBRANCH  23  24
ENDBRANCH  22  23
ENDBRANCH   4  22
TORSDOF 14
ENDMDL
