MODEL 1
REMARK VINA RESULT:      -7.4      0.000      0.000
REMARK  Name = 
REMARK  11 active torsions:
REMARK  status: ('A' for Active; 'I' for Inactive)
REMARK    1  A    between atoms: C_2  and  C_3
REMARK    2  A    between atoms: C_2  and  O_26
REMARK    3  A    between atoms: C_2  and  C_29
REMARK    4  A    between atoms: C_3  and  C_4
REMARK    5  A    between atoms: C_7  and  O_8
REMARK    6  A    between atoms: O_8  and  C_9
REMARK    7  A    between atoms: C_9  and  C_10
REMARK    8  A    between atoms: C_10  and  N_11
REMARK    9  A    between atoms: O_26  and  C_27
REMARK   10  A    between atoms: C_27  and  C_28
REMARK   11  A    between atoms: C_29  and  O_30
REMARK                            x       y       z     vdW  Elec       q    Type
REMARK                         _______ _______ _______ _____ _____    ______ ____
ROOT
ATOM      1  O   UNL     1       9.586  -2.397  23.509  0.00  0.00    -0.490 OA
ENDROOT
BRANCH   1   5
ATOM      2  C   UNL     1      10.431   1.720  23.336  0.00  0.00    -0.044 A 
ATOM      3  C   UNL     1      10.034   0.988  22.201  0.00  0.00    +0.007 A 
ATOM      4  C   UNL     1       9.757  -0.383  22.289  0.00  0.00    +0.046 A 
ATOM      5  C   UNL     1       9.843  -1.042  23.510  0.00  0.00    +0.121 A 
ATOM      6  C   UNL     1      10.180  -0.301  24.647  0.00  0.00    +0.046 A 
ATOM      7  C   UNL     1      10.467   1.056  24.561  0.00  0.00    +0.007 A 
BRANCH   2   8
ATOM      8  C   UNL     1      10.795   3.192  23.353  0.00  0.00    +0.078 C 
BRANCH   8   9
ATOM      9  C   UNL     1       9.734   4.182  23.833  0.00  0.00    +0.230 C 
BRANCH   9  10
ATOM     10  C   UNL     1      10.253   5.609  23.618  0.00  0.00    +0.334 C 
ATOM     11  O   UNL     1      11.329   6.029  24.018  0.00  0.00    -0.248 OA
BRANCH  10  12
ATOM     12  O   UNL     1       9.372   6.373  22.923  0.00  0.00    -0.479 OA
ATOM     13  H   UNL     1       9.501   7.308  23.205  0.00  0.00    +0.295 HD
ENDBRANCH  10  12
ENDBRANCH   9  10
BRANCH   9  14
ATOM     14  O   UNL     1       8.454   4.030  23.189  0.00  0.00    -0.365 OA
BRANCH  14  15
ATOM     15  C   UNL     1       7.396   3.710  24.094  0.00  0.00    +0.157 C 
ATOM     16  C   UNL     1       7.964   3.663  25.496  0.00  0.00    +0.034 C 
ENDBRANCH  14  15
ENDBRANCH   9  14
ENDBRANCH   8   9
ENDBRANCH   2   8
ENDBRANCH   1   5
BRANCH   1  17
ATOM     17  C   UNL     1       9.189  -2.885  24.795  0.00  0.00    +0.250 C 
BRANCH  17  18
ATOM     18  C   UNL     1       9.229  -4.398  24.909  0.00  0.00    +0.163 C 
BRANCH  18  19
ATOM     19  N   UNL     1       7.862  -4.915  24.848  0.00  0.00    -0.337 N 
ATOM     20  C   UNL     1       7.191  -5.193  23.669  0.00  0.00    +0.050 A 
ATOM     21  C   UNL     1       7.565  -5.024  22.325  0.00  0.00    +0.026 A 
ATOM     22  C   UNL     1       6.654  -5.397  21.333  0.00  0.00    +0.002 A 
ATOM     23  C   UNL     1       5.412  -5.926  21.664  0.00  0.00    +0.001 A 
ATOM     24  C   UNL     1       5.054  -6.108  23.003  0.00  0.00    +0.010 A 
ATOM     25  C   UNL     1       5.957  -5.741  24.023  0.00  0.00    +0.008 A 
ATOM     26  C   UNL     1       5.909  -5.818  25.448  0.00  0.00    +0.008 A 
ATOM     27  C   UNL     1       4.937  -6.291  26.355  0.00  0.00    +0.010 A 
ATOM     28  C   UNL     1       5.191  -6.251  27.727  0.00  0.00    +0.001 A 
ATOM     29  C   UNL     1       6.403  -5.754  28.200  0.00  0.00    +0.002 A 
ATOM     30  C   UNL     1       7.385  -5.282  27.321  0.00  0.00    +0.026 A 
ATOM     31  C   UNL     1       7.113  -5.311  25.942  0.00  0.00    +0.050 A 
ENDBRANCH  18  19
ENDBRANCH  17  18
ENDBRANCH   1  17
TORSDOF 10
ENDMDL
MODEL 2
REMARK VINA RESULT:      -7.4      1.532      3.661
REMARK  Name = 
REMARK  11 active torsions:
REMARK  status: ('A' for Active; 'I' for Inactive)
REMARK    1  A    between atoms: C_2  and  C_3
REMARK    2  A    between atoms: C_2  and  O_26
REMARK    3  A    between atoms: C_2  and  C_29
REMARK    4  A    between atoms: C_3  and  C_4
REMARK    5  A    between atoms: C_7  and  O_8
REMARK    6  A    between atoms: O_8  and  C_9
REMARK    7  A    between atoms: C_9  and  C_10
REMARK    8  A    between atoms: C_10  and  N_11
REMARK    9  A    between atoms: O_26  and  C_27
REMARK   10  A    between atoms: C_27  and  C_28
REMARK   11  A    between atoms: C_29  and  O_30
REMARK                            x       y       z     vdW  Elec       q    Type
REMARK                         _______ _______ _______ _____ _____    ______ ____
ROOT
ATOM      1  O   UNL     1       9.984  -3.238  23.814  0.00  0.00    -0.490 OA
ENDROOT
BRANCH   1   5
ATOM      2  C   UNL     1       8.506   0.326  22.141  0.00  0.00    -0.044 A 
ATOM      3  C   UNL     1       7.712  -0.505  22.954  0.00  0.00    +0.007 A 
ATOM      4  C   UNL     1       8.233  -1.686  23.500  0.00  0.00    +0.046 A 
ATOM      5  C   UNL     1       9.556  -2.046  23.270  0.00  0.00    +0.121 A 
ATOM      6  C   UNL     1      10.358  -1.189  22.511  0.00  0.00    +0.046 A 
ATOM      7  C   UNL     1       9.843  -0.023  21.958  0.00  0.00    +0.007 A 
BRANCH   2   8
ATOM      8  C   UNL     1       8.040   1.601  21.465  0.00  0.00    +0.078 C 
BRANCH   8   9
ATOM      9  C   UNL     1       8.122   2.901  22.266  0.00  0.00    +0.230 C 
BRANCH   9  10
ATOM     10  C   UNL     1       6.789   3.649  22.136  0.00  0.00    +0.334 C 
ATOM     11  O   UNL     1       5.689   3.154  22.334  0.00  0.00    -0.248 OA
BRANCH  10  12
ATOM     12  O   UNL     1       6.964   4.944  21.771  0.00  0.00    -0.479 OA
ATOM     13  H   UNL     1       6.233   5.468  22.173  0.00  0.00    +0.295 HD
ENDBRANCH  10  12
ENDBRANCH   9  10
BRANCH   9  14
ATOM     14  O   UNL     1       8.438   2.715  23.659  0.00  0.00    -0.365 OA
BRANCH  14  15
ATOM     15  C   UNL     1       9.458   3.598  24.134  0.00  0.00    +0.157 C 
ATOM     16  C   UNL     1      10.752   3.257  23.428  0.00  0.00    +0.034 C 
ENDBRANCH  14  15
ENDBRANCH   9  14
ENDBRANCH   8   9
ENDBRANCH   2   8
ENDBRANCH   1   5
BRANCH   1  17
ATOM     17  C   UNL     1       9.432  -3.482  25.113  0.00  0.00    +0.250 C 
BRANCH  17  18
ATOM     18  C   UNL     1       9.125  -4.945  25.377  0.00  0.00    +0.163 C 
BRANCH  18  19
ATOM     19  N   UNL     1       7.704  -5.184  25.123  0.00  0.00    -0.337 N 
ATOM     20  C   UNL     1       6.718  -5.090  26.089  0.00  0.00    +0.050 A 
ATOM     21  C   UNL     1       6.789  -4.822  27.467  0.00  0.00    +0.026 A 
ATOM     22  C   UNL     1       5.598  -4.800  28.198  0.00  0.00    +0.002 A 
ATOM     23  C   UNL     1       4.374  -5.031  27.581  0.00  0.00    +0.001 A 
ATOM     24  C   UNL     1       4.309  -5.279  26.208  0.00  0.00    +0.010 A 
ATOM     25  C   UNL     1       5.497  -5.305  25.447  0.00  0.00    +0.008 A 
ATOM     26  C   UNL     1       5.766  -5.500  24.058  0.00  0.00    +0.008 A 
ATOM     27  C   UNL     1       4.939  -5.739  22.940  0.00  0.00    +0.010 A 
ATOM     28  C   UNL     1       5.507  -5.873  21.672  0.00  0.00    +0.001 A 
ATOM     29  C   UNL     1       6.886  -5.762  21.508  0.00  0.00    +0.002 A 
ATOM     30  C   UNL     1       7.728  -5.523  22.600  0.00  0.00    +0.026 A 
ATOM     31  C   UNL     1       7.148  -5.406  23.875  0.00  0.00    +0.050 A 
ENDBRANCH  18  19
ENDBRANCH  17  18
ENDBRANCH   1  17
TORSDOF 10
ENDMDL
MODEL 3
REMARK VINA RESULT:      -7.4      0.898      3.216
REMARK  Name = 
REMARK  11 active torsions:
REMARK  status: ('A' for Active; 'I' for Inactive)
REMARK    1  A    between atoms: C_2  and  C_3
REMARK    2  A    between atoms: C_2  and  O_26
REMARK    3  A    between atoms: C_2  and  C_29
REMARK    4  A    between atoms: C_3  and  C_4
REMARK    5  A    between atoms: C_7  and  O_8
REMARK    6  A    between atoms: O_8  and  C_9
REMARK    7  A    between atoms: C_9  and  C_10
REMARK    8  A    between atoms: C_10  and  N_11
REMARK    9  A    between atoms: O_26  and  C_27
REMARK   10  A    between atoms: C_27  and  C_28
REMARK   11  A    between atoms: C_29  and  O_30
REMARK                            x       y       z     vdW  Elec       q    Type
REMARK                         _______ _______ _______ _____ _____    ______ ____
ROOT
ATOM      1  O   UNL     1      10.145  -2.944  23.768  0.00  0.00    -0.490 OA
ENDROOT
BRANCH   1   5
ATOM      2  C   UNL     1       9.863   1.170  22.940  0.00  0.00    -0.044 A 
ATOM      3  C   UNL     1      10.043   0.679  24.248  0.00  0.00    +0.007 A 
ATOM      4  C   UNL     1      10.136  -0.698  24.493  0.00  0.00    +0.046 A 
ATOM      5  C   UNL     1      10.079  -1.607  23.442  0.00  0.00    +0.121 A 
ATOM      6  C   UNL     1       9.959  -1.113  22.139  0.00  0.00    +0.046 A 
ATOM      7  C   UNL     1       9.855   0.250  21.893  0.00  0.00    +0.007 A 
BRANCH   2   8
ATOM      8  C   UNL     1       9.709   2.630  22.561  0.00  0.00    +0.078 C 
BRANCH   8   9
ATOM      9  C   UNL     1       9.819   3.670  23.675  0.00  0.00    +0.230 C 
BRANCH   9  10
ATOM     10  C   UNL     1      11.029   4.570  23.396  0.00  0.00    +0.334 C 
ATOM     11  O   UNL     1      12.194   4.199  23.409  0.00  0.00    -0.248 OA
BRANCH  10  12
ATOM     12  O   UNL     1      10.663   5.849  23.128  0.00  0.00    -0.479 OA
ATOM     13  H   UNL     1       9.820   6.024  23.607  0.00  0.00    +0.295 HD
ENDBRANCH  10  12
ENDBRANCH   9  10
BRANCH   9  14
ATOM     14  O   UNL     1       8.641   4.482  23.840  0.00  0.00    -0.365 OA
BRANCH  14  15
ATOM     15  C   UNL     1       7.607   4.181  22.899  0.00  0.00    +0.157 C 
ATOM     16  C   UNL     1       7.234   5.457  22.176  0.00  0.00    +0.034 C 
ENDBRANCH  14  15
ENDBRANCH   9  14
ENDBRANCH   8   9
ENDBRANCH   2   8
ENDBRANCH   1   5
BRANCH   1  17
ATOM     17  C   UNL     1       9.326  -3.280  24.894  0.00  0.00    +0.250 C 
BRANCH  17  18
ATOM     18  C   UNL     1       9.226  -4.773  25.149  0.00  0.00    +0.163 C 
BRANCH  18  19
ATOM     19  N   UNL     1       7.834  -5.190  24.986  0.00  0.00    -0.337 N 
ATOM     20  C   UNL     1       6.939  -5.330  26.033  0.00  0.00    +0.050 A 
ATOM     21  C   UNL     1       7.104  -5.185  27.421  0.00  0.00    +0.026 A 
ATOM     22  C   UNL     1       5.995  -5.403  28.244  0.00  0.00    +0.002 A 
ATOM     23  C   UNL     1       4.761  -5.749  27.707  0.00  0.00    +0.001 A 
ATOM     24  C   UNL     1       4.601  -5.874  26.325  0.00  0.00    +0.010 A 
ATOM     25  C   UNL     1       5.704  -5.657  25.472  0.00  0.00    +0.008 A 
ATOM     26  C   UNL     1       5.864  -5.681  24.053  0.00  0.00    +0.008 A 
ATOM     27  C   UNL     1       4.974  -5.930  22.987  0.00  0.00    +0.010 A 
ATOM     28  C   UNL     1       5.433  -5.862  21.670  0.00  0.00    +0.001 A 
ATOM     29  C   UNL     1       6.763  -5.539  21.407  0.00  0.00    +0.002 A 
ATOM     30  C   UNL     1       7.664  -5.284  22.448  0.00  0.00    +0.026 A 
ATOM     31  C   UNL     1       7.197  -5.372  23.770  0.00  0.00    +0.050 A 
ENDBRANCH  18  19
ENDBRANCH  17  18
ENDBRANCH   1  17
TORSDOF 10
ENDMDL
MODEL 4
REMARK VINA RESULT:      -7.4      1.355      2.081
REMARK  Name = 
REMARK  11 active torsions:
REMARK  status: ('A' for Active; 'I' for Inactive)
REMARK    1  A    between atoms: C_2  and  C_3
REMARK    2  A    between atoms: C_2  and  O_26
REMARK    3  A    between atoms: C_2  and  C_29
REMARK    4  A    between atoms: C_3  and  C_4
REMARK    5  A    between atoms: C_7  and  O_8
REMARK    6  A    between atoms: O_8  and  C_9
REMARK    7  A    between atoms: C_9  and  C_10
REMARK    8  A    between atoms: C_10  and  N_11
REMARK    9  A    between atoms: O_26  and  C_27
REMARK   10  A    between atoms: C_27  and  C_28
REMARK   11  A    between atoms: C_29  and  O_30
REMARK                            x       y       z     vdW  Elec       q    Type
REMARK                         _______ _______ _______ _____ _____    ______ ____
ROOT
ATOM      1  O   UNL     1      10.068  -2.898  23.768  0.00  0.00    -0.490 OA
ENDROOT
BRANCH   1   5
ATOM      2  C   UNL     1       8.335   0.570  22.136  0.00  0.00    -0.044 A 
ATOM      3  C   UNL     1       9.572   0.069  21.689  0.00  0.00    +0.007 A 
ATOM      4  C   UNL     1      10.125  -1.090  22.250  0.00  0.00    +0.046 A 
ATOM      5  C   UNL     1       9.445  -1.785  23.244  0.00  0.00    +0.121 A 
ATOM      6  C   UNL     1       8.189  -1.319  23.645  0.00  0.00    +0.046 A 
ATOM      7  C   UNL     1       7.643  -0.163  23.100  0.00  0.00    +0.007 A 
BRANCH   2   8
ATOM      8  C   UNL     1       7.662   1.833  21.635  0.00  0.00    +0.078 C 
BRANCH   8   9
ATOM      9  C   UNL     1       8.104   3.164  22.243  0.00  0.00    +0.230 C 
BRANCH   9  10
ATOM     10  C   UNL     1       6.934   4.153  22.175  0.00  0.00    +0.334 C 
ATOM     11  O   UNL     1       7.031   5.362  22.332  0.00  0.00    -0.248 OA
BRANCH  10  12
ATOM     12  O   UNL     1       5.755   3.532  21.917  0.00  0.00    -0.479 OA
ATOM     13  H   UNL     1       5.919   2.861  21.215  0.00  0.00    +0.295 HD
ENDBRANCH  10  12
ENDBRANCH   9  10
BRANCH   9  14
ATOM     14  O   UNL     1       8.573   3.062  23.601  0.00  0.00    -0.365 OA
BRANCH  14  15
ATOM     15  C   UNL     1       9.749   3.833  23.856  0.00  0.00    +0.157 C 
ATOM     16  C   UNL     1      10.948   3.050  23.367  0.00  0.00    +0.034 C 
ENDBRANCH  14  15
ENDBRANCH   9  14
ENDBRANCH   8   9
ENDBRANCH   2   8
ENDBRANCH   1   5
BRANCH   1  17
ATOM     17  C   UNL     1       9.496  -3.319  25.011  0.00  0.00    +0.250 C 
BRANCH  17  18
ATOM     18  C   UNL     1       9.291  -4.819  25.108  0.00  0.00    +0.163 C 
BRANCH  18  19
ATOM     19  N   UNL     1       7.863  -5.112  24.981  0.00  0.00    -0.337 N 
ATOM     20  C   UNL     1       7.212  -5.278  23.771  0.00  0.00    +0.050 A 
ATOM     21  C   UNL     1       7.668  -5.169  22.446  0.00  0.00    +0.026 A 
ATOM     22  C   UNL     1       6.755  -5.391  21.412  0.00  0.00    +0.002 A 
ATOM     23  C   UNL     1       5.431  -5.717  21.683  0.00  0.00    +0.001 A 
ATOM     24  C   UNL     1       4.989  -5.841  23.002  0.00  0.00    +0.010 A 
ATOM     25  C   UNL     1       5.891  -5.624  24.065  0.00  0.00    +0.008 A 
ATOM     26  C   UNL     1       5.766  -5.695  25.485  0.00  0.00    +0.008 A 
ATOM     27  C   UNL     1       4.692  -6.008  26.344  0.00  0.00    +0.010 A 
ATOM     28  C   UNL     1       4.886  -6.011  27.726  0.00  0.00    +0.001 A 
ATOM     29  C   UNL     1       6.140  -5.714  28.258  0.00  0.00    +0.002 A 
ATOM     30  C   UNL     1       7.223  -5.402  27.427  0.00  0.00    +0.026 A 
ATOM     31  C   UNL     1       7.012  -5.386  26.038  0.00  0.00    +0.050 A 
ENDBRANCH  18  19
ENDBRANCH  17  18
ENDBRANCH   1  17
TORSDOF 10
ENDMDL
MODEL 5
REMARK VINA RESULT:      -7.2      2.219      3.807
REMARK  Name = 
REMARK  11 active torsions:
REMARK  status: ('A' for Active; 'I' for Inactive)
REMARK    1  A    between atoms: C_2  and  C_3
REMARK    2  A    between atoms: C_2  and  O_26
REMARK    3  A    between atoms: C_2  and  C_29
REMARK    4  A    between atoms: C_3  and  C_4
REMARK    5  A    between atoms: C_7  and  O_8
REMARK    6  A    between atoms: O_8  and  C_9
REMARK    7  A    between atoms: C_9  and  C_10
REMARK    8  A    between atoms: C_10  and  N_11
REMARK    9  A    between atoms: O_26  and  C_27
REMARK   10  A    between atoms: C_27  and  C_28
REMARK   11  A    between atoms: C_29  and  O_30
REMARK                            x       y       z     vdW  Elec       q    Type
REMARK                         _______ _______ _______ _____ _____    ______ ____
ROOT
ATOM      1  O   UNL     1      10.410  -1.769  22.535  0.00  0.00    -0.490 OA
ENDROOT
BRANCH   1   5
ATOM      2  C   UNL     1      10.052   2.340  23.359  0.00  0.00    -0.044 A 
ATOM      3  C   UNL     1       9.803   1.807  22.080  0.00  0.00    +0.007 A 
ATOM      4  C   UNL     1       9.928   0.434  21.835  0.00  0.00    +0.046 A 
ATOM      5  C   UNL     1      10.276  -0.437  22.863  0.00  0.00    +0.121 A 
ATOM      6  C   UNL     1      10.466   0.087  24.145  0.00  0.00    +0.046 A 
ATOM      7  C   UNL     1      10.354   1.450  24.389  0.00  0.00    +0.007 A 
BRANCH   2   8
ATOM      8  C   UNL     1       9.989   3.809  23.730  0.00  0.00    +0.078 C 
BRANCH   8   9
ATOM      9  C   UNL     1       8.607   4.436  23.916  0.00  0.00    +0.230 C 
BRANCH   9  10
ATOM     10  C   UNL     1       8.388   4.719  25.407  0.00  0.00    +0.334 C 
ATOM     11  O   UNL     1       8.965   5.587  26.047  0.00  0.00    -0.248 OA
BRANCH  10  12
ATOM     12  O   UNL     1       7.466   3.887  25.954  0.00  0.00    -0.479 OA
ATOM     13  H   UNL     1       7.153   3.281  25.244  0.00  0.00    +0.295 HD
ENDBRANCH  10  12
ENDBRANCH   9  10
BRANCH   9  14
ATOM     14  O   UNL     1       8.405   5.646  23.160  0.00  0.00    -0.365 OA
BRANCH  14  15
ATOM     15  C   UNL     1       7.302   5.571  22.253  0.00  0.00    +0.157 C 
ATOM     16  C   UNL     1       6.800   4.144  22.228  0.00  0.00    +0.034 C 
ENDBRANCH  14  15
ENDBRANCH   9  14
ENDBRANCH   8   9
ENDBRANCH   2   8
ENDBRANCH   1   5
BRANCH   1  17
ATOM     17  C   UNL     1       9.666  -2.630  23.405  0.00  0.00    +0.250 C 
BRANCH  17  18
ATOM     18  C   UNL     1       8.221  -2.818  22.982  0.00  0.00    +0.163 C 
BRANCH  18  19
ATOM     19  N   UNL     1       7.352  -2.514  24.119  0.00  0.00    -0.337 N 
ATOM     20  C   UNL     1       7.093  -3.396  25.154  0.00  0.00    +0.050 A 
ATOM     21  C   UNL     1       7.500  -4.724  25.366  0.00  0.00    +0.026 A 
ATOM     22  C   UNL     1       7.064  -5.372  26.526  0.00  0.00    +0.002 A 
ATOM     23  C   UNL     1       6.253  -4.721  27.448  0.00  0.00    +0.001 A 
ATOM     24  C   UNL     1       5.867  -3.394  27.239  0.00  0.00    +0.010 A 
ATOM     25  C   UNL     1       6.296  -2.717  26.077  0.00  0.00    +0.008 A 
ATOM     26  C   UNL     1       6.103  -1.389  25.591  0.00  0.00    +0.008 A 
ATOM     27  C   UNL     1       5.413  -0.268  26.097  0.00  0.00    +0.010 A 
ATOM     28  C   UNL     1       5.420   0.932  25.384  0.00  0.00    +0.001 A 
ATOM     29  C   UNL     1       6.114   1.027  24.180  0.00  0.00    +0.002 A 
ATOM     30  C   UNL     1       6.810  -0.070  23.657  0.00  0.00    +0.026 A 
ATOM     31  C   UNL     1       6.783  -1.278  24.375  0.00  0.00    +0.050 A 
ENDBRANCH  18  19
ENDBRANCH  17  18
ENDBRANCH   1  17
TORSDOF 10
ENDMDL
MODEL 6
REMARK VINA RESULT:      -7.1      2.332      4.230
REMARK  Name = 
REMARK  11 active torsions:
REMARK  status: ('A' for Active; 'I' for Inactive)
REMARK    1  A    between atoms: C_2  and  C_3
REMARK    2  A    between atoms: C_2  and  O_26
REMARK    3  A    between atoms: C_2  and  C_29
REMARK    4  A    between atoms: C_3  and  C_4
REMARK    5  A    between atoms: C_7  and  O_8
REMARK    6  A    between atoms: O_8  and  C_9
REMARK    7  A    between atoms: C_9  and  C_10
REMARK    8  A    between atoms: C_10  and  N_11
REMARK    9  A    between atoms: O_26  and  C_27
REMARK   10  A    between atoms: C_27  and  C_28
REMARK   11  A    between atoms: C_29  and  O_30
REMARK                            x       y       z     vdW  Elec       q    Type
REMARK                         _______ _______ _______ _____ _____    ______ ____
ROOT
ATOM      1  O   UNL     1       5.628  -1.498  27.394  0.00  0.00    -0.490 OA
ENDROOT
BRANCH   1   5
ATOM      2  C   UNL     1       6.924   1.658  24.934  0.00  0.00    -0.044 A 
ATOM      3  C   UNL     1       6.008   0.686  24.487  0.00  0.00    +0.007 A 
ATOM      4  C   UNL     1       5.592  -0.353  25.330  0.00  0.00    +0.046 A 
ATOM      5  C   UNL     1       6.058  -0.429  26.638  0.00  0.00    +0.121 A 
ATOM      6  C   UNL     1       6.921   0.570  27.098  0.00  0.00    +0.046 A 
ATOM      7  C   UNL     1       7.345   1.596  26.262  0.00  0.00    +0.007 A 
BRANCH   2   8
ATOM      8  C   UNL     1       7.474   2.799  24.102  0.00  0.00    +0.078 C 
BRANCH   8   9
ATOM      9  C   UNL     1       8.897   2.662  23.560  0.00  0.00    +0.230 C 
BRANCH   9  10
ATOM     10  C   UNL     1       8.829   2.210  22.096  0.00  0.00    +0.334 C 
ATOM     11  O   UNL     1       7.809   1.863  21.518  0.00  0.00    -0.248 OA
BRANCH  10  12
ATOM     12  O   UNL     1      10.047   2.235  21.497  0.00  0.00    -0.479 OA
ATOM     13  H   UNL     1      10.560   1.463  21.833  0.00  0.00    +0.295 HD
ENDBRANCH  10  12
ENDBRANCH   9  10
BRANCH   9  14
ATOM     14  O   UNL     1       9.681   3.867  23.658  0.00  0.00    -0.365 OA
BRANCH  14  15
ATOM     15  C   UNL     1       8.893   5.044  23.850  0.00  0.00    +0.157 C 
ATOM     16  C   UNL     1       9.771   6.251  23.602  0.00  0.00    +0.034 C 
ENDBRANCH  14  15
ENDBRANCH   9  14
ENDBRANCH   8   9
ENDBRANCH   2   8
ENDBRANCH   1   5
BRANCH   1  17
ATOM     17  C   UNL     1       5.624  -2.728  26.660  0.00  0.00    +0.250 C 
BRANCH  17  18
ATOM     18  C   UNL     1       6.987  -3.391  26.579  0.00  0.00    +0.163 C 
BRANCH  18  19
ATOM     19  N   UNL     1       7.396  -3.463  25.176  0.00  0.00    -0.337 N 
ATOM     20  C   UNL     1       6.840  -4.329  24.251  0.00  0.00    +0.050 A 
ATOM     21  C   UNL     1       5.862  -5.329  24.384  0.00  0.00    +0.026 A 
ATOM     22  C   UNL     1       5.503  -6.060  23.248  0.00  0.00    +0.002 A 
ATOM     23  C   UNL     1       6.093  -5.803  22.016  0.00  0.00    +0.001 A 
ATOM     24  C   UNL     1       7.052  -4.795  21.887  0.00  0.00    +0.010 A 
ATOM     25  C   UNL     1       7.430  -4.042  23.019  0.00  0.00    +0.008 A 
ATOM     26  C   UNL     1       8.336  -2.956  23.214  0.00  0.00    +0.008 A 
ATOM     27  C   UNL     1       9.185  -2.240  22.344  0.00  0.00    +0.010 A 
ATOM     28  C   UNL     1       9.960  -1.190  22.838  0.00  0.00    +0.001 A 
ATOM     29  C   UNL     1       9.889  -0.841  24.185  0.00  0.00    +0.002 A 
ATOM     30  C   UNL     1       9.052  -1.533  25.069  0.00  0.00    +0.026 A 
ATOM     31  C   UNL     1       8.289  -2.600  24.565  0.00  0.00    +0.050 A 
ENDBRANCH  18  19
ENDBRANCH  17  18
ENDBRANCH   1  17
TORSDOF 10
ENDMDL
MODEL 7
REMARK VINA RESULT:      -7.1      2.982      8.758
REMARK  Name = 
REMARK  11 active torsions:
REMARK  status: ('A' for Active; 'I' for Inactive)
REMARK    1  A    between atoms: C_2  and  C_3
REMARK    2  A    between atoms: C_2  and  O_26
REMARK    3  A    between atoms: C_2  and  C_29
REMARK    4  A    between atoms: C_3  and  C_4
REMARK    5  A    between atoms: C_7  and  O_8
REMARK    6  A    between atoms: O_8  and  C_9
REMARK    7  A    between atoms: C_9  and  C_10
REMARK    8  A    between atoms: C_10  and  N_11
REMARK    9  A    between atoms: O_26  and  C_27
REMARK   10  A    between atoms: C_27  and  C_28
REMARK   11  A    between atoms: C_29  and  O_30
REMARK                            x       y       z     vdW  Elec       q    Type
REMARK                         _______ _______ _______ _____ _____    ______ ____
ROOT
ATOM      1  O   UNL     1      10.273  -1.182  22.172  0.00  0.00    -0.490 OA
ENDROOT
BRANCH   1   5
ATOM      2  C   UNL     1       7.834  -3.960  24.179  0.00  0.00    -0.044 A 
ATOM      3  C   UNL     1       7.391  -3.257  23.042  0.00  0.00    +0.007 A 
ATOM      4  C   UNL     1       8.227  -2.339  22.392  0.00  0.00    +0.046 A 
ATOM      5  C   UNL     1       9.524  -2.124  22.845  0.00  0.00    +0.121 A 
ATOM      6  C   UNL     1       9.981  -2.866  23.938  0.00  0.00    +0.046 A 
ATOM      7  C   UNL     1       9.151  -3.768  24.593  0.00  0.00    +0.007 A 
BRANCH   2   8
ATOM      8  C   UNL     1       7.007  -4.942  24.985  0.00  0.00    +0.078 C 
BRANCH   8   9
ATOM      9  C   UNL     1       6.424  -4.460  26.313  0.00  0.00    +0.230 C 
BRANCH   9  10
ATOM     10  C   UNL     1       7.009  -5.309  27.449  0.00  0.00    +0.334 C 
ATOM     11  O   UNL     1       6.545  -5.382  28.577  0.00  0.00    -0.248 OA
BRANCH  10  12
ATOM     12  O   UNL     1       8.121  -5.984  27.061  0.00  0.00    -0.479 OA
ATOM     13  H   UNL     1       8.895  -5.392  27.208  0.00  0.00    +0.295 HD
ENDBRANCH  10  12
ENDBRANCH   9  10
BRANCH   9  14
ATOM     14  O   UNL     1       6.656  -3.065  26.584  0.00  0.00    -0.365 OA
BRANCH  14  15
ATOM     15  C   UNL     1       5.463  -2.339  26.890  0.00  0.00    +0.157 C 
ATOM     16  C   UNL     1       4.688  -2.133  25.607  0.00  0.00    +0.034 C 
ENDBRANCH  14  15
ENDBRANCH   9  14
ENDBRANCH   8   9
ENDBRANCH   2   8
ENDBRANCH   1   5
BRANCH   1  17
ATOM     17  C   UNL     1       9.851   0.159  22.448  0.00  0.00    +0.250 C 
BRANCH  17  18
ATOM     18  C   UNL     1      10.537   0.775  23.653  0.00  0.00    +0.163 C 
BRANCH  18  19
ATOM     19  N   UNL     1       9.776   1.949  24.083  0.00  0.00    -0.337 N 
ATOM     20  C   UNL     1       8.598   1.886  24.806  0.00  0.00    +0.050 A 
ATOM     21  C   UNL     1       7.834   0.791  25.245  0.00  0.00    +0.026 A 
ATOM     22  C   UNL     1       6.663   1.048  25.964  0.00  0.00    +0.002 A 
ATOM     23  C   UNL     1       6.264   2.350  26.242  0.00  0.00    +0.001 A 
ATOM     24  C   UNL     1       7.038   3.433  25.818  0.00  0.00    +0.010 A 
ATOM     25  C   UNL     1       8.226   3.201  25.092  0.00  0.00    +0.008 A 
ATOM     26  C   UNL     1       9.227   4.063  24.551  0.00  0.00    +0.008 A 
ATOM     27  C   UNL     1       9.392   5.464  24.545  0.00  0.00    +0.010 A 
ATOM     28  C   UNL     1      10.513   6.028  23.934  0.00  0.00    +0.001 A 
ATOM     29  C   UNL     1      11.473   5.211  23.340  0.00  0.00    +0.002 A 
ATOM     30  C   UNL     1      11.334   3.818  23.335  0.00  0.00    +0.026 A 
ATOM     31  C   UNL     1      10.193   3.261  23.938  0.00  0.00    +0.050 A 
ENDBRANCH  18  19
ENDBRANCH  17  18
ENDBRANCH   1  17
TORSDOF 10
ENDMDL
MODEL 8
REMARK VINA RESULT:      -7.1      2.215      3.501
REMARK  Name = 
REMARK  11 active torsions:
REMARK  status: ('A' for Active; 'I' for Inactive)
REMARK    1  A    between atoms: C_2  and  C_3
REMARK    2  A    between atoms: C_2  and  O_26
REMARK    3  A    between atoms: C_2  and  C_29
REMARK    4  A    between atoms: C_3  and  C_4
REMARK    5  A    between atoms: C_7  and  O_8
REMARK    6  A    between atoms: O_8  and  C_9
REMARK    7  A    between atoms: C_9  and  C_10
REMARK    8  A    between atoms: C_10  and  N_11
REMARK    9  A    between atoms: O_26  and  C_27
REMARK   10  A    between atoms: C_27  and  C_28
REMARK   11  A    between atoms: C_29  and  O_30
REMARK                            x       y       z     vdW  Elec       q    Type
REMARK                         _______ _______ _______ _____ _____    ______ ____
ROOT
ATOM      1  O   UNL     1      10.366  -1.829  22.478  0.00  0.00    -0.490 OA
ENDROOT
BRANCH   1   5
ATOM      2  C   UNL     1      10.010   2.233  23.507  0.00  0.00    -0.044 A 
ATOM      3  C   UNL     1      10.434   1.260  24.432  0.00  0.00    +0.007 A 
ATOM      4  C   UNL     1      10.546  -0.086  24.060  0.00  0.00    +0.046 A 
ATOM      5  C   UNL     1      10.264  -0.483  22.757  0.00  0.00    +0.121 A 
ATOM      6  C   UNL     1       9.900   0.494  21.826  0.00  0.00    +0.046 A 
ATOM      7  C   UNL     1       9.777   1.828  22.193  0.00  0.00    +0.007 A 
BRANCH   2   8
ATOM      8  C   UNL     1       9.814   3.707  23.806  0.00  0.00    +0.078 C 
BRANCH   8   9
ATOM      9  C   UNL     1       8.383   4.209  23.996  0.00  0.00    +0.230 C 
BRANCH   9  10
ATOM     10  C   UNL     1       8.150   4.493  25.485  0.00  0.00    +0.334 C 
ATOM     11  O   UNL     1       7.334   3.913  26.188  0.00  0.00    -0.248 OA
BRANCH  10  12
ATOM     12  O   UNL     1       8.962   5.476  25.950  0.00  0.00    -0.479 OA
ATOM     13  H   UNL     1       8.468   5.964  26.650  0.00  0.00    +0.295 HD
ENDBRANCH  10  12
ENDBRANCH   9  10
BRANCH   9  14
ATOM     14  O   UNL     1       8.065   5.384  23.225  0.00  0.00    -0.365 OA
BRANCH  14  15
ATOM     15  C   UNL     1       6.790   5.315  22.582  0.00  0.00    +0.157 C 
ATOM     16  C   UNL     1       6.563   3.891  22.124  0.00  0.00    +0.034 C 
ENDBRANCH  14  15
ENDBRANCH   9  14
ENDBRANCH   8   9
ENDBRANCH   2   8
ENDBRANCH   1   5
BRANCH   1  17
ATOM     17  C   UNL     1       9.672  -2.645  23.428  0.00  0.00    +0.250 C 
BRANCH  17  18
ATOM     18  C   UNL     1       8.197  -2.819  23.117  0.00  0.00    +0.163 C 
BRANCH  18  19
ATOM     19  N   UNL     1       7.419  -2.497  24.313  0.00  0.00    -0.337 N 
ATOM     20  C   UNL     1       6.821  -1.270  24.541  0.00  0.00    +0.050 A 
ATOM     21  C   UNL     1       6.832  -0.078  23.797  0.00  0.00    +0.026 A 
ATOM     22  C   UNL     1       6.126   1.020  24.296  0.00  0.00    +0.002 A 
ATOM     23  C   UNL     1       5.426   0.937  25.495  0.00  0.00    +0.001 A 
ATOM     24  C   UNL     1       5.405  -0.257  26.220  0.00  0.00    +0.010 A 
ATOM     25  C   UNL     1       6.109  -1.380  25.737  0.00  0.00    +0.008 A 
ATOM     26  C   UNL     1       6.264  -2.717  26.213  0.00  0.00    +0.008 A 
ATOM     27  C   UNL     1       5.769  -3.402  27.343  0.00  0.00    +0.010 A 
ATOM     28  C   UNL     1       6.088  -4.747  27.534  0.00  0.00    +0.001 A 
ATOM     29  C   UNL     1       6.885  -5.416  26.608  0.00  0.00    +0.002 A 
ATOM     30  C   UNL     1       7.386  -4.761  25.477  0.00  0.00    +0.026 A 
ATOM     31  C   UNL     1       7.073  -3.402  25.302  0.00  0.00    +0.050 A 
ENDBRANCH  18  19
ENDBRANCH  17  18
ENDBRANCH   1  17
TORSDOF 10
ENDMDL
MODEL 9
REMARK VINA RESULT:      -7.0      2.977      9.105
REMARK  Name = 
REMARK  11 active torsions:
REMARK  status: ('A' for Active; 'I' for Inactive)
REMARK    1  A    between atoms: C_2  and  C_3
REMARK    2  A    between atoms: C_2  and  O_26
REMARK    3  A    between atoms: C_2  and  C_29
REMARK    4  A    between atoms: C_3  and  C_4
REMARK    5  A    between atoms: C_7  and  O_8
REMARK    6  A    between atoms: O_8  and  C_9
REMARK    7  A    between atoms: C_9  and  C_10
REMARK    8  A    between atoms: C_10  and  N_11
REMARK    9  A    between atoms: O_26  and  C_27
REMARK   10  A    between atoms: C_27  and  C_28
REMARK   11  A    between atoms: C_29  and  O_30
REMARK                            x       y       z     vdW  Elec       q    Type
REMARK                         _______ _______ _______ _____ _____    ______ ____
ROOT
ATOM      1  O   UNL     1      10.315  -1.394  22.439  0.00  0.00    -0.490 OA
ENDROOT
BRANCH   1   5
ATOM      2  C   UNL     1       7.278  -3.544  24.399  0.00  0.00    -0.044 A 
ATOM      3  C   UNL     1       8.634  -3.665  24.759  0.00  0.00    +0.007 A 
ATOM      4  C   UNL     1       9.624  -2.934  24.090  0.00  0.00    +0.046 A 
ATOM      5  C   UNL     1       9.281  -2.052  23.071  0.00  0.00    +0.121 A 
ATOM      6  C   UNL     1       7.929  -1.890  22.755  0.00  0.00    +0.046 A 
ATOM      7  C   UNL     1       6.945  -2.622  23.408  0.00  0.00    +0.007 A 
BRANCH   2   8
ATOM      8  C   UNL     1       6.129  -4.313  25.022  0.00  0.00    +0.078 C 
BRANCH   8   9
ATOM      9  C   UNL     1       6.461  -5.596  25.783  0.00  0.00    +0.230 C 
BRANCH   9  10
ATOM     10  C   UNL     1       6.912  -5.229  27.202  0.00  0.00    +0.334 C 
ATOM     11  O   UNL     1       6.373  -4.392  27.912  0.00  0.00    -0.248 OA
BRANCH  10  12
ATOM     12  O   UNL     1       7.995  -5.947  27.595  0.00  0.00    -0.479 OA
ATOM     13  H   UNL     1       8.112  -5.803  28.563  0.00  0.00    +0.295 HD
ENDBRANCH  10  12
ENDBRANCH   9  10
BRANCH   9  14
ATOM     14  O   UNL     1       5.372  -6.538  25.850  0.00  0.00    -0.365 OA
BRANCH  14  15
ATOM     15  C   UNL     1       4.626  -6.632  24.634  0.00  0.00    +0.157 C 
ATOM     16  C   UNL     1       3.346  -7.386  24.917  0.00  0.00    +0.034 C 
ENDBRANCH  14  15
ENDBRANCH   9  14
ENDBRANCH   8   9
ENDBRANCH   2   8
ENDBRANCH   1   5
BRANCH   1  17
ATOM     17  C   UNL     1      10.202   0.031  22.531  0.00  0.00    +0.250 C 
BRANCH  17  18
ATOM     18  C   UNL     1      10.654   0.591  23.867  0.00  0.00    +0.163 C 
BRANCH  18  19
ATOM     19  N   UNL     1       9.834   1.758  24.194  0.00  0.00    -0.337 N 
ATOM     20  C   UNL     1       8.629   1.692  24.872  0.00  0.00    +0.050 A 
ATOM     21  C   UNL     1       7.887   0.597  25.345  0.00  0.00    +0.026 A 
ATOM     22  C   UNL     1       6.678   0.850  25.999  0.00  0.00    +0.002 A 
ATOM     23  C   UNL     1       6.221   2.150  26.182  0.00  0.00    +0.001 A 
ATOM     24  C   UNL     1       6.973   3.235  25.725  0.00  0.00    +0.010 A 
ATOM     25  C   UNL     1       8.198   3.006  25.063  0.00  0.00    +0.008 A 
ATOM     26  C   UNL     1       9.190   3.873  24.512  0.00  0.00    +0.008 A 
ATOM     27  C   UNL     1       9.304   5.277  24.428  0.00  0.00    +0.010 A 
ATOM     28  C   UNL     1      10.429   5.847  23.830  0.00  0.00    +0.001 A 
ATOM     29  C   UNL     1      11.442   5.034  23.325  0.00  0.00    +0.002 A 
ATOM     30  C   UNL     1      11.354   3.638  23.398  0.00  0.00    +0.026 A 
ATOM     31  C   UNL     1      10.209   3.074  23.987  0.00  0.00    +0.050 A 
ENDBRANCH  18  19
ENDBRANCH  17  18
ENDBRANCH   1  17
TORSDOF 10
ENDMDL
