MODEL 1
REMARK VINA RESULT:      -7.0      0.000      0.000
REMARK  Name = 
REMARK  7 active torsions:
REMARK  status: ('A' for Active; 'I' for Inactive)
REMARK    1  A    between atoms: O_1  and  P_2
REMARK    2  A    between atoms: P_2  and  O_3
REMARK    3  A    between atoms: P_2  and  O_5
REMARK    4  A    between atoms: O_5  and  C_6
REMARK    5  A    between atoms: C_6  and  N_7
REMARK    6  A    between atoms: C_11  and  C_14
REMARK    7  A    between atoms: C_11  and  C_20
REMARK                            x       y       z     vdW  Elec       q    Type
REMARK                         _______ _______ _______ _____ _____    ______ ____
ROOT
ATOM      1  N   UNL     1       5.947  -3.057  26.284  0.00  0.00    -0.199 N 
ATOM      2  C   UNL     1       7.122  -3.362  25.644  0.00  0.00    +0.257 C 
ATOM      3  O   UNL     1       7.999  -4.095  26.084  0.00  0.00    -0.272 OA
ATOM      4  C   UNL     1       7.122  -2.666  24.237  0.00  0.00    +0.164 C 
ATOM      5  N   UNL     1       5.902  -1.899  24.391  0.00  0.00    -0.277 N 
ATOM      6  H   UNL     1       5.581  -1.200  23.737  0.00  0.00    +0.152 HD
ATOM      7  C   UNL     1       5.241  -2.151  25.563  0.00  0.00    +0.312 C 
ATOM      8  O   UNL     1       4.188  -1.615  25.869  0.00  0.00    -0.252 OA
ENDROOT
BRANCH   4   9
ATOM      9  C   UNL     1       6.993  -3.774  23.174  0.00  0.00    -0.011 A 
ATOM     10  C   UNL     1       7.696  -4.984  23.338  0.00  0.00    +0.006 A 
ATOM     11  C   UNL     1       7.545  -6.035  22.432  0.00  0.00    +0.000 A 
ATOM     12  C   UNL     1       6.689  -5.899  21.344  0.00  0.00    +0.000 A 
ATOM     13  C   UNL     1       5.992  -4.709  21.154  0.00  0.00    +0.000 A 
ATOM     14  C   UNL     1       6.142  -3.654  22.058  0.00  0.00    +0.006 A 
ENDBRANCH   4   9
BRANCH   4  15
ATOM     15  C   UNL     1       8.259  -1.665  23.978  0.00  0.00    -0.011 A 
ATOM     16  C   UNL     1       8.694  -0.803  25.008  0.00  0.00    +0.006 A 
ATOM     17  C   UNL     1       9.798   0.040  24.838  0.00  0.00    +0.000 A 
ATOM     18  C   UNL     1      10.500   0.030  23.638  0.00  0.00    +0.000 A 
ATOM     19  C   UNL     1      10.092  -0.812  22.607  0.00  0.00    +0.000 A 
ATOM     20  C   UNL     1       8.984  -1.652  22.773  0.00  0.00    +0.006 A 
ENDBRANCH   4  15
BRANCH   1  21
ATOM     21  C   UNL     1       5.509  -3.603  27.547  0.00  0.00    +0.292 C 
BRANCH  21  22
ATOM     22  O   UNL     1       5.334  -4.993  27.401  0.00  0.00    -0.267 OA
BRANCH  22  23
ATOM     23  P   UNL     1       6.038  -5.988  28.428  0.00  0.00    +0.474 P 
ATOM     24  O   UNL     1       6.013  -5.555  29.854  0.00  0.00    -0.227 OA
BRANCH  23  25
ATOM     25  O   UNL     1       7.533  -6.241  27.949  0.00  0.00    -0.303 OA
ATOM     26  H   UNL     1       7.951  -5.402  27.679  0.00  0.00    +0.222 HD
ENDBRANCH  23  25
BRANCH  23  27
ATOM     27  O   UNL     1       5.365  -7.422  28.254  0.00  0.00    -0.303 OA
ATOM     28  H   UNL     1       5.952  -8.120  28.606  0.00  0.00    +0.222 HD
ENDBRANCH  23  27
ENDBRANCH  22  23
ENDBRANCH  21  22
ENDBRANCH   1  21
TORSDOF 7
ENDMDL
MODEL 2
REMARK VINA RESULT:      -7.0      4.372      6.533
REMARK  Name = 
REMARK  7 active torsions:
REMARK  status: ('A' for Active; 'I' for Inactive)
REMARK    1  A    between atoms: O_1  and  P_2
REMARK    2  A    between atoms: P_2  and  O_3
REMARK    3  A    between atoms: P_2  and  O_5
REMARK    4  A    between atoms: O_5  and  C_6
REMARK    5  A    between atoms: C_6  and  N_7
REMARK    6  A    between atoms: C_11  and  C_14
REMARK    7  A    between atoms: C_11  and  C_20
REMARK                            x       y       z     vdW  Elec       q    Type
REMARK                         _______ _______ _______ _____ _____    ______ ____
ROOT
ATOM      1  N   UNL     1       9.815  -0.003  23.553  0.00  0.00    -0.199 N 
ATOM      2  C   UNL     1       9.602   1.125  22.800  0.00  0.00    +0.257 C 
ATOM      3  O   UNL     1       9.725   1.197  21.583  0.00  0.00    -0.272 OA
ATOM      4  C   UNL     1       9.118   2.277  23.750  0.00  0.00    +0.164 C 
ATOM      5  N   UNL     1       9.293   1.587  25.012  0.00  0.00    -0.277 N 
ATOM      6  H   UNL     1       9.201   2.023  25.917  0.00  0.00    +0.152 HD
ATOM      7  C   UNL     1       9.679   0.281  24.872  0.00  0.00    +0.312 C 
ATOM      8  O   UNL     1       9.862  -0.469  25.818  0.00  0.00    -0.252 OA
ENDROOT
BRANCH   4   9
ATOM      9  C   UNL     1       7.636   2.550  23.425  0.00  0.00    -0.011 A 
ATOM     10  C   UNL     1       6.637   2.144  24.333  0.00  0.00    +0.006 A 
ATOM     11  C   UNL     1       5.292   2.440  24.104  0.00  0.00    +0.000 A 
ATOM     12  C   UNL     1       4.917   3.145  22.965  0.00  0.00    +0.000 A 
ATOM     13  C   UNL     1       5.885   3.546  22.048  0.00  0.00    +0.000 A 
ATOM     14  C   UNL     1       7.232   3.251  22.273  0.00  0.00    +0.006 A 
ENDBRANCH   4   9
BRANCH   4  15
ATOM     15  C   UNL     1      10.001   3.534  23.791  0.00  0.00    -0.011 A 
ATOM     16  C   UNL     1      11.342   3.474  23.352  0.00  0.00    +0.006 A 
ATOM     17  C   UNL     1      12.137   4.623  23.274  0.00  0.00    +0.000 A 
ATOM     18  C   UNL     1      11.605   5.860  23.620  0.00  0.00    +0.000 A 
ATOM     19  C   UNL     1      10.285   5.946  24.055  0.00  0.00    +0.000 A 
ATOM     20  C   UNL     1       9.489   4.797  24.139  0.00  0.00    +0.006 A 
ENDBRANCH   4  15
BRANCH   1  21
ATOM     21  C   UNL     1      10.147  -1.310  23.038  0.00  0.00    +0.292 C 
BRANCH  21  22
ATOM     22  O   UNL     1       8.954  -2.026  22.822  0.00  0.00    -0.267 OA
BRANCH  22  23
ATOM     23  P   UNL     1       8.584  -3.247  23.778  0.00  0.00    +0.474 P 
ATOM     24  O   UNL     1       7.774  -4.328  23.147  0.00  0.00    -0.227 OA
BRANCH  23  25
ATOM     25  O   UNL     1       7.848  -2.680  25.068  0.00  0.00    -0.303 OA
ATOM     26  H   UNL     1       8.352  -1.937  25.450  0.00  0.00    +0.222 HD
ENDBRANCH  23  25
BRANCH  23  27
ATOM     27  O   UNL     1       9.943  -3.827  24.376  0.00  0.00    -0.303 OA
ATOM     28  H   UNL     1       9.768  -4.337  25.190  0.00  0.00    +0.222 HD
ENDBRANCH  23  27
ENDBRANCH  22  23
ENDBRANCH  21  22
ENDBRANCH   1  21
TORSDOF 7
ENDMDL
MODEL 3
REMARK VINA RESULT:      -7.0      2.902      4.881
REMARK  Name = 
REMARK  7 active torsions:
REMARK  status: ('A' for Active; 'I' for Inactive)
REMARK    1  A    between atoms: O_1  and  P_2
REMARK    2  A    between atoms: P_2  and  O_3
REMARK    3  A    between atoms: P_2  and  O_5
REMARK    4  A    between atoms: O_5  and  C_6
REMARK    5  A    between atoms: C_6  and  N_7
REMARK    6  A    between atoms: C_11  and  C_14
REMARK    7  A    between atoms: C_11  and  C_20
REMARK                            x       y       z     vdW  Elec       q    Type
REMARK                         _______ _______ _______ _____ _____    ______ ____
ROOT
ATOM      1  N   UNL     1       8.071  -3.794  23.532  0.00  0.00    -0.199 N 
ATOM      2  C   UNL     1       7.535  -2.562  23.251  0.00  0.00    +0.257 C 
ATOM      3  O   UNL     1       6.655  -2.343  22.427  0.00  0.00    -0.272 OA
ATOM      4  C   UNL     1       8.193  -1.500  24.202  0.00  0.00    +0.164 C 
ATOM      5  N   UNL     1       9.183  -2.364  24.815  0.00  0.00    -0.277 N 
ATOM      6  H   UNL     1       9.918  -2.043  25.427  0.00  0.00    +0.152 HD
ATOM      7  C   UNL     1       9.083  -3.673  24.426  0.00  0.00    +0.312 C 
ATOM      8  O   UNL     1       9.817  -4.554  24.844  0.00  0.00    -0.252 OA
ENDROOT
BRANCH   4   9
ATOM      9  C   UNL     1       7.111  -1.041  25.199  0.00  0.00    -0.011 A 
ATOM     10  C   UNL     1       6.314   0.080  24.895  0.00  0.00    +0.006 A 
ATOM     11  C   UNL     1       5.278   0.479  25.743  0.00  0.00    +0.000 A 
ATOM     12  C   UNL     1       5.018  -0.234  26.909  0.00  0.00    +0.000 A 
ATOM     13  C   UNL     1       5.799  -1.338  27.235  0.00  0.00    +0.000 A 
ATOM     14  C   UNL     1       6.839  -1.739  26.392  0.00  0.00    +0.006 A 
ENDBRANCH   4   9
BRANCH   4  15
ATOM     15  C   UNL     1       8.952  -0.355  23.514  0.00  0.00    -0.011 A 
ATOM     16  C   UNL     1       8.736  -0.083  22.146  0.00  0.00    +0.006 A 
ATOM     17  C   UNL     1       9.327   1.020  21.518  0.00  0.00    +0.000 A 
ATOM     18  C   UNL     1      10.136   1.883  22.249  0.00  0.00    +0.000 A 
ATOM     19  C   UNL     1      10.363   1.637  23.601  0.00  0.00    +0.000 A 
ATOM     20  C   UNL     1       9.777   0.531  24.229  0.00  0.00    +0.006 A 
ENDBRANCH   4  15
BRANCH   1  21
ATOM     21  C   UNL     1       7.642  -5.049  22.962  0.00  0.00    +0.292 C 
BRANCH  21  22
ATOM     22  O   UNL     1       6.525  -5.514  23.683  0.00  0.00    -0.267 OA
BRANCH  22  23
ATOM     23  P   UNL     1       5.193  -5.910  22.903  0.00  0.00    +0.474 P 
ATOM     24  O   UNL     1       4.175  -4.828  22.789  0.00  0.00    -0.227 OA
BRANCH  23  25
ATOM     25  O   UNL     1       4.563  -7.197  23.592  0.00  0.00    -0.303 OA
ATOM     26  H   UNL     1       4.158  -7.780  22.922  0.00  0.00    +0.222 HD
ENDBRANCH  23  25
BRANCH  23  27
ATOM     27  O   UNL     1       5.614  -6.452  21.464  0.00  0.00    -0.303 OA
ATOM     28  H   UNL     1       5.885  -5.712  20.887  0.00  0.00    +0.222 HD
ENDBRANCH  23  27
ENDBRANCH  22  23
ENDBRANCH  21  22
ENDBRANCH   1  21
TORSDOF 7
ENDMDL
MODEL 4
REMARK VINA RESULT:      -6.9      5.682      8.417
REMARK  Name = 
REMARK  7 active torsions:
REMARK  status: ('A' for Active; 'I' for Inactive)
REMARK    1  A    between atoms: O_1  and  P_2
REMARK    2  A    between atoms: P_2  and  O_3
REMARK    3  A    between atoms: P_2  and  O_5
REMARK    4  A    between atoms: O_5  and  C_6
REMARK    5  A    between atoms: C_6  and  N_7
REMARK    6  A    between atoms: C_11  and  C_14
REMARK    7  A    between atoms: C_11  and  C_20
REMARK                            x       y       z     vdW  Elec       q    Type
REMARK                         _______ _______ _______ _____ _____    ______ ____
ROOT
ATOM      1  N   UNL     1       8.531   1.603  23.627  0.00  0.00    -0.199 N 
ATOM      2  C   UNL     1       8.415   2.788  24.309  0.00  0.00    +0.257 C 
ATOM      3  O   UNL     1       8.227   2.896  25.515  0.00  0.00    -0.272 OA
ATOM      4  C   UNL     1       8.627   3.971  23.298  0.00  0.00    +0.164 C 
ATOM      5  N   UNL     1       8.688   3.187  22.080  0.00  0.00    -0.277 N 
ATOM      6  H   UNL     1       8.703   3.580  21.150  0.00  0.00    +0.152 HD
ATOM      7  C   UNL     1       8.645   1.837  22.296  0.00  0.00    +0.312 C 
ATOM      8  O   UNL     1       8.700   1.012  21.398  0.00  0.00    -0.252 OA
ENDROOT
BRANCH   4   9
ATOM      9  C   UNL     1       9.974   4.635  23.642  0.00  0.00    -0.011 A 
ATOM     10  C   UNL     1      11.174   4.064  23.172  0.00  0.00    +0.006 A 
ATOM     11  C   UNL     1      12.405   4.680  23.404  0.00  0.00    +0.000 A 
ATOM     12  C   UNL     1      12.463   5.878  24.109  0.00  0.00    +0.000 A 
ATOM     13  C   UNL     1      11.293   6.455  24.593  0.00  0.00    +0.000 A 
ATOM     14  C   UNL     1      10.059   5.841  24.365  0.00  0.00    +0.006 A 
ENDBRANCH   4   9
BRANCH   4  15
ATOM     15  C   UNL     1       7.453   4.952  23.151  0.00  0.00    -0.011 A 
ATOM     16  C   UNL     1       7.507   5.982  22.187  0.00  0.00    +0.006 A 
ATOM     17  C   UNL     1       6.411   6.821  21.953  0.00  0.00    +0.000 A 
ATOM     18  C   UNL     1       5.232   6.638  22.668  0.00  0.00    +0.000 A 
ATOM     19  C   UNL     1       5.154   5.627  23.622  0.00  0.00    +0.000 A 
ATOM     20  C   UNL     1       6.251   4.791  23.862  0.00  0.00    +0.006 A 
ENDBRANCH   4  15
BRANCH   1  21
ATOM     21  C   UNL     1       8.524   0.286  24.219  0.00  0.00    +0.292 C 
BRANCH  21  22
ATOM     22  O   UNL     1       9.733  -0.359  23.897  0.00  0.00    -0.267 OA
BRANCH  22  23
ATOM     23  P   UNL     1       9.704  -1.727  23.079  0.00  0.00    +0.474 P 
ATOM     24  O   UNL     1      10.185  -2.925  23.823  0.00  0.00    -0.227 OA
BRANCH  23  25
ATOM     25  O   UNL     1      10.533  -1.535  21.736  0.00  0.00    -0.303 OA
ATOM     26  H   UNL     1      10.554  -0.594  21.479  0.00  0.00    +0.222 HD
ENDBRANCH  23  25
BRANCH  23  27
ATOM     27  O   UNL     1       8.217  -1.943  22.547  0.00  0.00    -0.303 OA
ATOM     28  H   UNL     1       7.662  -2.348  23.241  0.00  0.00    +0.222 HD
ENDBRANCH  23  27
ENDBRANCH  22  23
ENDBRANCH  21  22
ENDBRANCH   1  21
TORSDOF 7
ENDMDL
MODEL 5
REMARK VINA RESULT:      -6.6      5.655      8.007
REMARK  Name = 
REMARK  7 active torsions:
REMARK  status: ('A' for Active; 'I' for Inactive)
REMARK    1  A    between atoms: O_1  and  P_2
REMARK    2  A    between atoms: P_2  and  O_3
REMARK    3  A    between atoms: P_2  and  O_5
REMARK    4  A    between atoms: O_5  and  C_6
REMARK    5  A    between atoms: C_6  and  N_7
REMARK    6  A    between atoms: C_11  and  C_14
REMARK    7  A    between atoms: C_11  and  C_20
REMARK                            x       y       z     vdW  Elec       q    Type
REMARK                         _______ _______ _______ _____ _____    ______ ____
ROOT
ATOM      1  N   UNL     1       8.032   1.555  23.866  0.00  0.00    -0.199 N 
ATOM      2  C   UNL     1       8.478   2.550  23.033  0.00  0.00    +0.257 C 
ATOM      3  O   UNL     1       8.721   2.419  21.839  0.00  0.00    -0.272 OA
ATOM      4  C   UNL     1       8.561   3.888  23.850  0.00  0.00    +0.164 C 
ATOM      5  N   UNL     1       8.261   3.344  25.160  0.00  0.00    -0.277 N 
ATOM      6  H   UNL     1       8.326   3.866  26.022  0.00  0.00    +0.152 HD
ATOM      7  C   UNL     1       7.948   2.012  25.140  0.00  0.00    +0.312 C 
ATOM      8  O   UNL     1       7.651   1.378  26.140  0.00  0.00    -0.252 OA
ENDROOT
BRANCH   4   9
ATOM      9  C   UNL     1       7.450   4.818  23.327  0.00  0.00    -0.011 A 
ATOM     10  C   UNL     1       6.197   4.840  23.972  0.00  0.00    +0.006 A 
ATOM     11  C   UNL     1       5.193   5.723  23.568  0.00  0.00    +0.000 A 
ATOM     12  C   UNL     1       5.421   6.601  22.514  0.00  0.00    +0.000 A 
ATOM     13  C   UNL     1       6.646   6.591  21.854  0.00  0.00    +0.000 A 
ATOM     14  C   UNL     1       7.653   5.707  22.254  0.00  0.00    +0.006 A 
ENDBRANCH   4   9
BRANCH   4  15
ATOM     15  C   UNL     1       9.950   4.541  23.936  0.00  0.00    -0.011 A 
ATOM     16  C   UNL     1      11.063   3.924  23.326  0.00  0.00    +0.006 A 
ATOM     17  C   UNL     1      12.316   4.547  23.292  0.00  0.00    +0.000 A 
ATOM     18  C   UNL     1      12.479   5.808  23.856  0.00  0.00    +0.000 A 
ATOM     19  C   UNL     1      11.397   6.438  24.462  0.00  0.00    +0.000 A 
ATOM     20  C   UNL     1      10.144   5.814  24.502  0.00  0.00    +0.006 A 
ENDBRANCH   4  15
BRANCH   1  21
ATOM     21  C   UNL     1       7.704   0.207  23.467  0.00  0.00    +0.292 C 
BRANCH  21  22
ATOM     22  O   UNL     1       8.845  -0.602  23.627  0.00  0.00    -0.267 OA
BRANCH  22  23
ATOM     23  P   UNL     1       9.375  -1.469  22.399  0.00  0.00    +0.474 P 
ATOM     24  O   UNL     1      10.642  -2.215  22.646  0.00  0.00    -0.227 OA
BRANCH  23  25
ATOM     25  O   UNL     1       9.525  -0.520  21.133  0.00  0.00    -0.303 OA
ATOM     26  H   UNL     1       8.731   0.037  21.027  0.00  0.00    +0.222 HD
ENDBRANCH  23  25
BRANCH  23  27
ATOM     27  O   UNL     1       8.205  -2.458  21.961  0.00  0.00    -0.303 OA
ATOM     28  H   UNL     1       8.573  -3.319  21.680  0.00  0.00    +0.222 HD
ENDBRANCH  23  27
ENDBRANCH  22  23
ENDBRANCH  21  22
ENDBRANCH   1  21
TORSDOF 7
ENDMDL
MODEL 6
REMARK VINA RESULT:      -6.6      2.505      4.877
REMARK  Name = 
REMARK  7 active torsions:
REMARK  status: ('A' for Active; 'I' for Inactive)
REMARK    1  A    between atoms: O_1  and  P_2
REMARK    2  A    between atoms: P_2  and  O_3
REMARK    3  A    between atoms: P_2  and  O_5
REMARK    4  A    between atoms: O_5  and  C_6
REMARK    5  A    between atoms: C_6  and  N_7
REMARK    6  A    between atoms: C_11  and  C_14
REMARK    7  A    between atoms: C_11  and  C_20
REMARK                            x       y       z     vdW  Elec       q    Type
REMARK                         _______ _______ _______ _____ _____    ______ ____
ROOT
ATOM      1  N   UNL     1       7.370  -2.813  23.946  0.00  0.00    -0.199 N 
ATOM      2  C   UNL     1       7.591  -1.719  24.743  0.00  0.00    +0.257 C 
ATOM      3  O   UNL     1       8.186  -1.731  25.814  0.00  0.00    -0.272 OA
ATOM      4  C   UNL     1       7.012  -0.449  24.024  0.00  0.00    +0.164 C 
ATOM      5  N   UNL     1       6.375  -1.121  22.909  0.00  0.00    -0.277 N 
ATOM      6  H   UNL     1       5.769  -0.668  22.241  0.00  0.00    +0.152 HD
ATOM      7  C   UNL     1       6.607  -2.470  22.879  0.00  0.00    +0.312 C 
ATOM      8  O   UNL     1       6.169  -3.206  22.009  0.00  0.00    -0.252 OA
ENDROOT
BRANCH   4   9
ATOM      9  C   UNL     1       8.207   0.419  23.587  0.00  0.00    -0.011 A 
ATOM     10  C   UNL     1       8.479   0.593  22.216  0.00  0.00    +0.006 A 
ATOM     11  C   UNL     1       9.509   1.431  21.785  0.00  0.00    +0.000 A 
ATOM     12  C   UNL     1      10.288   2.112  22.715  0.00  0.00    +0.000 A 
ATOM     13  C   UNL     1      10.046   1.948  24.076  0.00  0.00    +0.000 A 
ATOM     14  C   UNL     1       9.017   1.108  24.511  0.00  0.00    +0.006 A 
ENDBRANCH   4   9
BRANCH   4  15
ATOM     15  C   UNL     1       5.914   0.314  24.782  0.00  0.00    -0.011 A 
ATOM     16  C   UNL     1       5.334  -0.244  25.942  0.00  0.00    +0.006 A 
ATOM     17  C   UNL     1       4.413   0.472  26.716  0.00  0.00    +0.000 A 
ATOM     18  C   UNL     1       4.063   1.768  26.353  0.00  0.00    +0.000 A 
ATOM     19  C   UNL     1       4.622   2.341  25.215  0.00  0.00    +0.000 A 
ATOM     20  C   UNL     1       5.539   1.624  24.437  0.00  0.00    +0.006 A 
ENDBRANCH   4  15
BRANCH   1  21
ATOM     21  C   UNL     1       7.861  -4.149  24.192  0.00  0.00    +0.292 C 
BRANCH  21  22
ATOM     22  O   UNL     1       6.840  -4.899  24.806  0.00  0.00    -0.267 OA
BRANCH  22  23
ATOM     23  P   UNL     1       6.990  -5.332  26.333  0.00  0.00    +0.474 P 
ATOM     24  O   UNL     1       6.007  -6.348  26.806  0.00  0.00    -0.227 OA
BRANCH  23  25
ATOM     25  O   UNL     1       6.924  -4.028  27.241  0.00  0.00    -0.303 OA
ATOM     26  H   UNL     1       7.134  -4.247  28.168  0.00  0.00    +0.222 HD
ENDBRANCH  23  25
BRANCH  23  27
ATOM     27  O   UNL     1       8.485  -5.838  26.551  0.00  0.00    -0.303 OA
ATOM     28  H   UNL     1       8.723  -5.801  27.498  0.00  0.00    +0.222 HD
ENDBRANCH  23  27
ENDBRANCH  22  23
ENDBRANCH  21  22
ENDBRANCH   1  21
TORSDOF 7
ENDMDL
MODEL 7
REMARK VINA RESULT:      -6.5      3.532      5.931
REMARK  Name = 
REMARK  7 active torsions:
REMARK  status: ('A' for Active; 'I' for Inactive)
REMARK    1  A    between atoms: O_1  and  P_2
REMARK    2  A    between atoms: P_2  and  O_3
REMARK    3  A    between atoms: P_2  and  O_5
REMARK    4  A    between atoms: O_5  and  C_6
REMARK    5  A    between atoms: C_6  and  N_7
REMARK    6  A    between atoms: C_11  and  C_14
REMARK    7  A    between atoms: C_11  and  C_20
REMARK                            x       y       z     vdW  Elec       q    Type
REMARK                         _______ _______ _______ _____ _____    ______ ____
ROOT
ATOM      1  N   UNL     1       7.595  -1.295  24.556  0.00  0.00    -0.199 N 
ATOM      2  C   UNL     1       6.464  -2.048  24.748  0.00  0.00    +0.257 C 
ATOM      3  O   UNL     1       5.314  -1.643  24.630  0.00  0.00    -0.272 OA
ATOM      4  C   UNL     1       6.893  -3.521  25.082  0.00  0.00    +0.164 C 
ATOM      5  N   UNL     1       8.323  -3.299  25.172  0.00  0.00    -0.277 N 
ATOM      6  H   UNL     1       8.987  -3.989  25.492  0.00  0.00    +0.152 HD
ATOM      7  C   UNL     1       8.700  -2.023  24.853  0.00  0.00    +0.312 C 
ATOM      8  O   UNL     1       9.861  -1.646  24.855  0.00  0.00    -0.252 OA
ENDROOT
BRANCH   4   9
ATOM      9  C   UNL     1       6.506  -4.399  23.876  0.00  0.00    -0.011 A 
ATOM     10  C   UNL     1       7.494  -4.785  22.948  0.00  0.00    +0.006 A 
ATOM     11  C   UNL     1       7.191  -5.638  21.885  0.00  0.00    +0.000 A 
ATOM     12  C   UNL     1       5.896  -6.122  21.728  0.00  0.00    +0.000 A 
ATOM     13  C   UNL     1       4.901  -5.746  22.625  0.00  0.00    +0.000 A 
ATOM     14  C   UNL     1       5.200  -4.890  23.688  0.00  0.00    +0.006 A 
ENDBRANCH   4   9
BRANCH   4  15
ATOM     15  C   UNL     1       6.431  -4.068  26.441  0.00  0.00    -0.011 A 
ATOM     16  C   UNL     1       5.371  -3.443  27.134  0.00  0.00    +0.006 A 
ATOM     17  C   UNL     1       4.855  -3.982  28.318  0.00  0.00    +0.000 A 
ATOM     18  C   UNL     1       5.378  -5.165  28.828  0.00  0.00    +0.000 A 
ATOM     19  C   UNL     1       6.421  -5.801  28.163  0.00  0.00    +0.000 A 
ATOM     20  C   UNL     1       6.944  -5.261  26.981  0.00  0.00    +0.006 A 
ENDBRANCH   4  15
BRANCH   1  21
ATOM     21  C   UNL     1       7.627   0.078  24.111  0.00  0.00    +0.292 C 
BRANCH  21  22
ATOM     22  O   UNL     1       7.688   0.095  22.704  0.00  0.00    -0.267 OA
BRANCH  22  23
ATOM     23  P   UNL     1       9.049   0.496  21.978  0.00  0.00    +0.474 P 
ATOM     24  O   UNL     1      10.114   1.033  22.873  0.00  0.00    -0.227 OA
BRANCH  23  25
ATOM     25  O   UNL     1       8.722   1.533  20.818  0.00  0.00    -0.303 OA
ATOM     26  H   UNL     1       7.759   1.582  20.666  0.00  0.00    +0.222 HD
ENDBRANCH  23  25
BRANCH  23  27
ATOM     27  O   UNL     1       9.567  -0.779  21.175  0.00  0.00    -0.303 OA
ATOM     28  H   UNL     1       9.779  -1.507  21.791  0.00  0.00    +0.222 HD
ENDBRANCH  23  27
ENDBRANCH  22  23
ENDBRANCH  21  22
ENDBRANCH   1  21
TORSDOF 7
ENDMDL
MODEL 8
REMARK VINA RESULT:      -6.5      5.763      8.321
REMARK  Name = 
REMARK  7 active torsions:
REMARK  status: ('A' for Active; 'I' for Inactive)
REMARK    1  A    between atoms: O_1  and  P_2
REMARK    2  A    between atoms: P_2  and  O_3
REMARK    3  A    between atoms: P_2  and  O_5
REMARK    4  A    between atoms: O_5  and  C_6
REMARK    5  A    between atoms: C_6  and  N_7
REMARK    6  A    between atoms: C_11  and  C_14
REMARK    7  A    between atoms: C_11  and  C_20
REMARK                            x       y       z     vdW  Elec       q    Type
REMARK                         _______ _______ _______ _____ _____    ______ ____
ROOT
ATOM      1  N   UNL     1       6.961   4.019  24.434  0.00  0.00    -0.199 N 
ATOM      2  C   UNL     1       7.817   3.851  23.375  0.00  0.00    +0.257 C 
ATOM      3  O   UNL     1       7.612   4.235  22.230  0.00  0.00    -0.272 OA
ATOM      4  C   UNL     1       9.120   3.143  23.891  0.00  0.00    +0.164 C 
ATOM      5  N   UNL     1       8.682   2.876  25.247  0.00  0.00    -0.277 N 
ATOM      6  H   UNL     1       9.194   2.314  25.911  0.00  0.00    +0.152 HD
ATOM      7  C   UNL     1       7.451   3.400  25.537  0.00  0.00    +0.312 C 
ATOM      8  O   UNL     1       6.918   3.295  26.630  0.00  0.00    -0.252 OA
ENDROOT
BRANCH   4   9
ATOM      9  C   UNL     1      10.261   4.177  23.831  0.00  0.00    -0.011 A 
ATOM     10  C   UNL     1      10.073   5.458  24.387  0.00  0.00    +0.006 A 
ATOM     11  C   UNL     1      11.110   6.392  24.413  0.00  0.00    +0.000 A 
ATOM     12  C   UNL     1      12.355   6.066  23.886  0.00  0.00    +0.000 A 
ATOM     13  C   UNL     1      12.562   4.811  23.321  0.00  0.00    +0.000 A 
ATOM     14  C   UNL     1      11.526   3.874  23.291  0.00  0.00    +0.006 A 
ENDBRANCH   4   9
BRANCH   4  15
ATOM     15  C   UNL     1       9.454   1.788  23.246  0.00  0.00    -0.011 A 
ATOM     16  C   UNL     1       9.932   0.723  24.039  0.00  0.00    +0.006 A 
ATOM     17  C   UNL     1      10.140  -0.552  23.502  0.00  0.00    +0.000 A 
ATOM     18  C   UNL     1       9.859  -0.794  22.162  0.00  0.00    +0.000 A 
ATOM     19  C   UNL     1       9.384   0.239  21.359  0.00  0.00    +0.000 A 
ATOM     20  C   UNL     1       9.181   1.518  21.893  0.00  0.00    +0.006 A 
ENDBRANCH   4  15
BRANCH   1  21
ATOM     21  C   UNL     1       5.710   4.740  24.400  0.00  0.00    +0.292 C 
BRANCH  21  22
ATOM     22  O   UNL     1       4.761   3.963  23.710  0.00  0.00    -0.267 OA
BRANCH  22  23
ATOM     23  P   UNL     1       3.874   2.907  24.510  0.00  0.00    +0.474 P 
ATOM     24  O   UNL     1       2.466   2.772  24.041  0.00  0.00    -0.227 OA
BRANCH  23  25
ATOM     25  O   UNL     1       3.913   3.277  26.056  0.00  0.00    -0.303 OA
ATOM     26  H   UNL     1       3.070   3.038  26.486  0.00  0.00    +0.222 HD
ENDBRANCH  23  25
BRANCH  23  27
ATOM     27  O   UNL     1       4.629   1.504  24.464  0.00  0.00    -0.303 OA
ATOM     28  H   UNL     1       4.320   0.927  25.189  0.00  0.00    +0.222 HD
ENDBRANCH  23  27
ENDBRANCH  22  23
ENDBRANCH  21  22
ENDBRANCH   1  21
TORSDOF 7
ENDMDL
MODEL 9
REMARK VINA RESULT:      -6.3      2.599      4.833
REMARK  Name = 
REMARK  7 active torsions:
REMARK  status: ('A' for Active; 'I' for Inactive)
REMARK    1  A    between atoms: O_1  and  P_2
REMARK    2  A    between atoms: P_2  and  O_3
REMARK    3  A    between atoms: P_2  and  O_5
REMARK    4  A    between atoms: O_5  and  C_6
REMARK    5  A    between atoms: C_6  and  N_7
REMARK    6  A    between atoms: C_11  and  C_14
REMARK    7  A    between atoms: C_11  and  C_20
REMARK                            x       y       z     vdW  Elec       q    Type
REMARK                         _______ _______ _______ _____ _____    ______ ____
ROOT
ATOM      1  N   UNL     1       6.413  -3.013  24.869  0.00  0.00    -0.199 N 
ATOM      2  C   UNL     1       6.848  -1.885  25.519  0.00  0.00    +0.257 C 
ATOM      3  O   UNL     1       7.322  -1.857  26.648  0.00  0.00    -0.272 OA
ATOM      4  C   UNL     1       6.693  -0.658  24.552  0.00  0.00    +0.164 C 
ATOM      5  N   UNL     1       5.999  -1.336  23.475  0.00  0.00    -0.277 N 
ATOM      6  H   UNL     1       5.597  -0.871  22.674  0.00  0.00    +0.152 HD
ATOM      7  C   UNL     1       5.865  -2.684  23.674  0.00  0.00    +0.312 C 
ATOM      8  O   UNL     1       5.323  -3.429  22.872  0.00  0.00    -0.252 OA
ENDROOT
BRANCH   4   9
ATOM      9  C   UNL     1       8.110  -0.205  24.151  0.00  0.00    -0.011 A 
ATOM     10  C   UNL     1       8.966   0.351  25.122  0.00  0.00    +0.006 A 
ATOM     11  C   UNL     1      10.280   0.705  24.807  0.00  0.00    +0.000 A 
ATOM     12  C   UNL     1      10.764   0.509  23.518  0.00  0.00    +0.000 A 
ATOM     13  C   UNL     1       9.934  -0.028  22.539  0.00  0.00    +0.000 A 
ATOM     14  C   UNL     1       8.618  -0.381  22.849  0.00  0.00    +0.006 A 
ENDBRANCH   4   9
BRANCH   4  15
ATOM     15  C   UNL     1       5.777   0.475  25.041  0.00  0.00    -0.011 A 
ATOM     16  C   UNL     1       5.584   1.625  24.245  0.00  0.00    +0.006 A 
ATOM     17  C   UNL     1       4.672   2.622  24.610  0.00  0.00    +0.000 A 
ATOM     18  C   UNL     1       3.923   2.484  25.773  0.00  0.00    +0.000 A 
ATOM     19  C   UNL     1       4.093   1.359  26.574  0.00  0.00    +0.000 A 
ATOM     20  C   UNL     1       5.009   0.362  26.213  0.00  0.00    +0.006 A 
ENDBRANCH   4  15
BRANCH   1  21
ATOM     21  C   UNL     1       6.506  -4.364  25.371  0.00  0.00    +0.292 C 
BRANCH  21  22
ATOM     22  O   UNL     1       7.582  -5.009  24.731  0.00  0.00    -0.267 OA
BRANCH  22  23
ATOM     23  P   UNL     1       9.064  -4.807  25.284  0.00  0.00    +0.474 P 
ATOM     24  O   UNL     1       9.909  -3.854  24.510  0.00  0.00    -0.227 OA
BRANCH  23  25
ATOM     25  O   UNL     1       9.770  -6.229  25.378  0.00  0.00    -0.303 OA
ATOM     26  H   UNL     1      10.216  -6.332  26.240  0.00  0.00    +0.222 HD
ENDBRANCH  23  25
BRANCH  23  27
ATOM     27  O   UNL     1       8.957  -4.366  26.812  0.00  0.00    -0.303 OA
ATOM     28  H   UNL     1       9.082  -5.136  27.400  0.00  0.00    +0.222 HD
ENDBRANCH  23  27
ENDBRANCH  22  23
ENDBRANCH  21  22
ENDBRANCH   1  21
TORSDOF 7
ENDMDL
