MODEL 1
REMARK VINA RESULT:      -5.9      0.000      0.000
REMARK  Name = 
REMARK  10 active torsions:
REMARK  status: ('A' for Active; 'I' for Inactive)
REMARK    1  A    between atoms: C_1  and  C_2
REMARK    2  A    between atoms: C_2  and  C_3
REMARK    3  A    between atoms: C_10  and  C_12
REMARK    4  A    between atoms: C_12  and  O_13
REMARK    5  A    between atoms: C_12  and  C_14
REMARK    6  A    between atoms: C_14  and  N_15
REMARK    7  A    between atoms: N_15  and  C_16
REMARK    8  A    between atoms: C_16  and  C_17
REMARK    9  A    between atoms: C_16  and  C_18
REMARK   10  A    between atoms: C_16  and  C_19
REMARK                            x       y       z     vdW  Elec       q    Type
REMARK                         _______ _______ _______ _____ _____    ______ ____
ROOT
ATOM      1  C   UNL     1       7.486  -3.976  23.537  0.00  0.00    -0.005 A 
ATOM      2  C   UNL     1       8.336  -2.864  23.560  0.00  0.00    +0.138 A 
ATOM      3  O   UNL     1       8.783  -2.187  22.467  0.00  0.00    -0.457 OA
ATOM      4  C   UNL     1       9.538  -1.139  22.908  0.00  0.00    +0.136 A 
ATOM      5  C   UNL     1       9.619  -1.174  24.286  0.00  0.00    +0.056 A 
ATOM      6  C   UNL     1       8.847  -2.285  24.715  0.00  0.00    +0.021 A 
ATOM      7  C   UNL     1       8.515  -2.845  25.958  0.00  0.00    +0.012 A 
ATOM      8  C   UNL     1       7.677  -3.965  25.984  0.00  0.00    +0.001 A 
ATOM      9  C   UNL     1       7.169  -4.514  24.801  0.00  0.00    +0.007 A 
ENDROOT
BRANCH   1  11
ATOM     10  C   UNL     1       7.238  -6.022  22.118  0.00  0.00    +0.009 C 
ATOM     11  C   UNL     1       6.891  -4.549  22.281  0.00  0.00    +0.035 C 
ENDBRANCH   1  11
BRANCH   4  12
ATOM     12  C   UNL     1      10.107  -0.200  21.899  0.00  0.00    +0.194 C 
BRANCH  12  13
ATOM     13  O   UNL     1       9.331  -0.370  20.705  0.00  0.00    -0.383 OA
ATOM     14  H   UNL     1       9.663  -1.180  20.277  0.00  0.00    +0.210 HD
ENDBRANCH  12  13
BRANCH  12  15
ATOM     15  C   UNL     1      10.096   1.296  22.293  0.00  0.00    +0.120 C 
BRANCH  15  16
ATOM     16  N   UNL     1       9.027   2.084  21.666  0.00  0.00    -0.308 NA
ATOM     17  H   UNL     1       8.681   1.604  20.836  0.00  0.00    +0.123 HD
BRANCH  16  18
ATOM     18  C   UNL     1       7.907   2.466  22.541  0.00  0.00    +0.011 C 
ATOM     19  C   UNL     1       7.357   3.853  22.173  0.00  0.00    +0.027 C 
ATOM     20  C   UNL     1       8.474   2.528  23.973  0.00  0.00    +0.027 C 
ATOM     21  C   UNL     1       6.778   1.422  22.522  0.00  0.00    +0.027 C 
ENDBRANCH  16  18
ENDBRANCH  15  16
ENDBRANCH  12  15
ENDBRANCH   4  12
TORSDOF 6
ENDMDL
MODEL 2
REMARK VINA RESULT:      -5.8      1.320      1.820
REMARK  Name = 
REMARK  10 active torsions:
REMARK  status: ('A' for Active; 'I' for Inactive)
REMARK    1  A    between atoms: C_1  and  C_2
REMARK    2  A    between atoms: C_2  and  C_3
REMARK    3  A    between atoms: C_10  and  C_12
REMARK    4  A    between atoms: C_12  and  O_13
REMARK    5  A    between atoms: C_12  and  C_14
REMARK    6  A    between atoms: C_14  and  N_15
REMARK    7  A    between atoms: N_15  and  C_16
REMARK    8  A    between atoms: C_16  and  C_17
REMARK    9  A    between atoms: C_16  and  C_18
REMARK   10  A    between atoms: C_16  and  C_19
REMARK                            x       y       z     vdW  Elec       q    Type
REMARK                         _______ _______ _______ _____ _____    ______ ____
ROOT
ATOM      1  C   UNL     1       6.480  -4.699  23.437  0.00  0.00    -0.005 A 
ATOM      2  C   UNL     1       7.636  -3.969  23.737  0.00  0.00    +0.138 A 
ATOM      3  O   UNL     1       8.344  -3.209  22.857  0.00  0.00    -0.457 OA
ATOM      4  C   UNL     1       9.363  -2.618  23.546  0.00  0.00    +0.136 A 
ATOM      5  C   UNL     1       9.340  -3.039  24.860  0.00  0.00    +0.056 A 
ATOM      6  C   UNL     1       8.229  -3.912  24.993  0.00  0.00    +0.021 A 
ATOM      7  C   UNL     1       7.657  -4.642  26.047  0.00  0.00    +0.012 A 
ATOM      8  C   UNL     1       6.506  -5.395  25.790  0.00  0.00    +0.001 A 
ATOM      9  C   UNL     1       5.928  -5.418  24.516  0.00  0.00    +0.007 A 
ENDROOT
BRANCH   1  11
ATOM     10  C   UNL     1       6.427  -5.736  21.161  0.00  0.00    +0.009 C 
ATOM     11  C   UNL     1       5.815  -4.696  22.088  0.00  0.00    +0.035 C 
ENDBRANCH   1  11
BRANCH   4  12
ATOM     12  C   UNL     1      10.264  -1.683  22.814  0.00  0.00    +0.194 C 
BRANCH  12  13
ATOM     13  O   UNL     1       9.775  -1.619  21.467  0.00  0.00    -0.383 OA
ATOM     14  H   UNL     1      10.557  -1.691  20.890  0.00  0.00    +0.210 HD
ENDBRANCH  12  13
BRANCH  12  15
ATOM     15  C   UNL     1      10.347  -0.247  23.383  0.00  0.00    +0.120 C 
BRANCH  15  16
ATOM     16  N   UNL     1       9.050   0.427  23.531  0.00  0.00    -0.308 NA
ATOM     17  H   UNL     1       8.822   0.529  24.519  0.00  0.00    +0.123 HD
BRANCH  16  18
ATOM     18  C   UNL     1       8.907   1.716  22.837  0.00  0.00    +0.011 C 
ATOM     19  C   UNL     1       7.848   1.639  21.725  0.00  0.00    +0.027 C 
ATOM     20  C   UNL     1      10.274   2.017  22.191  0.00  0.00    +0.027 C 
ATOM     21  C   UNL     1       8.578   2.862  23.808  0.00  0.00    +0.027 C 
ENDBRANCH  16  18
ENDBRANCH  15  16
ENDBRANCH  12  15
ENDBRANCH   4  12
TORSDOF 6
ENDMDL
MODEL 3
REMARK VINA RESULT:      -5.7      2.563      4.276
REMARK  Name = 
REMARK  10 active torsions:
REMARK  status: ('A' for Active; 'I' for Inactive)
REMARK    1  A    between atoms: C_1  and  C_2
REMARK    2  A    between atoms: C_2  and  C_3
REMARK    3  A    between atoms: C_10  and  C_12
REMARK    4  A    between atoms: C_12  and  O_13
REMARK    5  A    between atoms: C_12  and  C_14
REMARK    6  A    between atoms: C_14  and  N_15
REMARK    7  A    between atoms: N_15  and  C_16
REMARK    8  A    between atoms: C_16  and  C_17
REMARK    9  A    between atoms: C_16  and  C_18
REMARK   10  A    between atoms: C_16  and  C_19
REMARK                            x       y       z     vdW  Elec       q    Type
REMARK                         _______ _______ _______ _____ _____    ______ ____
ROOT
ATOM      1  C   UNL     1       9.118  -0.683  24.329  0.00  0.00    -0.005 A 
ATOM      2  C   UNL     1       9.558   0.475  23.677  0.00  0.00    +0.138 A 
ATOM      3  O   UNL     1       9.883   1.650  24.283  0.00  0.00    -0.457 OA
ATOM      4  C   UNL     1      10.316   2.509  23.316  0.00  0.00    +0.136 A 
ATOM      5  C   UNL     1      10.222   1.902  22.080  0.00  0.00    +0.056 A 
ATOM      6  C   UNL     1       9.732   0.589  22.303  0.00  0.00    +0.021 A 
ATOM      7  C   UNL     1       9.438  -0.515  21.488  0.00  0.00    +0.012 A 
ATOM      8  C   UNL     1       8.983  -1.691  22.096  0.00  0.00    +0.001 A 
ATOM      9  C   UNL     1       8.833  -1.775  23.484  0.00  0.00    +0.007 A 
ENDROOT
BRANCH   1  11
ATOM     10  C   UNL     1       8.424  -2.159  26.226  0.00  0.00    +0.009 C 
ATOM     11  C   UNL     1       8.998  -0.808  25.823  0.00  0.00    +0.035 C 
ENDBRANCH   1  11
BRANCH   4  12
ATOM     12  C   UNL     1      10.787   3.863  23.729  0.00  0.00    +0.194 C 
BRANCH  12  13
ATOM     13  O   UNL     1      11.569   4.369  22.639  0.00  0.00    -0.383 OA
ATOM     14  H   UNL     1      12.155   3.642  22.363  0.00  0.00    +0.210 HD
ENDBRANCH  12  13
BRANCH  12  15
ATOM     15  C   UNL     1       9.676   4.886  24.064  0.00  0.00    +0.120 C 
BRANCH  15  16
ATOM     16  N   UNL     1       9.065   5.529  22.894  0.00  0.00    -0.308 NA
ATOM     17  H   UNL     1       9.506   5.189  22.040  0.00  0.00    +0.123 HD
BRANCH  16  18
ATOM     18  C   UNL     1       7.601   5.426  22.790  0.00  0.00    +0.011 C 
ATOM     19  C   UNL     1       7.174   4.060  22.229  0.00  0.00    +0.027 C 
ATOM     20  C   UNL     1       7.156   6.522  21.802  0.00  0.00    +0.027 C 
ATOM     21  C   UNL     1       6.906   5.690  24.137  0.00  0.00    +0.027 C 
ENDBRANCH  16  18
ENDBRANCH  15  16
ENDBRANCH  12  15
ENDBRANCH   4  12
TORSDOF 6
ENDMDL
MODEL 4
REMARK VINA RESULT:      -5.7      2.319      5.928
REMARK  Name = 
REMARK  10 active torsions:
REMARK  status: ('A' for Active; 'I' for Inactive)
REMARK    1  A    between atoms: C_1  and  C_2
REMARK    2  A    between atoms: C_2  and  C_3
REMARK    3  A    between atoms: C_10  and  C_12
REMARK    4  A    between atoms: C_12  and  O_13
REMARK    5  A    between atoms: C_12  and  C_14
REMARK    6  A    between atoms: C_14  and  N_15
REMARK    7  A    between atoms: N_15  and  C_16
REMARK    8  A    between atoms: C_16  and  C_17
REMARK    9  A    between atoms: C_16  and  C_18
REMARK   10  A    between atoms: C_16  and  C_19
REMARK                            x       y       z     vdW  Elec       q    Type
REMARK                         _______ _______ _______ _____ _____    ______ ____
ROOT
ATOM      1  C   UNL     1       7.273   0.559  23.350  0.00  0.00    -0.005 A 
ATOM      2  C   UNL     1       8.166  -0.519  23.328  0.00  0.00    +0.138 A 
ATOM      3  O   UNL     1       8.131  -1.594  24.164  0.00  0.00    -0.457 OA
ATOM      4  C   UNL     1       9.128  -2.445  23.785  0.00  0.00    +0.136 A 
ATOM      5  C   UNL     1       9.837  -1.894  22.737  0.00  0.00    +0.056 A 
ATOM      6  C   UNL     1       9.223  -0.650  22.436  0.00  0.00    +0.021 A 
ATOM      7  C   UNL     1       9.443   0.365  21.492  0.00  0.00    +0.012 A 
ATOM      8  C   UNL     1       8.582   1.468  21.485  0.00  0.00    +0.001 A 
ATOM      9  C   UNL     1       7.518   1.560  22.389  0.00  0.00    +0.007 A 
ENDROOT
BRANCH   1  11
ATOM     10  C   UNL     1       5.452   2.029  24.234  0.00  0.00    +0.009 C 
ATOM     11  C   UNL     1       6.095   0.651  24.281  0.00  0.00    +0.035 C 
ENDBRANCH   1  11
BRANCH   4  12
ATOM     12  C   UNL     1       9.272  -3.737  24.516  0.00  0.00    +0.194 C 
BRANCH  12  13
ATOM     13  O   UNL     1       9.068  -3.442  25.905  0.00  0.00    -0.383 OA
ATOM     14  H   UNL     1       9.836  -2.913  26.186  0.00  0.00    +0.210 HD
ENDBRANCH  12  13
BRANCH  12  15
ATOM     15  C   UNL     1       8.293  -4.859  24.096  0.00  0.00    +0.120 C 
BRANCH  15  16
ATOM     16  N   UNL     1       6.892  -4.434  23.976  0.00  0.00    -0.308 NA
ATOM     17  H   UNL     1       6.804  -3.451  24.233  0.00  0.00    +0.123 HD
BRANCH  16  18
ATOM     18  C   UNL     1       6.249  -4.684  22.677  0.00  0.00    +0.011 C 
ATOM     19  C   UNL     1       4.894  -5.390  22.849  0.00  0.00    +0.027 C 
ATOM     20  C   UNL     1       7.193  -5.618  21.895  0.00  0.00    +0.027 C 
ATOM     21  C   UNL     1       6.076  -3.392  21.860  0.00  0.00    +0.027 C 
ENDBRANCH  16  18
ENDBRANCH  15  16
ENDBRANCH  12  15
ENDBRANCH   4  12
TORSDOF 6
ENDMDL
MODEL 5
REMARK VINA RESULT:      -5.7      1.698      2.783
REMARK  Name = 
REMARK  10 active torsions:
REMARK  status: ('A' for Active; 'I' for Inactive)
REMARK    1  A    between atoms: C_1  and  C_2
REMARK    2  A    between atoms: C_2  and  C_3
REMARK    3  A    between atoms: C_10  and  C_12
REMARK    4  A    between atoms: C_12  and  O_13
REMARK    5  A    between atoms: C_12  and  C_14
REMARK    6  A    between atoms: C_14  and  N_15
REMARK    7  A    between atoms: N_15  and  C_16
REMARK    8  A    between atoms: C_16  and  C_17
REMARK    9  A    between atoms: C_16  and  C_18
REMARK   10  A    between atoms: C_16  and  C_19
REMARK                            x       y       z     vdW  Elec       q    Type
REMARK                         _______ _______ _______ _____ _____    ______ ____
ROOT
ATOM      1  C   UNL     1       6.383  -3.741  25.346  0.00  0.00    -0.005 A 
ATOM      2  C   UNL     1       7.090  -3.169  24.282  0.00  0.00    +0.138 A 
ATOM      3  O   UNL     1       8.365  -2.695  24.342  0.00  0.00    -0.457 OA
ATOM      4  C   UNL     1       8.709  -2.274  23.091  0.00  0.00    +0.136 A 
ATOM      5  C   UNL     1       7.637  -2.431  22.237  0.00  0.00    +0.056 A 
ATOM      6  C   UNL     1       6.586  -3.007  22.997  0.00  0.00    +0.021 A 
ATOM      7  C   UNL     1       5.274  -3.423  22.726  0.00  0.00    +0.012 A 
ATOM      8  C   UNL     1       4.525  -3.990  23.763  0.00  0.00    +0.001 A 
ATOM      9  C   UNL     1       5.070  -4.151  25.042  0.00  0.00    +0.007 A 
ENDROOT
BRANCH   1  11
ATOM     10  C   UNL     1       7.827  -5.223  26.753  0.00  0.00    +0.009 C 
ATOM     11  C   UNL     1       6.967  -3.969  26.713  0.00  0.00    +0.035 C 
ENDBRANCH   1  11
BRANCH   4  12
ATOM     12  C   UNL     1      10.090  -1.753  22.874  0.00  0.00    +0.194 C 
BRANCH  12  13
ATOM     13  O   UNL     1      10.245  -1.595  21.457  0.00  0.00    -0.383 OA
ATOM     14  H   UNL     1      10.678  -0.733  21.325  0.00  0.00    +0.210 HD
ENDBRANCH  12  13
BRANCH  12  15
ATOM     15  C   UNL     1      10.416  -0.408  23.564  0.00  0.00    +0.120 C 
BRANCH  15  16
ATOM     16  N   UNL     1       9.242   0.333  24.044  0.00  0.00    -0.308 NA
ATOM     17  H   UNL     1       9.380   0.613  25.014  0.00  0.00    +0.123 HD
BRANCH  16  18
ATOM     18  C   UNL     1       8.829   1.487  23.231  0.00  0.00    +0.011 C 
ATOM     19  C   UNL     1       9.888   1.834  22.172  0.00  0.00    +0.027 C 
ATOM     20  C   UNL     1       8.696   2.678  24.200  0.00  0.00    +0.027 C 
ATOM     21  C   UNL     1       7.461   1.263  22.564  0.00  0.00    +0.027 C 
ENDBRANCH  16  18
ENDBRANCH  15  16
ENDBRANCH  12  15
ENDBRANCH   4  12
TORSDOF 6
ENDMDL
MODEL 6
REMARK VINA RESULT:      -5.6      3.114      5.004
REMARK  Name = 
REMARK  10 active torsions:
REMARK  status: ('A' for Active; 'I' for Inactive)
REMARK    1  A    between atoms: C_1  and  C_2
REMARK    2  A    between atoms: C_2  and  C_3
REMARK    3  A    between atoms: C_10  and  C_12
REMARK    4  A    between atoms: C_12  and  O_13
REMARK    5  A    between atoms: C_12  and  C_14
REMARK    6  A    between atoms: C_14  and  N_15
REMARK    7  A    between atoms: N_15  and  C_16
REMARK    8  A    between atoms: C_16  and  C_17
REMARK    9  A    between atoms: C_16  and  C_18
REMARK   10  A    between atoms: C_16  and  C_19
REMARK                            x       y       z     vdW  Elec       q    Type
REMARK                         _______ _______ _______ _____ _____    ______ ____
ROOT
ATOM      1  C   UNL     1       5.101  -5.957  23.786  0.00  0.00    -0.005 A 
ATOM      2  C   UNL     1       5.857  -5.696  24.936  0.00  0.00    +0.138 A 
ATOM      3  O   UNL     1       7.014  -4.981  24.977  0.00  0.00    -0.457 OA
ATOM      4  C   UNL     1       7.408  -4.906  26.281  0.00  0.00    +0.136 A 
ATOM      5  C   UNL     1       6.530  -5.618  27.073  0.00  0.00    +0.056 A 
ATOM      6  C   UNL     1       5.526  -6.132  26.213  0.00  0.00    +0.021 A 
ATOM      7  C   UNL     1       4.366  -6.903  26.387  0.00  0.00    +0.012 A 
ATOM      8  C   UNL     1       3.585  -7.198  25.264  0.00  0.00    +0.001 A 
ATOM      9  C   UNL     1       3.942  -6.731  23.994  0.00  0.00    +0.007 A 
ENDROOT
BRANCH   1  11
ATOM     10  C   UNL     1       6.546  -6.233  21.762  0.00  0.00    +0.009 C 
ATOM     11  C   UNL     1       5.440  -5.421  22.422  0.00  0.00    +0.035 C 
ENDBRANCH   1  11
BRANCH   4  12
ATOM     12  C   UNL     1       8.635  -4.122  26.607  0.00  0.00    +0.194 C 
BRANCH  12  13
ATOM     13  O   UNL     1       9.746  -5.006  26.406  0.00  0.00    -0.383 OA
ATOM     14  H   UNL     1      10.474  -4.655  26.949  0.00  0.00    +0.210 HD
ENDBRANCH  12  13
BRANCH  12  15
ATOM     15  C   UNL     1       8.857  -2.843  25.766  0.00  0.00    +0.120 C 
BRANCH  15  16
ATOM     16  N   UNL     1       9.329  -3.086  24.396  0.00  0.00    -0.308 NA
ATOM     17  H   UNL     1       9.041  -4.015  24.089  0.00  0.00    +0.123 HD
BRANCH  16  18
ATOM     18  C   UNL     1       8.957  -2.076  23.394  0.00  0.00    +0.011 C 
ATOM     19  C   UNL     1       7.979  -2.650  22.356  0.00  0.00    +0.027 C 
ATOM     20  C   UNL     1      10.259  -1.678  22.673  0.00  0.00    +0.027 C 
ATOM     21  C   UNL     1       8.366  -0.812  24.040  0.00  0.00    +0.027 C 
ENDBRANCH  16  18
ENDBRANCH  15  16
ENDBRANCH  12  15
ENDBRANCH   4  12
TORSDOF 6
ENDMDL
MODEL 7
REMARK VINA RESULT:      -5.6      2.542      5.805
REMARK  Name = 
REMARK  10 active torsions:
REMARK  status: ('A' for Active; 'I' for Inactive)
REMARK    1  A    between atoms: C_1  and  C_2
REMARK    2  A    between atoms: C_2  and  C_3
REMARK    3  A    between atoms: C_10  and  C_12
REMARK    4  A    between atoms: C_12  and  O_13
REMARK    5  A    between atoms: C_12  and  C_14
REMARK    6  A    between atoms: C_14  and  N_15
REMARK    7  A    between atoms: N_15  and  C_16
REMARK    8  A    between atoms: C_16  and  C_17
REMARK    9  A    between atoms: C_16  and  C_18
REMARK   10  A    between atoms: C_16  and  C_19
REMARK                            x       y       z     vdW  Elec       q    Type
REMARK                         _______ _______ _______ _____ _____    ______ ____
ROOT
ATOM      1  C   UNL     1       9.295   0.123  23.958  0.00  0.00    -0.005 A 
ATOM      2  C   UNL     1       8.953  -0.965  24.769  0.00  0.00    +0.138 A 
ATOM      3  O   UNL     1       9.362  -2.250  24.584  0.00  0.00    -0.457 OA
ATOM      4  C   UNL     1       8.863  -2.996  25.612  0.00  0.00    +0.136 A 
ATOM      5  C   UNL     1       8.090  -2.198  26.431  0.00  0.00    +0.056 A 
ATOM      6  C   UNL     1       8.141  -0.885  25.894  0.00  0.00    +0.021 A 
ATOM      7  C   UNL     1       7.601   0.359  26.255  0.00  0.00    +0.012 A 
ATOM      8  C   UNL     1       7.907   1.473  25.466  0.00  0.00    +0.001 A 
ATOM      9  C   UNL     1       8.740   1.359  24.347  0.00  0.00    +0.007 A 
ENDROOT
BRANCH   1  11
ATOM     10  C   UNL     1       9.479  -0.302  21.499  0.00  0.00    +0.009 C 
ATOM     11  C   UNL     1      10.228   0.030  22.782  0.00  0.00    +0.035 C 
ENDBRANCH   1  11
BRANCH   4  12
ATOM     12  C   UNL     1       9.214  -4.444  25.673  0.00  0.00    +0.194 C 
BRANCH  12  13
ATOM     13  O   UNL     1       9.141  -4.821  27.054  0.00  0.00    -0.383 OA
ATOM     14  H   UNL     1       9.495  -4.068  27.561  0.00  0.00    +0.210 HD
ENDBRANCH  12  13
BRANCH  12  15
ATOM     15  C   UNL     1       8.307  -5.389  24.849  0.00  0.00    +0.120 C 
BRANCH  15  16
ATOM     16  N   UNL     1       8.287  -5.112  23.407  0.00  0.00    -0.308 NA
ATOM     17  H   UNL     1       8.700  -5.892  22.897  0.00  0.00    +0.123 HD
BRANCH  16  18
ATOM     18  C   UNL     1       6.979  -4.761  22.833  0.00  0.00    +0.011 C 
ATOM     19  C   UNL     1       5.851  -4.934  23.864  0.00  0.00    +0.027 C 
ATOM     20  C   UNL     1       6.735  -5.743  21.670  0.00  0.00    +0.027 C 
ATOM     21  C   UNL     1       6.963  -3.334  22.261  0.00  0.00    +0.027 C 
ENDBRANCH  16  18
ENDBRANCH  15  16
ENDBRANCH  12  15
ENDBRANCH   4  12
TORSDOF 6
ENDMDL
MODEL 8
REMARK VINA RESULT:      -5.5      1.831      2.957
REMARK  Name = 
REMARK  10 active torsions:
REMARK  status: ('A' for Active; 'I' for Inactive)
REMARK    1  A    between atoms: C_1  and  C_2
REMARK    2  A    between atoms: C_2  and  C_3
REMARK    3  A    between atoms: C_10  and  C_12
REMARK    4  A    between atoms: C_12  and  O_13
REMARK    5  A    between atoms: C_12  and  C_14
REMARK    6  A    between atoms: C_14  and  N_15
REMARK    7  A    between atoms: N_15  and  C_16
REMARK    8  A    between atoms: C_16  and  C_17
REMARK    9  A    between atoms: C_16  and  C_18
REMARK   10  A    between atoms: C_16  and  C_19
REMARK                            x       y       z     vdW  Elec       q    Type
REMARK                         _______ _______ _______ _____ _____    ______ ____
ROOT
ATOM      1  C   UNL     1       8.175  -4.322  24.721  0.00  0.00    -0.005 A 
ATOM      2  C   UNL     1       8.526  -3.186  23.983  0.00  0.00    +0.138 A 
ATOM      3  O   UNL     1       9.400  -2.221  24.382  0.00  0.00    -0.457 OA
ATOM      4  C   UNL     1       9.514  -1.319  23.365  0.00  0.00    +0.136 A 
ATOM      5  C   UNL     1       8.673  -1.677  22.330  0.00  0.00    +0.056 A 
ATOM      6  C   UNL     1       8.031  -2.880  22.721  0.00  0.00    +0.021 A 
ATOM      7  C   UNL     1       7.099  -3.748  22.130  0.00  0.00    +0.012 A 
ATOM      8  C   UNL     1       6.709  -4.891  22.837  0.00  0.00    +0.001 A 
ATOM      9  C   UNL     1       7.240  -5.174  24.100  0.00  0.00    +0.007 A 
ENDROOT
BRANCH   1  11
ATOM     10  C   UNL     1       7.730  -5.260  26.998  0.00  0.00    +0.009 C 
ATOM     11  C   UNL     1       8.771  -4.669  26.057  0.00  0.00    +0.035 C 
ENDBRANCH   1  11
BRANCH   4  12
ATOM     12  C   UNL     1      10.462  -0.179  23.531  0.00  0.00    +0.194 C 
BRANCH  12  13
ATOM     13  O   UNL     1      10.290   0.661  22.382  0.00  0.00    -0.383 OA
ATOM     14  H   UNL     1       9.555   1.263  22.592  0.00  0.00    +0.210 HD
ENDBRANCH  12  13
BRANCH  12  15
ATOM     15  C   UNL     1      10.268   0.674  24.807  0.00  0.00    +0.120 C 
BRANCH  15  16
ATOM     16  N   UNL     1       8.960   0.516  25.454  0.00  0.00    -0.308 NA
ATOM     17  H   UNL     1       9.084   0.329  26.448  0.00  0.00    +0.123 HD
BRANCH  16  18
ATOM     18  C   UNL     1       8.002   1.615  25.255  0.00  0.00    +0.011 C 
ATOM     19  C   UNL     1       7.191   1.890  26.531  0.00  0.00    +0.027 C 
ATOM     20  C   UNL     1       7.033   1.154  24.148  0.00  0.00    +0.027 C 
ATOM     21  C   UNL     1       8.693   2.903  24.775  0.00  0.00    +0.027 C 
ENDBRANCH  16  18
ENDBRANCH  15  16
ENDBRANCH  12  15
ENDBRANCH   4  12
TORSDOF 6
ENDMDL
MODEL 9
REMARK VINA RESULT:      -5.3      2.011      5.984
REMARK  Name = 
REMARK  10 active torsions:
REMARK  status: ('A' for Active; 'I' for Inactive)
REMARK    1  A    between atoms: C_1  and  C_2
REMARK    2  A    between atoms: C_2  and  C_3
REMARK    3  A    between atoms: C_10  and  C_12
REMARK    4  A    between atoms: C_12  and  O_13
REMARK    5  A    between atoms: C_12  and  C_14
REMARK    6  A    between atoms: C_14  and  N_15
REMARK    7  A    between atoms: N_15  and  C_16
REMARK    8  A    between atoms: C_16  and  C_17
REMARK    9  A    between atoms: C_16  and  C_18
REMARK   10  A    between atoms: C_16  and  C_19
REMARK                            x       y       z     vdW  Elec       q    Type
REMARK                         _______ _______ _______ _____ _____    ______ ____
ROOT
ATOM      1  C   UNL     1       7.317   3.166  22.987  0.00  0.00    -0.005 A 
ATOM      2  C   UNL     1       8.251   2.143  22.788  0.00  0.00    +0.138 A 
ATOM      3  O   UNL     1       7.979   0.911  22.275  0.00  0.00    -0.457 OA
ATOM      4  C   UNL     1       9.158   0.229  22.188  0.00  0.00    +0.136 A 
ATOM      5  C   UNL     1      10.182   1.005  22.693  0.00  0.00    +0.056 A 
ATOM      6  C   UNL     1       9.606   2.242  23.084  0.00  0.00    +0.021 A 
ATOM      7  C   UNL     1      10.093   3.436  23.637  0.00  0.00    +0.012 A 
ATOM      8  C   UNL     1       9.192   4.483  23.865  0.00  0.00    +0.001 A 
ATOM      9  C   UNL     1       7.837   4.353  23.541  0.00  0.00    +0.007 A 
ENDROOT
BRANCH   1  11
ATOM     10  C   UNL     1       5.143   4.388  22.789  0.00  0.00    +0.009 C 
ATOM     11  C   UNL     1       5.868   3.063  22.600  0.00  0.00    +0.035 C 
ENDBRANCH   1  11
BRANCH   4  12
ATOM     12  C   UNL     1       9.142  -1.143  21.602  0.00  0.00    +0.194 C 
BRANCH  12  13
ATOM     13  O   UNL     1      10.496  -1.612  21.634  0.00  0.00    -0.383 OA
ATOM     14  H   UNL     1      10.515  -2.424  21.096  0.00  0.00    +0.210 HD
ENDBRANCH  12  13
BRANCH  12  15
ATOM     15  C   UNL     1       8.240  -2.171  22.326  0.00  0.00    +0.120 C 
BRANCH  15  16
ATOM     16  N   UNL     1       7.650  -1.688  23.582  0.00  0.00    -0.308 NA
ATOM     17  H   UNL     1       6.651  -1.886  23.595  0.00  0.00    +0.123 HD
BRANCH  16  18
ATOM     18  C   UNL     1       8.284  -2.167  24.820  0.00  0.00    +0.011 C 
ATOM     19  C   UNL     1       9.296  -3.288  24.534  0.00  0.00    +0.027 C 
ATOM     20  C   UNL     1       7.152  -2.740  25.696  0.00  0.00    +0.027 C 
ATOM     21  C   UNL     1       8.958  -1.027  25.602  0.00  0.00    +0.027 C 
ENDBRANCH  16  18
ENDBRANCH  15  16
ENDBRANCH  12  15
ENDBRANCH   4  12
TORSDOF 6
ENDMDL
