MODEL 1
REMARK VINA RESULT:      -4.5      0.000      0.000
REMARK  Name = 
REMARK  6 active torsions:
REMARK  status: ('A' for Active; 'I' for Inactive)
REMARK    1  A    between atoms: N_1  and  CA_2
REMARK    2  A    between atoms: CA_2  and  C_4
REMARK    3  A    between atoms: CA_2  and  C_10
REMARK    4  A    between atoms: C_4  and  N_5
REMARK    5  A    between atoms: N_8  and  O_9
REMARK    6  A    between atoms: C_10  and  O_11
REMARK                            x       y       z     vdW  Elec       q    Type
REMARK                         _______ _______ _______ _____ _____    ______ ____
ROOT
ATOM      1  C   UNL     1       6.825  -4.630  25.301  0.00  0.00    +0.273 C 
ENDROOT
BRANCH   1   2
ATOM      2  N   UNL     1       5.922  -5.434  24.470  0.00  0.00    -0.109 NA
ATOM      3  C   UNL     1       6.040  -5.333  23.190  0.00  0.00    +0.407 C 
ATOM      4  N   UNL     1       5.235  -6.087  22.375  0.00  0.00    -0.142 N 
ATOM      5  H   UNL     1       4.823  -6.883  22.857  0.00  0.00    +0.299 HD
ATOM      6  N   UNL     1       6.891  -4.525  22.497  0.00  0.00    -0.287 N 
ATOM      7  H   UNL     1       7.249  -4.997  21.671  0.00  0.00    +0.255 HD
ATOM      8  H   UNL     1       7.642  -4.112  23.032  0.00  0.00    +0.255 HD
BRANCH   4   9
ATOM      9  O   UNL     1       5.768  -6.377  21.113  0.00  0.00    -0.233 OA
ATOM     10  H   UNL     1       6.609  -5.878  21.128  0.00  0.00    +0.262 HD
ENDBRANCH   4   9
ENDBRANCH   1   2
BRANCH   1  11
ATOM     11  CA  UNL     1       8.004  -5.499  25.755  0.00  0.00    +0.198 C 
BRANCH  11  12
ATOM     12  N   UNL     1       8.113  -5.580  27.250  0.00  0.00    -0.316 NA
ATOM     13  H1  UNL     1       8.246  -4.621  27.593  0.00  0.00    +0.119 HD
ATOM     14  H2  UNL     1       7.154  -5.778  27.567  0.00  0.00    +0.119 HD
ENDBRANCH  11  12
BRANCH  11  15
ATOM     15  C   UNL     1       9.320  -4.945  25.196  0.00  0.00    +0.325 C 
ATOM     16  OXT UNL     1       9.422  -4.095  24.326  0.00  0.00    -0.249 OA
BRANCH  15  17
ATOM     17  O   UNL     1      10.386  -5.548  25.784  0.00  0.00    -0.479 OA
ATOM     18  H   UNL     1      11.014  -5.759  25.045  0.00  0.00    +0.295 HD
ENDBRANCH  15  17
ENDBRANCH  11  15
ENDBRANCH   1  11
TORSDOF 6
ENDMDL
MODEL 2
REMARK VINA RESULT:      -4.5      1.566      4.460
REMARK  Name = 
REMARK  6 active torsions:
REMARK  status: ('A' for Active; 'I' for Inactive)
REMARK    1  A    between atoms: N_1  and  CA_2
REMARK    2  A    between atoms: CA_2  and  C_4
REMARK    3  A    between atoms: CA_2  and  C_10
REMARK    4  A    between atoms: C_4  and  N_5
REMARK    5  A    between atoms: N_8  and  O_9
REMARK    6  A    between atoms: C_10  and  O_11
REMARK                            x       y       z     vdW  Elec       q    Type
REMARK                         _______ _______ _______ _____ _____    ______ ____
ROOT
ATOM      1  C   UNL     1       5.583  -5.626  25.280  0.00  0.00    +0.273 C 
ENDROOT
BRANCH   1   2
ATOM      2  N   UNL     1       6.886  -5.244  24.725  0.00  0.00    -0.109 NA
ATOM      3  C   UNL     1       7.916  -5.347  25.494  0.00  0.00    +0.407 C 
ATOM      4  N   UNL     1       9.157  -5.027  25.008  0.00  0.00    -0.142 N 
ATOM      5  H   UNL     1       9.192  -5.025  23.991  0.00  0.00    +0.299 HD
ATOM      6  N   UNL     1       7.939  -5.736  26.800  0.00  0.00    -0.287 N 
ATOM      7  H   UNL     1       8.758  -6.304  26.996  0.00  0.00    +0.255 HD
ATOM      8  H   UNL     1       7.099  -6.179  27.144  0.00  0.00    +0.255 HD
BRANCH   4   9
ATOM      9  O   UNL     1      10.228  -5.678  25.632  0.00  0.00    -0.233 OA
ATOM     10  H   UNL     1      10.889  -5.719  24.912  0.00  0.00    +0.262 HD
ENDBRANCH   4   9
ENDBRANCH   1   2
BRANCH   1  11
ATOM     11  CA  UNL     1       4.641  -6.023  24.138  0.00  0.00    +0.198 C 
BRANCH  11  12
ATOM     12  N   UNL     1       4.378  -7.501  24.099  0.00  0.00    -0.316 NA
ATOM     13  H1  UNL     1       3.628  -7.653  23.414  0.00  0.00    +0.119 HD
ATOM     14  H2  UNL     1       5.190  -7.893  23.603  0.00  0.00    +0.119 HD
ENDBRANCH  11  12
BRANCH  11  15
ATOM     15  C   UNL     1       5.230  -5.594  22.789  0.00  0.00    +0.325 C 
ATOM     16  OXT UNL     1       4.996  -4.545  22.211  0.00  0.00    -0.249 OA
BRANCH  15  17
ATOM     17  O   UNL     1       6.045  -6.560  22.289  0.00  0.00    -0.479 OA
ATOM     18  H   UNL     1       6.270  -6.269  21.368  0.00  0.00    +0.295 HD
ENDBRANCH  15  17
ENDBRANCH  11  15
ENDBRANCH   1  11
TORSDOF 6
ENDMDL
MODEL 3
REMARK VINA RESULT:      -4.5      6.072      7.292
REMARK  Name = 
REMARK  6 active torsions:
REMARK  status: ('A' for Active; 'I' for Inactive)
REMARK    1  A    between atoms: N_1  and  CA_2
REMARK    2  A    between atoms: CA_2  and  C_4
REMARK    3  A    between atoms: CA_2  and  C_10
REMARK    4  A    between atoms: C_4  and  N_5
REMARK    5  A    between atoms: N_8  and  O_9
REMARK    6  A    between atoms: C_10  and  O_11
REMARK                            x       y       z     vdW  Elec       q    Type
REMARK                         _______ _______ _______ _____ _____    ______ ____
ROOT
ATOM      1  C   UNL     1       8.231   0.395  22.870  0.00  0.00    +0.273 C 
ENDROOT
BRANCH   1   2
ATOM      2  N   UNL     1       9.198   1.212  23.612  0.00  0.00    -0.109 NA
ATOM      3  C   UNL     1       9.956   2.003  22.932  0.00  0.00    +0.407 C 
ATOM      4  N   UNL     1      10.856   2.805  23.586  0.00  0.00    -0.142 N 
ATOM      5  H   UNL     1      10.633   2.922  24.572  0.00  0.00    +0.299 HD
ATOM      6  N   UNL     1      10.000   2.149  21.577  0.00  0.00    -0.287 N 
ATOM      7  H   UNL     1      10.143   3.121  21.320  0.00  0.00    +0.255 HD
ATOM      8  H   UNL     1       9.227   1.748  21.065  0.00  0.00    +0.255 HD
BRANCH   4   9
ATOM      9  O   UNL     1      11.199   3.985  22.917  0.00  0.00    -0.233 OA
ATOM     10  H   UNL     1      11.595   3.643  22.091  0.00  0.00    +0.262 HD
ENDBRANCH   4   9
ENDBRANCH   1   2
BRANCH   1  11
ATOM     11  CA  UNL     1       8.489  -1.088  23.162  0.00  0.00    +0.198 C 
BRANCH  11  12
ATOM     12  N   UNL     1       8.678  -1.358  24.627  0.00  0.00    -0.316 NA
ATOM     13  H1  UNL     1       7.915  -0.879  25.120  0.00  0.00    +0.119 HD
ATOM     14  H2  UNL     1       8.407  -2.345  24.742  0.00  0.00    +0.119 HD
ENDBRANCH  11  12
BRANCH  11  15
ATOM     15  C   UNL     1       9.736  -1.569  22.411  0.00  0.00    +0.325 C 
ATOM     16  OXT UNL     1      10.549  -2.379  22.826  0.00  0.00    -0.249 OA
BRANCH  15  17
ATOM     17  O   UNL     1       9.843  -0.950  21.206  0.00  0.00    -0.479 OA
ATOM     18  H   UNL     1       9.361  -1.531  20.562  0.00  0.00    +0.295 HD
ENDBRANCH  15  17
ENDBRANCH  11  15
ENDBRANCH   1  11
TORSDOF 6
ENDMDL
MODEL 4
REMARK VINA RESULT:      -4.5      8.532      9.840
REMARK  Name = 
REMARK  6 active torsions:
REMARK  status: ('A' for Active; 'I' for Inactive)
REMARK    1  A    between atoms: N_1  and  CA_2
REMARK    2  A    between atoms: CA_2  and  C_4
REMARK    3  A    between atoms: CA_2  and  C_10
REMARK    4  A    between atoms: C_4  and  N_5
REMARK    5  A    between atoms: N_8  and  O_9
REMARK    6  A    between atoms: C_10  and  O_11
REMARK                            x       y       z     vdW  Elec       q    Type
REMARK                         _______ _______ _______ _____ _____    ______ ____
ROOT
ATOM      1  C   UNL     1       9.874   2.855  23.723  0.00  0.00    +0.273 C 
ENDROOT
BRANCH   1   2
ATOM      2  N   UNL     1      11.284   3.226  23.552  0.00  0.00    -0.109 NA
ATOM      3  C   UNL     1      11.561   4.479  23.430  0.00  0.00    +0.407 C 
ATOM      4  N   UNL     1      12.867   4.873  23.295  0.00  0.00    -0.142 N 
ATOM      5  H   UNL     1      13.526   4.162  23.606  0.00  0.00    +0.299 HD
ATOM      6  N   UNL     1      10.685   5.523  23.401  0.00  0.00    -0.287 N 
ATOM      7  H   UNL     1      11.060   6.327  23.896  0.00  0.00    +0.255 HD
ATOM      8  H   UNL     1       9.743   5.318  23.704  0.00  0.00    +0.255 HD
BRANCH   4   9
ATOM      9  O   UNL     1      13.149   6.169  23.742  0.00  0.00    -0.233 OA
ATOM     10  H   UNL     1      12.289   6.619  23.615  0.00  0.00    +0.262 HD
ENDBRANCH   4   9
ENDBRANCH   1   2
BRANCH   1  11
ATOM     11  CA  UNL     1       9.730   1.334  23.595  0.00  0.00    +0.198 C 
BRANCH  11  12
ATOM     12  N   UNL     1      10.800   0.593  24.343  0.00  0.00    -0.316 NA
ATOM     13  H1  UNL     1      11.673   0.715  23.816  0.00  0.00    +0.119 HD
ATOM     14  H2  UNL     1      10.981   1.174  25.174  0.00  0.00    +0.119 HD
ENDBRANCH  11  12
BRANCH  11  15
ATOM     15  C   UNL     1       9.783   0.917  22.121  0.00  0.00    +0.325 C 
ATOM     16  OXT UNL     1       9.933  -0.223  21.709  0.00  0.00    -0.249 OA
BRANCH  15  17
ATOM     17  O   UNL     1       9.667   1.999  21.308  0.00  0.00    -0.479 OA
ATOM     18  H   UNL     1      10.581   2.175  20.965  0.00  0.00    +0.295 HD
ENDBRANCH  15  17
ENDBRANCH  11  15
ENDBRANCH   1  11
TORSDOF 6
ENDMDL
MODEL 5
REMARK VINA RESULT:      -4.4      3.605      4.843
REMARK  Name = 
REMARK  6 active torsions:
REMARK  status: ('A' for Active; 'I' for Inactive)
REMARK    1  A    between atoms: N_1  and  CA_2
REMARK    2  A    between atoms: CA_2  and  C_4
REMARK    3  A    between atoms: CA_2  and  C_10
REMARK    4  A    between atoms: C_4  and  N_5
REMARK    5  A    between atoms: N_8  and  O_9
REMARK    6  A    between atoms: C_10  and  O_11
REMARK                            x       y       z     vdW  Elec       q    Type
REMARK                         _______ _______ _______ _____ _____    ______ ____
ROOT
ATOM      1  C   UNL     1       8.916  -3.742  24.275  0.00  0.00    +0.273 C 
ENDROOT
BRANCH   1   2
ATOM      2  N   UNL     1       9.815  -2.602  24.057  0.00  0.00    -0.109 NA
ATOM      3  C   UNL     1       9.468  -1.466  24.559  0.00  0.00    +0.407 C 
ATOM      4  N   UNL     1      10.291  -0.379  24.404  0.00  0.00    -0.142 N 
ATOM      5  H   UNL     1      11.245  -0.640  24.165  0.00  0.00    +0.299 HD
ATOM      6  N   UNL     1       8.328  -1.176  25.246  0.00  0.00    -0.287 N 
ATOM      7  H   UNL     1       8.515  -0.528  26.006  0.00  0.00    +0.255 HD
ATOM      8  H   UNL     1       7.793  -1.970  25.570  0.00  0.00    +0.255 HD
BRANCH   4   9
ATOM      9  O   UNL     1      10.180   0.599  25.399  0.00  0.00    -0.233 OA
ATOM     10  H   UNL     1      10.411   1.414  24.909  0.00  0.00    +0.262 HD
ENDBRANCH   4   9
ENDBRANCH   1   2
BRANCH   1  11
ATOM     11  CA  UNL     1       9.380  -4.524  25.509  0.00  0.00    +0.198 C 
BRANCH  11  12
ATOM     12  N   UNL     1       9.851  -5.908  25.167  0.00  0.00    -0.316 NA
ATOM     13  H1  UNL     1       9.366  -6.185  24.305  0.00  0.00    +0.119 HD
ATOM     14  H2  UNL     1      10.813  -5.774  24.826  0.00  0.00    +0.119 HD
ENDBRANCH  11  12
BRANCH  11  15
ATOM     15  C   UNL     1       8.241  -4.632  26.529  0.00  0.00    +0.325 C 
ATOM     16  OXT UNL     1       7.486  -3.729  26.852  0.00  0.00    -0.249 OA
BRANCH  15  17
ATOM     17  O   UNL     1       8.188  -5.880  27.065  0.00  0.00    -0.479 OA
ATOM     18  H   UNL     1       8.073  -5.748  28.041  0.00  0.00    +0.295 HD
ENDBRANCH  15  17
ENDBRANCH  11  15
ENDBRANCH   1  11
TORSDOF 6
ENDMDL
MODEL 6
REMARK VINA RESULT:      -4.4      2.426      4.333
REMARK  Name = 
REMARK  6 active torsions:
REMARK  status: ('A' for Active; 'I' for Inactive)
REMARK    1  A    between atoms: N_1  and  CA_2
REMARK    2  A    between atoms: CA_2  and  C_4
REMARK    3  A    between atoms: CA_2  and  C_10
REMARK    4  A    between atoms: C_4  and  N_5
REMARK    5  A    between atoms: N_8  and  O_9
REMARK    6  A    between atoms: C_10  and  O_11
REMARK                            x       y       z     vdW  Elec       q    Type
REMARK                         _______ _______ _______ _____ _____    ______ ____
ROOT
ATOM      1  C   UNL     1       6.140  -4.992  26.501  0.00  0.00    +0.273 C 
ENDROOT
BRANCH   1   2
ATOM      2  N   UNL     1       7.423  -5.705  26.528  0.00  0.00    -0.109 NA
ATOM      3  C   UNL     1       8.306  -5.378  25.647  0.00  0.00    +0.407 C 
ATOM      4  N   UNL     1       9.529  -5.998  25.652  0.00  0.00    -0.142 N 
ATOM      5  H   UNL     1       9.737  -6.448  26.541  0.00  0.00    +0.299 HD
ATOM      6  N   UNL     1       8.179  -4.461  24.646  0.00  0.00    -0.287 N 
ATOM      7  H   UNL     1       9.045  -3.948  24.511  0.00  0.00    +0.255 HD
ATOM      8  H   UNL     1       7.392  -3.831  24.722  0.00  0.00    +0.255 HD
BRANCH   4   9
ATOM      9  O   UNL     1      10.580  -5.248  25.113  0.00  0.00    -0.233 OA
ATOM     10  H   UNL     1      11.047  -5.914  24.569  0.00  0.00    +0.262 HD
ENDBRANCH   4   9
ENDBRANCH   1   2
BRANCH   1  11
ATOM     11  CA  UNL     1       4.996  -6.011  26.452  0.00  0.00    +0.198 C 
BRANCH  11  12
ATOM     12  N   UNL     1       5.231  -7.182  27.363  0.00  0.00    -0.316 NA
ATOM     13  H1  UNL     1       6.188  -7.091  27.724  0.00  0.00    +0.119 HD
ATOM     14  H2  UNL     1       4.675  -6.969  28.202  0.00  0.00    +0.119 HD
ENDBRANCH  11  12
BRANCH  11  15
ATOM     15  C   UNL     1       4.807  -6.532  25.023  0.00  0.00    +0.325 C 
ATOM     16  OXT UNL     1       4.305  -7.601  24.715  0.00  0.00    -0.249 OA
BRANCH  15  17
ATOM     17  O   UNL     1       5.302  -5.648  24.117  0.00  0.00    -0.479 OA
ATOM     18  H   UNL     1       6.287  -5.765  24.140  0.00  0.00    +0.295 HD
ENDBRANCH  15  17
ENDBRANCH  11  15
ENDBRANCH   1  11
TORSDOF 6
ENDMDL
MODEL 7
REMARK VINA RESULT:      -4.4      1.872      2.090
REMARK  Name = 
REMARK  6 active torsions:
REMARK  status: ('A' for Active; 'I' for Inactive)
REMARK    1  A    between atoms: N_1  and  CA_2
REMARK    2  A    between atoms: CA_2  and  C_4
REMARK    3  A    between atoms: CA_2  and  C_10
REMARK    4  A    between atoms: C_4  and  N_5
REMARK    5  A    between atoms: N_8  and  O_9
REMARK    6  A    between atoms: C_10  and  O_11
REMARK                            x       y       z     vdW  Elec       q    Type
REMARK                         _______ _______ _______ _____ _____    ______ ____
ROOT
ATOM      1  C   UNL     1       8.446  -4.133  24.287  0.00  0.00    +0.273 C 
ENDROOT
BRANCH   1   2
ATOM      2  N   UNL     1       8.157  -5.252  23.384  0.00  0.00    -0.109 NA
ATOM      3  C   UNL     1       6.949  -5.371  22.949  0.00  0.00    +0.407 C 
ATOM      4  N   UNL     1       6.640  -6.387  22.081  0.00  0.00    -0.142 N 
ATOM      5  H   UNL     1       7.461  -6.775  21.623  0.00  0.00    +0.299 HD
ATOM      6  N   UNL     1       5.875  -4.593  23.263  0.00  0.00    -0.287 N 
ATOM      7  H   UNL     1       5.282  -4.447  22.451  0.00  0.00    +0.255 HD
ATOM      8  H   UNL     1       6.082  -3.718  23.722  0.00  0.00    +0.255 HD
BRANCH   4   9
ATOM      9  O   UNL     1       5.556  -6.136  21.232  0.00  0.00    -0.233 OA
ATOM     10  H   UNL     1       5.805  -5.278  20.833  0.00  0.00    +0.262 HD
ENDBRANCH   4   9
ENDBRANCH   1   2
BRANCH   1  11
ATOM     11  CA  UNL     1       8.880  -4.681  25.652  0.00  0.00    +0.198 C 
BRANCH  11  12
ATOM     12  N   UNL     1       9.734  -5.910  25.531  0.00  0.00    -0.316 NA
ATOM     13  H1  UNL     1       9.398  -6.428  24.710  0.00  0.00    +0.119 HD
ATOM     14  H2  UNL     1      10.641  -5.559  25.193  0.00  0.00    +0.119 HD
ENDBRANCH  11  12
BRANCH  11  15
ATOM     15  C   UNL     1       7.651  -5.020  26.504  0.00  0.00    +0.325 C 
ATOM     16  OXT UNL     1       6.530  -4.562  26.350  0.00  0.00    -0.249 OA
BRANCH  15  17
ATOM     17  O   UNL     1       7.975  -5.894  27.493  0.00  0.00    -0.479 OA
ATOM     18  H   UNL     1       7.160  -6.439  27.645  0.00  0.00    +0.295 HD
ENDBRANCH  15  17
ENDBRANCH  11  15
ENDBRANCH   1  11
TORSDOF 6
ENDMDL
MODEL 8
REMARK VINA RESULT:      -4.4      3.231      4.024
REMARK  Name = 
REMARK  6 active torsions:
REMARK  status: ('A' for Active; 'I' for Inactive)
REMARK    1  A    between atoms: N_1  and  CA_2
REMARK    2  A    between atoms: CA_2  and  C_4
REMARK    3  A    between atoms: CA_2  and  C_10
REMARK    4  A    between atoms: C_4  and  N_5
REMARK    5  A    between atoms: N_8  and  O_9
REMARK    6  A    between atoms: C_10  and  O_11
REMARK                            x       y       z     vdW  Elec       q    Type
REMARK                         _______ _______ _______ _____ _____    ______ ____
ROOT
ATOM      1  C   UNL     1       8.900  -3.255  25.797  0.00  0.00    +0.273 C 
ENDROOT
BRANCH   1   2
ATOM      2  N   UNL     1       8.741  -3.268  24.338  0.00  0.00    -0.109 NA
ATOM      3  C   UNL     1       9.264  -2.295  23.673  0.00  0.00    +0.407 C 
ATOM      4  N   UNL     1       9.163  -2.281  22.305  0.00  0.00    -0.142 N 
ATOM      5  H   UNL     1       8.946  -3.196  21.918  0.00  0.00    +0.299 HD
ATOM      6  N   UNL     1       9.925  -1.211  24.169  0.00  0.00    -0.287 N 
ATOM      7  H   UNL     1      10.707  -0.958  23.573  0.00  0.00    +0.255 HD
ATOM      8  H   UNL     1      10.211  -1.273  25.136  0.00  0.00    +0.255 HD
BRANCH   4   9
ATOM      9  O   UNL     1      10.181  -1.588  21.640  0.00  0.00    -0.233 OA
ATOM     10  H   UNL     1      10.677  -2.315  21.214  0.00  0.00    +0.262 HD
ENDBRANCH   4   9
ENDBRANCH   1   2
BRANCH   1  11
ATOM     11  CA  UNL     1       9.121  -4.688  26.296  0.00  0.00    +0.198 C 
BRANCH  11  12
ATOM     12  N   UNL     1       9.844  -5.539  25.292  0.00  0.00    -0.316 NA
ATOM     13  H1  UNL     1      10.840  -5.296  25.356  0.00  0.00    +0.119 HD
ATOM     14  H2  UNL     1       9.837  -6.483  25.705  0.00  0.00    +0.119 HD
ENDBRANCH  11  12
BRANCH  11  15
ATOM     15  C   UNL     1       7.777  -5.350  26.624  0.00  0.00    +0.325 C 
ATOM     16  OXT UNL     1       7.455  -5.807  27.709  0.00  0.00    -0.249 OA
BRANCH  15  17
ATOM     17  O   UNL     1       6.978  -5.392  25.525  0.00  0.00    -0.479 OA
ATOM     18  H   UNL     1       6.248  -6.025  25.749  0.00  0.00    +0.295 HD
ENDBRANCH  15  17
ENDBRANCH  11  15
ENDBRANCH   1  11
TORSDOF 6
ENDMDL
MODEL 9
REMARK VINA RESULT:      -4.3      3.272      4.670
REMARK  Name = 
REMARK  6 active torsions:
REMARK  status: ('A' for Active; 'I' for Inactive)
REMARK    1  A    between atoms: N_1  and  CA_2
REMARK    2  A    between atoms: CA_2  and  C_4
REMARK    3  A    between atoms: CA_2  and  C_10
REMARK    4  A    between atoms: C_4  and  N_5
REMARK    5  A    between atoms: N_8  and  O_9
REMARK    6  A    between atoms: C_10  and  O_11
REMARK                            x       y       z     vdW  Elec       q    Type
REMARK                         _______ _______ _______ _____ _____    ______ ____
ROOT
ATOM      1  C   UNL     1       9.402  -3.308  24.305  0.00  0.00    +0.273 C 
ENDROOT
BRANCH   1   2
ATOM      2  N   UNL     1       8.287  -4.100  24.838  0.00  0.00    -0.109 NA
ATOM      3  C   UNL     1       8.538  -4.897  25.820  0.00  0.00    +0.407 C 
ATOM      4  N   UNL     1       7.521  -5.636  26.368  0.00  0.00    -0.142 N 
ATOM      5  H   UNL     1       6.601  -5.262  26.146  0.00  0.00    +0.299 HD
ATOM      6  N   UNL     1       9.744  -5.131  26.411  0.00  0.00    -0.287 N 
ATOM      7  H   UNL     1       9.641  -5.247  27.415  0.00  0.00    +0.255 HD
ATOM      8  H   UNL     1      10.477  -4.471  26.195  0.00  0.00    +0.255 HD
BRANCH   4   9
ATOM      9  O   UNL     1       7.701  -5.997  27.708  0.00  0.00    -0.233 OA
ATOM     10  H   UNL     1       7.773  -5.125  28.146  0.00  0.00    +0.262 HD
ENDBRANCH   4   9
ENDBRANCH   1   2
BRANCH   1  11
ATOM     11  CA  UNL     1       8.846  -2.149  23.469  0.00  0.00    +0.198 C 
BRANCH  11  12
ATOM     12  N   UNL     1       8.001  -2.624  22.322  0.00  0.00    -0.316 NA
ATOM     13  H1  UNL     1       8.006  -1.877  21.617  0.00  0.00    +0.119 HD
ATOM     14  H2  UNL     1       8.575  -3.343  21.861  0.00  0.00    +0.119 HD
ENDBRANCH  11  12
BRANCH  11  15
ATOM     15  C   UNL     1       9.992  -1.297  22.913  0.00  0.00    +0.325 C 
ATOM     16  OXT UNL     1      10.553  -0.386  23.502  0.00  0.00    -0.249 OA
BRANCH  15  17
ATOM     17  O   UNL     1      10.299  -1.668  21.642  0.00  0.00    -0.479 OA
ATOM     18  H   UNL     1      11.272  -1.862  21.648  0.00  0.00    +0.295 HD
ENDBRANCH  15  17
ENDBRANCH  11  15
ENDBRANCH   1  11
TORSDOF 6
ENDMDL
