MODEL 1
REMARK VINA RESULT:      -7.3      0.000      0.000
REMARK  Name = 
REMARK  5 active torsions:
REMARK  status: ('A' for Active; 'I' for Inactive)
REMARK    1  A    between atoms: C_2  and  N_22
REMARK    2  A    between atoms: C_7  and  N_9
REMARK    3  A    between atoms: C_10  and  C_12
REMARK    4  A    between atoms: N_17  and  C_18
REMARK    5  A    between atoms: C_23  and  C_25
REMARK                            x       y       z     vdW  Elec       q    Type
REMARK                         _______ _______ _______ _____ _____    ______ ____
ROOT
ATOM      1  C   UNL     1       9.837   4.622  23.951  0.00  0.00    +0.093 C 
ATOM      2  C   UNL     1      10.798   3.608  23.259  0.00  0.00    +0.093 C 
ATOM      3  C   UNL     1      12.270   3.907  23.588  0.00  0.00    +0.024 C 
ATOM      4  C   UNL     1      12.647   5.357  23.313  0.00  0.00    +0.002 C 
ATOM      5  C   UNL     1      11.734   6.311  24.069  0.00  0.00    +0.002 C 
ATOM      6  C   UNL     1      10.280   6.074  23.702  0.00  0.00    +0.024 C 
ENDROOT
BRANCH   1   7
ATOM      7  N   UNL     1       8.443   4.480  23.505  0.00  0.00    -0.306 N 
ATOM      8  H   UNL     1       8.122   5.066  22.748  0.00  0.00    +0.149 HD
ATOM      9  C   UNL     1       7.509   3.722  24.170  0.00  0.00    +0.261 C 
ATOM     10  O   UNL     1       7.788   3.065  25.168  0.00  0.00    -0.269 OA
BRANCH   9  11
ATOM     11  C   UNL     1       6.155   3.821  23.663  0.00  0.00    +0.103 A 
ATOM     12  N   UNL     1       5.517   5.040  23.587  0.00  0.00    -0.351 N 
ATOM     13  H   UNL     1       5.929   5.905  23.910  0.00  0.00    +0.166 HD
ATOM     14  C   UNL     1       4.324   4.933  22.910  0.00  0.00    +0.047 A 
ATOM     15  C   UNL     1       3.418   5.923  22.511  0.00  0.00    +0.027 A 
ATOM     16  C   UNL     1       2.293   5.515  21.788  0.00  0.00    +0.022 A 
ATOM     17  C   UNL     1       2.078   4.168  21.506  0.00  0.00    +0.042 A 
ATOM     18  C   UNL     1       2.975   3.185  21.940  0.00  0.00    +0.030 A 
ATOM     19 CL   UNL     1       0.698   3.705  20.584  0.00  0.00    -0.084 Cl
ATOM     20  C   UNL     1       4.131   3.580  22.643  0.00  0.00    +0.002 A 
ATOM     21  C   UNL     1       5.262   2.886  23.164  0.00  0.00    +0.041 A 
ENDBRANCH   9  11
ENDBRANCH   1   7
BRANCH   2  22
ATOM     22  N   UNL     1      10.492   2.232  23.631  0.00  0.00    -0.305 N 
ATOM     23  H   UNL     1      10.529   1.950  24.613  0.00  0.00    +0.149 HD
ATOM     24  C   UNL     1      10.011   1.287  22.745  0.00  0.00    +0.269 C 
ATOM     25  O   UNL     1       9.854   1.540  21.551  0.00  0.00    -0.268 OA
BRANCH  24  26
ATOM     26  C   UNL     1       9.680   0.014  23.383  0.00  0.00    +0.163 A 
ATOM     27  S   UNL     1       9.579  -1.442  22.471  0.00  0.00    -0.066 S 
ATOM     28  C   UNL     1       8.973  -2.235  23.849  0.00  0.00    +0.027 A 
ATOM     29  C   UNL     1       8.518  -3.659  23.887  0.00  0.00    +0.128 C 
ATOM     30  N   UNL     1       7.704  -3.954  25.096  0.00  0.00    -0.300 NA
ATOM     31  C   UNL     1       8.294  -3.332  26.308  0.00  0.00    +0.090 C 
ATOM     32  C   UNL     1       8.443  -1.793  26.258  0.00  0.00    +0.071 C 
ATOM     33  C   UNL     1       6.306  -3.561  24.912  0.00  0.00    +0.105 C 
ATOM     34  C   UNL     1       8.964  -1.376  24.927  0.00  0.00    +0.055 A 
ATOM     35  N   UNL     1       9.377  -0.088  24.669  0.00  0.00    -0.239 NA
ENDBRANCH  24  26
ENDBRANCH   2  22
TORSDOF 4
ENDMDL
MODEL 2
REMARK VINA RESULT:      -7.1      2.971      7.396
REMARK  Name = 
REMARK  5 active torsions:
REMARK  status: ('A' for Active; 'I' for Inactive)
REMARK    1  A    between atoms: C_2  and  N_22
REMARK    2  A    between atoms: C_7  and  N_9
REMARK    3  A    between atoms: C_10  and  C_12
REMARK    4  A    between atoms: N_17  and  C_18
REMARK    5  A    between atoms: C_23  and  C_25
REMARK                            x       y       z     vdW  Elec       q    Type
REMARK                         _______ _______ _______ _____ _____    ______ ____
ROOT
ATOM      1  C   UNL     1      10.137   3.682  23.335  0.00  0.00    +0.093 C 
ATOM      2  C   UNL     1       9.436   4.766  24.209  0.00  0.00    +0.093 C 
ATOM      3  C   UNL     1      10.035   6.162  23.971  0.00  0.00    +0.024 C 
ATOM      4  C   UNL     1      11.551   6.180  24.116  0.00  0.00    +0.002 C 
ATOM      5  C   UNL     1      12.199   5.162  23.188  0.00  0.00    +0.002 C 
ATOM      6  C   UNL     1      11.668   3.766  23.459  0.00  0.00    +0.024 C 
ENDROOT
BRANCH   1   7
ATOM      7  N   UNL     1       9.718   2.316  23.678  0.00  0.00    -0.306 N 
ATOM      8  H   UNL     1      10.063   1.913  24.537  0.00  0.00    +0.149 HD
ATOM      9  C   UNL     1       9.027   1.497  22.818  0.00  0.00    +0.261 C 
ATOM     10  O   UNL     1       8.664   1.870  21.707  0.00  0.00    -0.269 OA
BRANCH   9  11
ATOM     11  C   UNL     1       8.830   0.138  23.278  0.00  0.00    +0.103 A 
ATOM     12  N   UNL     1       7.942  -0.702  22.640  0.00  0.00    -0.351 N 
ATOM     13  H   UNL     1       7.363  -0.413  21.863  0.00  0.00    +0.166 HD
ATOM     14  C   UNL     1       8.047  -1.989  23.116  0.00  0.00    +0.047 A 
ATOM     15  C   UNL     1       7.425  -3.167  22.685  0.00  0.00    +0.027 A 
ATOM     16  C   UNL     1       7.763  -4.353  23.344  0.00  0.00    +0.022 A 
ATOM     17  C   UNL     1       8.664  -4.345  24.407  0.00  0.00    +0.042 A 
ATOM     18  C   UNL     1       9.253  -3.155  24.849  0.00  0.00    +0.030 A 
ATOM     19 CL   UNL     1       9.082  -5.831  25.173  0.00  0.00    -0.084 Cl
ATOM     20  C   UNL     1       8.949  -1.954  24.177  0.00  0.00    +0.002 A 
ATOM     21  C   UNL     1       9.395  -0.606  24.302  0.00  0.00    +0.041 A 
ENDBRANCH   9  11
ENDBRANCH   1   7
BRANCH   2  22
ATOM     22  N   UNL     1       7.999   4.812  23.966  0.00  0.00    -0.305 N 
ATOM     23  H   UNL     1       7.634   5.343  23.174  0.00  0.00    +0.149 HD
ATOM     24  C   UNL     1       7.077   4.057  24.669  0.00  0.00    +0.269 C 
ATOM     25  O   UNL     1       7.415   3.322  25.596  0.00  0.00    -0.268 OA
BRANCH  24  26
ATOM     26  C   UNL     1       5.713   4.200  24.165  0.00  0.00    +0.163 A 
ATOM     27  S   UNL     1       4.575   2.916  24.297  0.00  0.00    -0.066 S 
ATOM     28  C   UNL     1       3.492   3.808  23.334  0.00  0.00    +0.027 A 
ATOM     29  C   UNL     1       2.157   3.321  22.870  0.00  0.00    +0.128 C 
ATOM     30  N   UNL     1       1.616   4.145  21.757  0.00  0.00    -0.300 NA
ATOM     31  C   UNL     1       1.831   5.593  22.006  0.00  0.00    +0.090 C 
ATOM     32  C   UNL     1       3.307   6.024  22.179  0.00  0.00    +0.071 C 
ATOM     33  C   UNL     1       2.164   3.730  20.465  0.00  0.00    +0.105 C 
ATOM     34  C   UNL     1       4.023   5.047  23.044  0.00  0.00    +0.055 A 
ATOM     35  N   UNL     1       5.291   5.281  23.525  0.00  0.00    -0.239 NA
ENDBRANCH  24  26
ENDBRANCH   2  22
TORSDOF 4
ENDMDL
MODEL 3
REMARK VINA RESULT:      -6.9      3.888      6.444
REMARK  Name = 
REMARK  5 active torsions:
REMARK  status: ('A' for Active; 'I' for Inactive)
REMARK    1  A    between atoms: C_2  and  N_22
REMARK    2  A    between atoms: C_7  and  N_9
REMARK    3  A    between atoms: C_10  and  C_12
REMARK    4  A    between atoms: N_17  and  C_18
REMARK    5  A    between atoms: C_23  and  C_25
REMARK                            x       y       z     vdW  Elec       q    Type
REMARK                         _______ _______ _______ _____ _____    ______ ____
ROOT
ATOM      1  C   UNL     1       5.782   1.652  27.445  0.00  0.00    +0.093 C 
ATOM      2  C   UNL     1       6.034   0.200  27.953  0.00  0.00    +0.093 C 
ATOM      3  C   UNL     1       4.932  -0.262  28.922  0.00  0.00    +0.024 C 
ATOM      4  C   UNL     1       4.700   0.728  30.056  0.00  0.00    +0.002 C 
ATOM      5  C   UNL     1       4.381   2.114  29.516  0.00  0.00    +0.002 C 
ATOM      6  C   UNL     1       5.493   2.612  28.611  0.00  0.00    +0.024 C 
ENDROOT
BRANCH   1   7
ATOM      7  N   UNL     1       6.911   2.188  26.671  0.00  0.00    -0.306 N 
ATOM      8  H   UNL     1       7.634   2.689  27.167  0.00  0.00    +0.149 HD
ATOM      9  C   UNL     1       6.953   2.194  25.297  0.00  0.00    +0.261 C 
ATOM     10  O   UNL     1       6.061   1.704  24.612  0.00  0.00    -0.269 OA
BRANCH   9  11
ATOM     11  C   UNL     1       8.079   2.894  24.714  0.00  0.00    +0.103 A 
ATOM     12  N   UNL     1       8.171   4.267  24.786  0.00  0.00    -0.351 N 
ATOM     13  H   UNL     1       7.458   4.852  25.202  0.00  0.00    +0.166 HD
ATOM     14  C   UNL     1       9.396   4.706  24.340  0.00  0.00    +0.047 A 
ATOM     15  C   UNL     1       9.952   5.991  24.339  0.00  0.00    +0.027 A 
ATOM     16  C   UNL     1      11.256   6.130  23.853  0.00  0.00    +0.022 A 
ATOM     17  C   UNL     1      11.954   5.028  23.363  0.00  0.00    +0.042 A 
ATOM     18  C   UNL     1      11.374   3.755  23.339  0.00  0.00    +0.030 A 
ATOM     19 CL   UNL     1      13.571   5.232  22.803  0.00  0.00    -0.084 Cl
ATOM     20  C   UNL     1      10.073   3.589  23.855  0.00  0.00    +0.002 A 
ATOM     21  C   UNL     1       9.217   2.466  24.047  0.00  0.00    +0.041 A 
ENDBRANCH   9  11
ENDBRANCH   1   7
BRANCH   2  22
ATOM     22  N   UNL     1       6.133  -0.751  26.852  0.00  0.00    -0.305 N 
ATOM     23  H   UNL     1       5.293  -1.025  26.339  0.00  0.00    +0.149 HD
ATOM     24  C   UNL     1       7.333  -1.218  26.347  0.00  0.00    +0.269 C 
ATOM     25  O   UNL     1       8.412  -0.892  26.840  0.00  0.00    -0.268 OA
BRANCH  24  26
ATOM     26  C   UNL     1       7.170  -2.076  25.175  0.00  0.00    +0.163 A 
ATOM     27  S   UNL     1       6.101  -1.645  23.897  0.00  0.00    -0.066 S 
ATOM     28  C   UNL     1       6.361  -3.174  23.197  0.00  0.00    +0.027 A 
ATOM     29  C   UNL     1       5.674  -3.682  21.970  0.00  0.00    +0.128 C 
ATOM     30  N   UNL     1       5.812  -5.155  21.820  0.00  0.00    -0.300 NA
ATOM     31  C   UNL     1       7.192  -5.602  22.136  0.00  0.00    +0.090 C 
ATOM     32  C   UNL     1       7.686  -5.269  23.564  0.00  0.00    +0.071 C 
ATOM     33  C   UNL     1       4.815  -5.872  22.617  0.00  0.00    +0.105 C 
ATOM     34  C   UNL     1       7.296  -3.878  23.925  0.00  0.00    +0.055 A 
ATOM     35  N   UNL     1       7.771  -3.250  25.055  0.00  0.00    -0.239 NA
ENDBRANCH  24  26
ENDBRANCH   2  22
TORSDOF 4
ENDMDL
MODEL 4
REMARK VINA RESULT:      -5.8      3.168      5.106
REMARK  Name = 
REMARK  5 active torsions:
REMARK  status: ('A' for Active; 'I' for Inactive)
REMARK    1  A    between atoms: C_2  and  N_22
REMARK    2  A    between atoms: C_7  and  N_9
REMARK    3  A    between atoms: C_10  and  C_12
REMARK    4  A    between atoms: N_17  and  C_18
REMARK    5  A    between atoms: C_23  and  C_25
REMARK                            x       y       z     vdW  Elec       q    Type
REMARK                         _______ _______ _______ _____ _____    ______ ____
ROOT
ATOM      1  C   UNL     1       8.039   0.063  23.651  0.00  0.00    +0.093 C 
ATOM      2  C   UNL     1       7.901  -1.285  22.880  0.00  0.00    +0.093 C 
ATOM      3  C   UNL     1       9.178  -2.135  22.990  0.00  0.00    +0.024 C 
ATOM      4  C   UNL     1      10.431  -1.361  22.603  0.00  0.00    +0.002 C 
ATOM      5  C   UNL     1      10.568  -0.093  23.434  0.00  0.00    +0.002 C 
ATOM      6  C   UNL     1       9.343   0.790  23.280  0.00  0.00    +0.024 C 
ENDROOT
BRANCH   1   7
ATOM      7  N   UNL     1       6.913   0.976  23.407  0.00  0.00    -0.306 N 
ATOM      8  H   UNL     1       6.413   0.894  22.533  0.00  0.00    +0.149 HD
ATOM      9  C   UNL     1       6.612   2.042  24.221  0.00  0.00    +0.261 C 
ATOM     10  O   UNL     1       7.241   2.281  25.246  0.00  0.00    -0.269 OA
BRANCH   9  11
ATOM     11  C   UNL     1       5.558   2.911  23.740  0.00  0.00    +0.103 A 
ATOM     12  N   UNL     1       4.837   2.589  22.610  0.00  0.00    -0.351 N 
ATOM     13  H   UNL     1       5.024   1.772  22.045  0.00  0.00    +0.166 HD
ATOM     14  C   UNL     1       3.773   3.445  22.440  0.00  0.00    +0.047 A 
ATOM     15  C   UNL     1       2.733   3.420  21.504  0.00  0.00    +0.027 A 
ATOM     16  C   UNL     1       1.753   4.413  21.601  0.00  0.00    +0.022 A 
ATOM     17  C   UNL     1       1.835   5.400  22.581  0.00  0.00    +0.042 A 
ATOM     18  C   UNL     1       2.899   5.432  23.490  0.00  0.00    +0.030 A 
ATOM     19 CL   UNL     1       0.591   6.588  22.692  0.00  0.00    -0.084 Cl
ATOM     20  C   UNL     1       3.879   4.422  23.427  0.00  0.00    +0.002 A 
ATOM     21  C   UNL     1       5.031   4.106  24.205  0.00  0.00    +0.041 A 
ENDBRANCH   9  11
ENDBRANCH   1   7
BRANCH   2  22
ATOM     22  N   UNL     1       6.763  -2.064  23.350  0.00  0.00    -0.305 N 
ATOM     23  H   UNL     1       6.310  -1.821  24.233  0.00  0.00    +0.149 HD
ATOM     24  C   UNL     1       6.147  -3.051  22.603  0.00  0.00    +0.269 C 
ATOM     25  O   UNL     1       6.562  -3.374  21.490  0.00  0.00    -0.268 OA
BRANCH  24  26
ATOM     26  C   UNL     1       4.962  -3.610  23.251  0.00  0.00    +0.163 A 
ATOM     27  S   UNL     1       4.536  -3.171  24.860  0.00  0.00    -0.066 S 
ATOM     28  C   UNL     1       3.322  -4.364  24.838  0.00  0.00    +0.027 A 
ATOM     29  C   UNL     1       2.447  -4.716  25.998  0.00  0.00    +0.128 C 
ATOM     30  N   UNL     1       1.762  -6.022  25.805  0.00  0.00    -0.300 NA
ATOM     31  C   UNL     1       1.248  -6.161  24.419  0.00  0.00    +0.090 C 
ATOM     32  C   UNL     1       2.316  -6.070  23.304  0.00  0.00    +0.071 C 
ATOM     33  C   UNL     1       2.626  -7.143  26.177  0.00  0.00    +0.105 C 
ATOM     34  C   UNL     1       3.263  -4.959  23.596  0.00  0.00    +0.055 A 
ATOM     35  N   UNL     1       4.193  -4.524  22.679  0.00  0.00    -0.239 NA
ENDBRANCH  24  26
ENDBRANCH   2  22
TORSDOF 4
ENDMDL
MODEL 5
REMARK VINA RESULT:      -5.8      2.981      4.751
REMARK  Name = 
REMARK  5 active torsions:
REMARK  status: ('A' for Active; 'I' for Inactive)
REMARK    1  A    between atoms: C_2  and  N_22
REMARK    2  A    between atoms: C_7  and  N_9
REMARK    3  A    between atoms: C_10  and  C_12
REMARK    4  A    between atoms: N_17  and  C_18
REMARK    5  A    between atoms: C_23  and  C_25
REMARK                            x       y       z     vdW  Elec       q    Type
REMARK                         _______ _______ _______ _____ _____    ______ ____
ROOT
ATOM      1  C   UNL     1       4.173   5.092  25.223  0.00  0.00    +0.093 C 
ATOM      2  C   UNL     1       5.728   5.049  25.326  0.00  0.00    +0.093 C 
ATOM      3  C   UNL     1       6.205   5.216  26.778  0.00  0.00    +0.024 C 
ATOM      4  C   UNL     1       5.604   6.443  27.453  0.00  0.00    +0.002 C 
ATOM      5  C   UNL     1       4.084   6.405  27.398  0.00  0.00    +0.002 C 
ATOM      6  C   UNL     1       3.595   6.310  25.964  0.00  0.00    +0.024 C 
ENDROOT
BRANCH   1   7
ATOM      7  N   UNL     1       3.695   5.126  23.833  0.00  0.00    -0.306 N 
ATOM      8  H   UNL     1       3.529   6.027  23.408  0.00  0.00    +0.149 HD
ATOM      9  C   UNL     1       3.301   4.007  23.140  0.00  0.00    +0.261 C 
ATOM     10  O   UNL     1       3.366   2.881  23.623  0.00  0.00    -0.269 OA
BRANCH   9  11
ATOM     11  C   UNL     1       2.725   4.256  21.835  0.00  0.00    +0.103 A 
ATOM     12  N   UNL     1       2.640   5.537  21.333  0.00  0.00    -0.351 N 
ATOM     13  H   UNL     1       2.928   6.357  21.850  0.00  0.00    +0.166 HD
ATOM     14  C   UNL     1       2.238   5.529  20.017  0.00  0.00    +0.047 A 
ATOM     15  C   UNL     1       2.127   6.579  19.098  0.00  0.00    +0.027 A 
ATOM     16  C   UNL     1       1.727   6.259  17.797  0.00  0.00    +0.022 A 
ATOM     17  C   UNL     1       1.427   4.944  17.448  0.00  0.00    +0.042 A 
ATOM     18  C   UNL     1       1.511   3.908  18.386  0.00  0.00    +0.030 A 
ATOM     19 CL   UNL     1       0.970   4.581  15.827  0.00  0.00    -0.084 Cl
ATOM     20  C   UNL     1       1.942   4.206  19.694  0.00  0.00    +0.002 A 
ATOM     21  C   UNL     1       2.203   3.423  20.856  0.00  0.00    +0.041 A 
ENDBRANCH   9  11
ENDBRANCH   1   7
BRANCH   2  22
ATOM     22  N   UNL     1       6.273   3.812  24.781  0.00  0.00    -0.305 N 
ATOM     23  H   UNL     1       6.046   2.918  25.221  0.00  0.00    +0.149 HD
ATOM     24  C   UNL     1       6.984   3.743  23.597  0.00  0.00    +0.269 C 
ATOM     25  O   UNL     1       7.249   4.750  22.942  0.00  0.00    -0.268 OA
BRANCH  24  26
ATOM     26  C   UNL     1       7.329   2.375  23.211  0.00  0.00    +0.163 A 
ATOM     27  S   UNL     1       6.439   1.029  23.810  0.00  0.00    -0.066 S 
ATOM     28  C   UNL     1       7.586  -0.012  23.104  0.00  0.00    +0.027 A 
ATOM     29  C   UNL     1       7.584  -1.501  23.233  0.00  0.00    +0.128 C 
ATOM     30  N   UNL     1       8.888  -2.098  22.842  0.00  0.00    -0.300 NA
ATOM     31  C   UNL     1       9.426  -1.461  21.613  0.00  0.00    +0.090 C 
ATOM     32  C   UNL     1       9.665   0.065  21.708  0.00  0.00    +0.071 C 
ATOM     33  C   UNL     1       9.853  -2.052  23.942  0.00  0.00    +0.105 C 
ATOM     34  C   UNL     1       8.517   0.717  22.396  0.00  0.00    +0.055 A 
ATOM     35  N   UNL     1       8.370   2.085  22.445  0.00  0.00    -0.239 NA
ENDBRANCH  24  26
ENDBRANCH   2  22
TORSDOF 4
ENDMDL
MODEL 6
REMARK VINA RESULT:      -5.7      3.831      8.545
REMARK  Name = 
REMARK  5 active torsions:
REMARK  status: ('A' for Active; 'I' for Inactive)
REMARK    1  A    between atoms: C_2  and  N_22
REMARK    2  A    between atoms: C_7  and  N_9
REMARK    3  A    between atoms: C_10  and  C_12
REMARK    4  A    between atoms: N_17  and  C_18
REMARK    5  A    between atoms: C_23  and  C_25
REMARK                            x       y       z     vdW  Elec       q    Type
REMARK                         _______ _______ _______ _____ _____    ______ ____
ROOT
ATOM      1  C   UNL     1       5.247  -0.067  27.902  0.00  0.00    +0.093 C 
ATOM      2  C   UNL     1       4.531   1.288  27.616  0.00  0.00    +0.093 C 
ATOM      3  C   UNL     1       4.094   1.984  28.916  0.00  0.00    +0.024 C 
ATOM      4  C   UNL     1       3.282   1.070  29.824  0.00  0.00    +0.002 C 
ATOM      5  C   UNL     1       4.049  -0.206  30.141  0.00  0.00    +0.002 C 
ATOM      6  C   UNL     1       4.429  -0.941  28.868  0.00  0.00    +0.024 C 
ENDROOT
BRANCH   1   7
ATOM      7  N   UNL     1       5.505  -0.843  26.680  0.00  0.00    -0.306 N 
ATOM      8  H   UNL     1       4.728  -1.313  26.241  0.00  0.00    +0.149 HD
ATOM      9  C   UNL     1       6.767  -1.103  26.202  0.00  0.00    +0.261 C 
ATOM     10  O   UNL     1       7.777  -0.662  26.740  0.00  0.00    -0.269 OA
BRANCH   9  11
ATOM     11  C   UNL     1       6.827  -2.005  25.069  0.00  0.00    +0.103 A 
ATOM     12  N   UNL     1       7.712  -3.062  25.054  0.00  0.00    -0.351 N 
ATOM     13  H   UNL     1       8.379  -3.239  25.792  0.00  0.00    +0.166 HD
ATOM     14  C   UNL     1       7.475  -3.891  23.982  0.00  0.00    +0.047 A 
ATOM     15  C   UNL     1       8.053  -5.120  23.644  0.00  0.00    +0.027 A 
ATOM     16  C   UNL     1       7.575  -5.765  22.499  0.00  0.00    +0.022 A 
ATOM     17  C   UNL     1       6.580  -5.183  21.717  0.00  0.00    +0.042 A 
ATOM     18  C   UNL     1       6.034  -3.937  22.048  0.00  0.00    +0.030 A 
ATOM     19 CL   UNL     1       5.992  -6.022  20.331  0.00  0.00    -0.084 Cl
ATOM     20  C   UNL     1       6.481  -3.287  23.216  0.00  0.00    +0.002 A 
ATOM     21  C   UNL     1       6.118  -2.079  23.880  0.00  0.00    +0.041 A 
ENDBRANCH   9  11
ENDBRANCH   1   7
BRANCH   2  22
ATOM     22  N   UNL     1       5.374   2.194  26.846  0.00  0.00    -0.305 N 
ATOM     23  H   UNL     1       6.096   2.743  27.318  0.00  0.00    +0.149 HD
ATOM     24  C   UNL     1       5.361   2.268  25.465  0.00  0.00    +0.269 C 
ATOM     25  O   UNL     1       4.584   1.595  24.789  0.00  0.00    -0.268 OA
BRANCH  24  26
ATOM     26  C   UNL     1       6.374   3.174  24.927  0.00  0.00    +0.163 A 
ATOM     27  S   UNL     1       7.997   2.656  24.689  0.00  0.00    -0.066 S 
ATOM     28  C   UNL     1       8.430   4.260  24.320  0.00  0.00    +0.027 A 
ATOM     29  C   UNL     1       9.821   4.729  24.036  0.00  0.00    +0.128 C 
ATOM     30  N   UNL     1       9.942   6.208  24.123  0.00  0.00    -0.300 NA
ATOM     31  C   UNL     1       8.787   6.882  23.478  0.00  0.00    +0.090 C 
ATOM     32  C   UNL     1       7.400   6.531  24.068  0.00  0.00    +0.071 C 
ATOM     33  C   UNL     1      10.125   6.652  25.505  0.00  0.00    +0.105 C 
ATOM     34  C   UNL     1       7.311   5.066  24.319  0.00  0.00    +0.055 A 
ATOM     35  N   UNL     1       6.128   4.448  24.657  0.00  0.00    -0.239 NA
ENDBRANCH  24  26
ENDBRANCH   2  22
TORSDOF 4
ENDMDL
MODEL 7
REMARK VINA RESULT:      -5.7      3.307      7.546
REMARK  Name = 
REMARK  5 active torsions:
REMARK  status: ('A' for Active; 'I' for Inactive)
REMARK    1  A    between atoms: C_2  and  N_22
REMARK    2  A    between atoms: C_7  and  N_9
REMARK    3  A    between atoms: C_10  and  C_12
REMARK    4  A    between atoms: N_17  and  C_18
REMARK    5  A    between atoms: C_23  and  C_25
REMARK                            x       y       z     vdW  Elec       q    Type
REMARK                         _______ _______ _______ _____ _____    ______ ____
ROOT
ATOM      1  C   UNL     1       9.449   3.352  23.151  0.00  0.00    +0.093 C 
ATOM      2  C   UNL     1       8.793   4.400  24.100  0.00  0.00    +0.093 C 
ATOM      3  C   UNL     1       9.540   5.744  24.064  0.00  0.00    +0.024 C 
ATOM      4  C   UNL     1      11.036   5.587  24.304  0.00  0.00    +0.002 C 
ATOM      5  C   UNL     1      11.649   4.615  23.306  0.00  0.00    +0.002 C 
ATOM      6  C   UNL     1      10.967   3.261  23.379  0.00  0.00    +0.024 C 
ENDROOT
BRANCH   1   7
ATOM      7  N   UNL     1       8.875   2.007  23.306  0.00  0.00    -0.306 N 
ATOM      8  H   UNL     1       8.836   1.609  24.233  0.00  0.00    +0.149 HD
ATOM      9  C   UNL     1       8.548   1.197  22.245  0.00  0.00    +0.261 C 
ATOM     10  O   UNL     1       8.670   1.561  21.080  0.00  0.00    -0.269 OA
BRANCH   9  11
ATOM     11  C   UNL     1       8.133  -0.146  22.596  0.00  0.00    +0.103 A 
ATOM     12  N   UNL     1       7.084  -0.357  23.465  0.00  0.00    -0.351 N 
ATOM     13  H   UNL     1       6.586   0.392  23.927  0.00  0.00    +0.166 HD
ATOM     14  C   UNL     1       6.738  -1.687  23.513  0.00  0.00    +0.047 A 
ATOM     15  C   UNL     1       5.678  -2.324  24.167  0.00  0.00    +0.027 A 
ATOM     16  C   UNL     1       5.551  -3.707  23.998  0.00  0.00    +0.022 A 
ATOM     17  C   UNL     1       6.468  -4.416  23.226  0.00  0.00    +0.042 A 
ATOM     18  C   UNL     1       7.544  -3.771  22.604  0.00  0.00    +0.030 A 
ATOM     19 CL   UNL     1       6.261  -6.113  23.012  0.00  0.00    -0.084 Cl
ATOM     20  C   UNL     1       7.670  -2.374  22.737  0.00  0.00    +0.002 A 
ATOM     21  C   UNL     1       8.570  -1.404  22.208  0.00  0.00    +0.041 A 
ENDBRANCH   9  11
ENDBRANCH   1   7
BRANCH   2  22
ATOM     22  N   UNL     1       7.389   4.623  23.775  0.00  0.00    -0.305 N 
ATOM     23  H   UNL     1       6.662   4.308  24.420  0.00  0.00    +0.149 HD
ATOM     24  C   UNL     1       6.961   5.369  22.693  0.00  0.00    +0.269 C 
ATOM     25  O   UNL     1       7.754   5.861  21.892  0.00  0.00    -0.268 OA
BRANCH  24  26
ATOM     26  C   UNL     1       5.509   5.534  22.646  0.00  0.00    +0.163 A 
ATOM     27  S   UNL     1       4.789   7.097  22.637  0.00  0.00    -0.066 S 
ATOM     28  C   UNL     1       3.261   6.368  22.806  0.00  0.00    +0.027 A 
ATOM     29  C   UNL     1       1.972   7.108  22.965  0.00  0.00    +0.128 C 
ATOM     30  N   UNL     1       0.880   6.230  23.463  0.00  0.00    -0.300 NA
ATOM     31  C   UNL     1       0.898   4.910  22.784  0.00  0.00    +0.090 C 
ATOM     32  C   UNL     1       2.206   4.099  22.946  0.00  0.00    +0.071 C 
ATOM     33  C   UNL     1       0.924   6.091  24.919  0.00  0.00    +0.105 C 
ATOM     34  C   UNL     1       3.383   4.995  22.776  0.00  0.00    +0.055 A 
ATOM     35  N   UNL     1       4.668   4.511  22.674  0.00  0.00    -0.239 NA
ENDBRANCH  24  26
ENDBRANCH   2  22
TORSDOF 4
ENDMDL
MODEL 8
REMARK VINA RESULT:      -5.7      4.171      8.162
REMARK  Name = 
REMARK  5 active torsions:
REMARK  status: ('A' for Active; 'I' for Inactive)
REMARK    1  A    between atoms: C_2  and  N_22
REMARK    2  A    between atoms: C_7  and  N_9
REMARK    3  A    between atoms: C_10  and  C_12
REMARK    4  A    between atoms: N_17  and  C_18
REMARK    5  A    between atoms: C_23  and  C_25
REMARK                            x       y       z     vdW  Elec       q    Type
REMARK                         _______ _______ _______ _____ _____    ______ ____
ROOT
ATOM      1  C   UNL     1       5.430  -3.900  23.139  0.00  0.00    +0.093 C 
ATOM      2  C   UNL     1       6.964  -3.930  23.415  0.00  0.00    +0.093 C 
ATOM      3  C   UNL     1       7.728  -4.665  22.301  0.00  0.00    +0.024 C 
ATOM      4  C   UNL     1       7.154  -6.047  22.014  0.00  0.00    +0.002 C 
ATOM      5  C   UNL     1       5.674  -5.963  21.672  0.00  0.00    +0.002 C 
ATOM      6  C   UNL     1       4.895  -5.300  22.794  0.00  0.00    +0.024 C 
ENDROOT
BRANCH   1   7
ATOM      7  N   UNL     1       4.657  -3.374  24.273  0.00  0.00    -0.306 N 
ATOM      8  H   UNL     1       4.086  -2.555  24.122  0.00  0.00    +0.149 HD
ATOM      9  C   UNL     1       4.800  -3.829  25.562  0.00  0.00    +0.261 C 
ATOM     10  O   UNL     1       5.557  -4.749  25.853  0.00  0.00    -0.269 OA
BRANCH   9  11
ATOM     11  C   UNL     1       4.060  -3.091  26.566  0.00  0.00    +0.103 A 
ATOM     12  N   UNL     1       4.710  -2.490  27.623  0.00  0.00    -0.351 N 
ATOM     13  H   UNL     1       5.707  -2.564  27.777  0.00  0.00    +0.166 HD
ATOM     14  C   UNL     1       3.852  -1.694  28.345  0.00  0.00    +0.047 A 
ATOM     15  C   UNL     1       4.105  -0.828  29.415  0.00  0.00    +0.027 A 
ATOM     16  C   UNL     1       3.025  -0.104  29.930  0.00  0.00    +0.022 A 
ATOM     17  C   UNL     1       1.744  -0.269  29.406  0.00  0.00    +0.042 A 
ATOM     18  C   UNL     1       1.499  -1.163  28.358  0.00  0.00    +0.030 A 
ATOM     19 CL   UNL     1       0.443   0.665  30.043  0.00  0.00    -0.084 Cl
ATOM     20  C   UNL     1       2.580  -1.878  27.805  0.00  0.00    +0.002 A 
ATOM     21  C   UNL     1       2.715  -2.795  26.722  0.00  0.00    +0.041 A 
ENDBRANCH   9  11
ENDBRANCH   1   7
BRANCH   2  22
ATOM     22  N   UNL     1       7.513  -2.588  23.569  0.00  0.00    -0.305 N 
ATOM     23  H   UNL     1       7.244  -1.850  22.916  0.00  0.00    +0.149 HD
ATOM     24  C   UNL     1       8.288  -2.195  24.644  0.00  0.00    +0.269 C 
ATOM     25  O   UNL     1       8.611  -2.983  25.532  0.00  0.00    -0.268 OA
BRANCH  24  26
ATOM     26  C   UNL     1       8.625  -0.773  24.621  0.00  0.00    +0.163 A 
ATOM     27  S   UNL     1       7.838   0.347  25.665  0.00  0.00    -0.066 S 
ATOM     28  C   UNL     1       8.611   1.620  24.841  0.00  0.00    +0.027 A 
ATOM     29  C   UNL     1       8.389   3.074  25.110  0.00  0.00    +0.128 C 
ATOM     30  N   UNL     1       8.898   3.932  24.008  0.00  0.00    -0.300 NA
ATOM     31  C   UNL     1      10.221   3.461  23.526  0.00  0.00    +0.090 C 
ATOM     32  C   UNL     1      10.253   2.010  22.990  0.00  0.00    +0.071 C 
ATOM     33  C   UNL     1       7.929   4.034  22.915  0.00  0.00    +0.105 C 
ATOM     34  C   UNL     1       9.473   1.118  23.890  0.00  0.00    +0.055 A 
ATOM     35  N   UNL     1       9.494  -0.253  23.766  0.00  0.00    -0.239 NA
ENDBRANCH  24  26
ENDBRANCH   2  22
TORSDOF 4
ENDMDL
MODEL 9
REMARK VINA RESULT:      -5.6      3.945      4.944
REMARK  Name = 
REMARK  5 active torsions:
REMARK  status: ('A' for Active; 'I' for Inactive)
REMARK    1  A    between atoms: C_2  and  N_22
REMARK    2  A    between atoms: C_7  and  N_9
REMARK    3  A    between atoms: C_10  and  C_12
REMARK    4  A    between atoms: N_17  and  C_18
REMARK    5  A    between atoms: C_23  and  C_25
REMARK                            x       y       z     vdW  Elec       q    Type
REMARK                         _______ _______ _______ _____ _____    ______ ____
ROOT
ATOM      1  C   UNL     1       8.710   1.362  24.413  0.00  0.00    +0.093 C 
ATOM      2  C   UNL     1       8.274   0.662  23.091  0.00  0.00    +0.093 C 
ATOM      3  C   UNL     1       9.446   0.537  22.102  0.00  0.00    +0.024 C 
ATOM      4  C   UNL     1      10.149   1.867  21.860  0.00  0.00    +0.002 C 
ATOM      5  C   UNL     1      10.627   2.477  23.170  0.00  0.00    +0.002 C 
ATOM      6  C   UNL     1       9.469   2.670  24.132  0.00  0.00    +0.024 C 
ENDROOT
BRANCH   1   7
ATOM      7  N   UNL     1       7.575   1.665  25.298  0.00  0.00    -0.306 N 
ATOM      8  H   UNL     1       7.098   2.546  25.176  0.00  0.00    +0.149 HD
ATOM      9  C   UNL     1       7.237   0.897  26.385  0.00  0.00    +0.261 C 
ATOM     10  O   UNL     1       7.836  -0.135  26.672  0.00  0.00    -0.269 OA
BRANCH   9  11
ATOM     11  C   UNL     1       6.180   1.433  27.219  0.00  0.00    +0.103 A 
ATOM     12  N   UNL     1       5.756   2.736  27.070  0.00  0.00    -0.351 N 
ATOM     13  H   UNL     1       6.174   3.386  26.418  0.00  0.00    +0.166 HD
ATOM     14  C   UNL     1       4.630   2.980  27.823  0.00  0.00    +0.047 A 
ATOM     15  C   UNL     1       3.813   4.115  27.887  0.00  0.00    +0.027 A 
ATOM     16  C   UNL     1       2.695   4.059  28.725  0.00  0.00    +0.022 A 
ATOM     17  C   UNL     1       2.430   2.920  29.483  0.00  0.00    +0.042 A 
ATOM     18  C   UNL     1       3.274   1.804  29.434  0.00  0.00    +0.030 A 
ATOM     19 CL   UNL     1       1.024   2.874  30.478  0.00  0.00    -0.084 Cl
ATOM     20  C   UNL     1       4.389   1.831  28.572  0.00  0.00    +0.002 A 
ATOM     21  C   UNL     1       5.397   0.885  28.223  0.00  0.00    +0.041 A 
ENDBRANCH   9  11
ENDBRANCH   1   7
BRANCH   2  22
ATOM     22  N   UNL     1       7.712  -0.661  23.337  0.00  0.00    -0.305 N 
ATOM     23  H   UNL     1       6.747  -0.862  23.065  0.00  0.00    +0.149 HD
ATOM     24  C   UNL     1       8.449  -1.734  23.801  0.00  0.00    +0.269 C 
ATOM     25  O   UNL     1       9.640  -1.625  24.088  0.00  0.00    -0.268 OA
BRANCH  24  26
ATOM     26  C   UNL     1       7.682  -2.977  23.862  0.00  0.00    +0.163 A 
ATOM     27  S   UNL     1       7.361  -3.898  22.444  0.00  0.00    -0.066 S 
ATOM     28  C   UNL     1       6.328  -4.897  23.355  0.00  0.00    +0.027 A 
ATOM     29  C   UNL     1       5.510  -6.017  22.798  0.00  0.00    +0.128 C 
ATOM     30  N   UNL     1       4.442  -6.451  23.738  0.00  0.00    -0.300 NA
ATOM     31  C   UNL     1       4.948  -6.525  25.131  0.00  0.00    +0.090 C 
ATOM     32  C   UNL     1       5.509  -5.201  25.704  0.00  0.00    +0.071 C 
ATOM     33  C   UNL     1       3.257  -5.599  23.636  0.00  0.00    +0.105 C 
ATOM     34  C   UNL     1       6.354  -4.523  24.682  0.00  0.00    +0.055 A 
ATOM     35  N   UNL     1       7.135  -3.430  24.981  0.00  0.00    -0.239 NA
ENDBRANCH  24  26
ENDBRANCH   2  22
TORSDOF 4
ENDMDL
