MODEL 1
REMARK VINA RESULT:      -6.6      0.000      0.000
REMARK  Name = 
REMARK  6 active torsions:
REMARK  status: ('A' for Active; 'I' for Inactive)
REMARK    1  A    between atoms: N_3  and  C_4
REMARK    2  A    between atoms: C_7  and  C_8
REMARK    3  A    between atoms: C_13  and  O_14
REMARK    4  A    between atoms: O_14  and  C_15
REMARK    5  A    between atoms: N_17  and  C_18
REMARK    6  A    between atoms: N_20  and  C_21
REMARK                            x       y       z     vdW  Elec       q    Type
REMARK                         _______ _______ _______ _____ _____    ______ ____
ROOT
ATOM      1  C   UNL     1       9.436   0.502  24.753  0.00  0.00    +0.154 C 
ATOM      2  N   UNL     1       9.869  -0.618  23.912  0.00  0.00    -0.316 N 
ATOM      3  C   UNL     1      10.033  -0.544  22.474  0.00  0.00    +0.131 C 
ATOM      4  C   UNL     1       9.371  -1.746  24.510  0.00  0.00    +0.035 A 
ATOM      5  C   UNL     1       9.713  -3.058  24.148  0.00  0.00    +0.027 A 
ATOM      6  C   UNL     1       9.351  -4.137  24.946  0.00  0.00    +0.048 A 
ATOM      7  C   UNL     1       8.699  -3.877  26.134  0.00  0.00    +0.134 A 
ATOM      8  C   UNL     1       8.292  -2.572  26.449  0.00  0.00    +0.052 A 
ATOM      9  C   UNL     1       8.580  -1.457  25.616  0.00  0.00    -0.014 A 
ATOM     10  C   UNL     1       8.038   0.036  25.641  0.00  0.00    +0.028 C 
ATOM     11  C   UNL     1       7.642  -0.108  27.203  0.00  0.00    +0.019 C 
ATOM     12  C   UNL     1       7.831   1.609  25.887  0.00  0.00    +0.030 C 
ATOM     13  C   UNL     1       8.368   2.568  24.868  0.00  0.00    +0.087 C 
ATOM     14  N   UNL     1       9.157   1.747  24.014  0.00  0.00    -0.287 NA
ATOM     15  C   UNL     1      10.347   2.467  23.572  0.00  0.00    +0.106 C 
ENDROOT
BRANCH   7  16
ATOM     16  O   UNL     1       8.324  -4.875  27.062  0.00  0.00    -0.412 OA
BRANCH  16  17
ATOM     17  C   UNL     1       7.003  -5.212  27.345  0.00  0.00    +0.405 C 
ATOM     18  N   UNL     1       6.514  -5.962  26.320  0.00  0.00    -0.284 N 
ATOM     19  H   UNL     1       7.124  -6.113  25.530  0.00  0.00    +0.152 HD
ATOM     20  C   UNL     1       5.169  -6.482  26.291  0.00  0.00    +0.131 C 
ATOM     21  O   UNL     1       6.371  -4.889  28.338  0.00  0.00    -0.226 OA
ENDBRANCH  16  17
ENDBRANCH   7  16
TORSDOF 2
ENDMDL
MODEL 2
REMARK VINA RESULT:      -6.6      2.683      6.999
REMARK  Name = 
REMARK  6 active torsions:
REMARK  status: ('A' for Active; 'I' for Inactive)
REMARK    1  A    between atoms: N_3  and  C_4
REMARK    2  A    between atoms: C_7  and  C_8
REMARK    3  A    between atoms: C_13  and  O_14
REMARK    4  A    between atoms: O_14  and  C_15
REMARK    5  A    between atoms: N_17  and  C_18
REMARK    6  A    between atoms: N_20  and  C_21
REMARK                            x       y       z     vdW  Elec       q    Type
REMARK                         _______ _______ _______ _____ _____    ______ ____
ROOT
ATOM      1  C   UNL     1       4.915  -6.188  24.745  0.00  0.00    +0.154 C 
ATOM      2  N   UNL     1       5.740  -6.183  25.957  0.00  0.00    -0.316 N 
ATOM      3  C   UNL     1       5.216  -6.302  27.302  0.00  0.00    +0.131 C 
ATOM      4  C   UNL     1       6.800  -5.358  25.682  0.00  0.00    +0.035 A 
ATOM      5  C   UNL     1       7.936  -5.222  26.494  0.00  0.00    +0.027 A 
ATOM      6  C   UNL     1       9.064  -4.550  26.037  0.00  0.00    +0.048 A 
ATOM      7  C   UNL     1       9.057  -4.073  24.742  0.00  0.00    +0.134 A 
ATOM      8  C   UNL     1       7.891  -4.144  23.966  0.00  0.00    +0.052 A 
ATOM      9  C   UNL     1       6.696  -4.756  24.433  0.00  0.00    -0.014 A 
ATOM     10  C   UNL     1       5.219  -4.752  23.846  0.00  0.00    +0.028 C 
ATOM     11  C   UNL     1       5.780  -4.396  22.371  0.00  0.00    +0.019 C 
ATOM     12  C   UNL     1       3.852  -5.099  23.081  0.00  0.00    +0.030 C 
ATOM     13  C   UNL     1       2.805  -5.886  23.809  0.00  0.00    +0.087 C 
ATOM     14  N   UNL     1       3.468  -6.315  24.993  0.00  0.00    -0.287 NA
ATOM     15  C   UNL     1       3.034  -7.659  25.360  0.00  0.00    +0.106 C 
ENDROOT
BRANCH   7  16
ATOM     16  O   UNL     1      10.156  -3.421  24.136  0.00  0.00    -0.412 OA
BRANCH  16  17
ATOM     17  C   UNL     1      10.076  -2.169  23.533  0.00  0.00    +0.405 C 
ATOM     18  N   UNL     1       9.752  -1.246  24.479  0.00  0.00    -0.284 N 
ATOM     19  H   UNL     1       9.578  -1.589  25.413  0.00  0.00    +0.152 HD
ATOM     20  C   UNL     1       9.590   0.158  24.194  0.00  0.00    +0.131 C 
ATOM     21  O   UNL     1      10.254  -1.923  22.350  0.00  0.00    -0.226 OA
ENDBRANCH  16  17
ENDBRANCH   7  16
TORSDOF 2
ENDMDL
MODEL 3
REMARK VINA RESULT:      -6.3      2.721      7.027
REMARK  Name = 
REMARK  6 active torsions:
REMARK  status: ('A' for Active; 'I' for Inactive)
REMARK    1  A    between atoms: N_3  and  C_4
REMARK    2  A    between atoms: C_7  and  C_8
REMARK    3  A    between atoms: C_13  and  O_14
REMARK    4  A    between atoms: O_14  and  C_15
REMARK    5  A    between atoms: N_17  and  C_18
REMARK    6  A    between atoms: N_20  and  C_21
REMARK                            x       y       z     vdW  Elec       q    Type
REMARK                         _______ _______ _______ _____ _____    ______ ____
ROOT
ATOM      1  C   UNL     1       6.215  -5.410  25.386  0.00  0.00    +0.154 C 
ATOM      2  N   UNL     1       6.565  -4.296  26.274  0.00  0.00    -0.316 N 
ATOM      3  C   UNL     1       5.712  -3.798  27.334  0.00  0.00    +0.131 C 
ATOM      4  C   UNL     1       7.326  -3.443  25.518  0.00  0.00    +0.035 A 
ATOM      5  C   UNL     1       8.036  -2.345  26.027  0.00  0.00    +0.027 A 
ATOM      6  C   UNL     1       8.965  -1.669  25.243  0.00  0.00    +0.048 A 
ATOM      7  C   UNL     1       9.211  -2.146  23.972  0.00  0.00    +0.134 A 
ATOM      8  C   UNL     1       8.442  -3.192  23.445  0.00  0.00    +0.052 A 
ATOM      9  C   UNL     1       7.431  -3.854  24.194  0.00  0.00    -0.014 A 
ATOM     10  C   UNL     1       6.300  -4.878  23.751  0.00  0.00    +0.028 C 
ATOM     11  C   UNL     1       7.148  -5.283  22.435  0.00  0.00    +0.019 C 
ATOM     12  C   UNL     1       5.438  -6.190  23.418  0.00  0.00    +0.030 C 
ATOM     13  C   UNL     1       4.533  -6.739  24.479  0.00  0.00    +0.087 C 
ATOM     14  N   UNL     1       4.890  -6.001  25.643  0.00  0.00    -0.287 NA
ATOM     15  C   UNL     1       4.828  -6.853  26.825  0.00  0.00    +0.106 C 
ENDROOT
BRANCH   7  16
ATOM     16  O   UNL     1      10.168  -1.587  23.093  0.00  0.00    -0.412 OA
BRANCH  16  17
ATOM     17  C   UNL     1       9.895  -0.541  22.217  0.00  0.00    +0.405 C 
ATOM     18  N   UNL     1      10.255   0.631  22.807  0.00  0.00    -0.284 N 
ATOM     19  H   UNL     1      10.599   0.580  23.755  0.00  0.00    +0.152 HD
ATOM     20  C   UNL     1      10.108   1.917  22.171  0.00  0.00    +0.131 C 
ATOM     21  O   UNL     1       9.406  -0.640  21.102  0.00  0.00    -0.226 OA
ENDBRANCH  16  17
ENDBRANCH   7  16
TORSDOF 2
ENDMDL
MODEL 4
REMARK VINA RESULT:      -6.3      2.936      4.861
REMARK  Name = 
REMARK  6 active torsions:
REMARK  status: ('A' for Active; 'I' for Inactive)
REMARK    1  A    between atoms: N_3  and  C_4
REMARK    2  A    between atoms: C_7  and  C_8
REMARK    3  A    between atoms: C_13  and  O_14
REMARK    4  A    between atoms: O_14  and  C_15
REMARK    5  A    between atoms: N_17  and  C_18
REMARK    6  A    between atoms: N_20  and  C_21
REMARK                            x       y       z     vdW  Elec       q    Type
REMARK                         _______ _______ _______ _____ _____    ______ ____
ROOT
ATOM      1  C   UNL     1       8.674   4.572  23.538  0.00  0.00    +0.154 C 
ATOM      2  N   UNL     1       9.981   3.981  23.844  0.00  0.00    -0.316 N 
ATOM      3  C   UNL     1      11.246   4.671  23.688  0.00  0.00    +0.131 C 
ATOM      4  C   UNL     1       9.863   2.647  23.554  0.00  0.00    +0.035 A 
ATOM      5  C   UNL     1      10.816   1.672  23.886  0.00  0.00    +0.027 A 
ATOM      6  C   UNL     1      10.523   0.317  23.769  0.00  0.00    +0.048 A 
ATOM      7  C   UNL     1       9.250  -0.040  23.375  0.00  0.00    +0.134 A 
ATOM      8  C   UNL     1       8.331   0.939  22.970  0.00  0.00    +0.052 A 
ATOM      9  C   UNL     1       8.627   2.329  23.005  0.00  0.00    -0.014 A 
ATOM     10  C   UNL     1       7.858   3.578  22.394  0.00  0.00    +0.028 C 
ATOM     11  C   UNL     1       6.476   2.739  22.355  0.00  0.00    +0.019 C 
ATOM     12  C   UNL     1       6.917   4.856  22.154  0.00  0.00    +0.030 C 
ATOM     13  C   UNL     1       7.486   6.219  22.401  0.00  0.00    +0.087 C 
ATOM     14  N   UNL     1       8.734   5.955  23.033  0.00  0.00    -0.287 NA
ATOM     15  C   UNL     1       9.009   6.960  24.055  0.00  0.00    +0.106 C 
ENDROOT
BRANCH   7  16
ATOM     16  O   UNL     1       8.805  -1.378  23.269  0.00  0.00    -0.412 OA
BRANCH  16  17
ATOM     17  C   UNL     1       9.205  -2.397  24.129  0.00  0.00    +0.405 C 
ATOM     18  N   UNL     1       8.389  -2.397  25.218  0.00  0.00    -0.284 N 
ATOM     19  H   UNL     1       7.688  -1.672  25.266  0.00  0.00    +0.152 HD
ATOM     20  C   UNL     1       8.525  -3.329  26.310  0.00  0.00    +0.131 C 
ATOM     21  O   UNL     1      10.137  -3.166  23.954  0.00  0.00    -0.226 OA
ENDBRANCH  16  17
ENDBRANCH   7  16
TORSDOF 2
ENDMDL
MODEL 5
REMARK VINA RESULT:      -6.3      2.956      6.416
REMARK  Name = 
REMARK  6 active torsions:
REMARK  status: ('A' for Active; 'I' for Inactive)
REMARK    1  A    between atoms: N_3  and  C_4
REMARK    2  A    between atoms: C_7  and  C_8
REMARK    3  A    between atoms: C_13  and  O_14
REMARK    4  A    between atoms: O_14  and  C_15
REMARK    5  A    between atoms: N_17  and  C_18
REMARK    6  A    between atoms: N_20  and  C_21
REMARK                            x       y       z     vdW  Elec       q    Type
REMARK                         _______ _______ _______ _____ _____    ______ ____
ROOT
ATOM      1  C   UNL     1       5.935  -4.564  24.085  0.00  0.00    +0.154 C 
ATOM      2  N   UNL     1       6.541  -4.068  22.845  0.00  0.00    -0.316 N 
ATOM      3  C   UNL     1       6.581  -4.811  21.602  0.00  0.00    +0.131 C 
ATOM      4  C   UNL     1       7.594  -3.282  23.234  0.00  0.00    +0.035 A 
ATOM      5  C   UNL     1       8.329  -2.452  22.374  0.00  0.00    +0.027 A 
ATOM      6  C   UNL     1       9.225  -1.515  22.879  0.00  0.00    +0.048 A 
ATOM      7  C   UNL     1       9.326  -1.386  24.249  0.00  0.00    +0.134 A 
ATOM      8  C   UNL     1       8.648  -2.272  25.098  0.00  0.00    +0.052 A 
ATOM      9  C   UNL     1       7.784  -3.290  24.611  0.00  0.00    -0.014 A 
ATOM     10  C   UNL     1       7.110  -4.529  25.342  0.00  0.00    +0.028 C 
ATOM     11  C   UNL     1       7.263  -3.797  26.776  0.00  0.00    +0.019 C 
ATOM     12  C   UNL     1       6.114  -5.519  26.119  0.00  0.00    +0.030 C 
ATOM     13  C   UNL     1       5.212  -6.404  25.314  0.00  0.00    +0.087 C 
ATOM     14  N   UNL     1       5.362  -5.918  23.984  0.00  0.00    -0.287 NA
ATOM     15  C   UNL     1       4.090  -5.984  23.272  0.00  0.00    +0.106 C 
ENDROOT
BRANCH   7  16
ATOM     16  O   UNL     1      10.156  -0.437  24.891  0.00  0.00    -0.412 OA
BRANCH  16  17
ATOM     17  C   UNL     1      10.108   0.930  24.637  0.00  0.00    +0.405 C 
ATOM     18  N   UNL     1       8.927   1.421  25.102  0.00  0.00    -0.284 N 
ATOM     19  H   UNL     1       8.276   0.756  25.494  0.00  0.00    +0.152 HD
ATOM     20  C   UNL     1       8.552   2.811  25.001  0.00  0.00    +0.131 C 
ATOM     21  O   UNL     1      10.970   1.593  24.081  0.00  0.00    -0.226 OA
ENDBRANCH  16  17
ENDBRANCH   7  16
TORSDOF 2
ENDMDL
MODEL 6
REMARK VINA RESULT:      -6.1      2.704      6.994
REMARK  Name = 
REMARK  6 active torsions:
REMARK  status: ('A' for Active; 'I' for Inactive)
REMARK    1  A    between atoms: N_3  and  C_4
REMARK    2  A    between atoms: C_7  and  C_8
REMARK    3  A    between atoms: C_13  and  O_14
REMARK    4  A    between atoms: O_14  and  C_15
REMARK    5  A    between atoms: N_17  and  C_18
REMARK    6  A    between atoms: N_20  and  C_21
REMARK                            x       y       z     vdW  Elec       q    Type
REMARK                         _______ _______ _______ _____ _____    ______ ____
ROOT
ATOM      1  C   UNL     1       4.342  -5.313  25.630  0.00  0.00    +0.154 C 
ATOM      2  N   UNL     1       4.440  -5.018  24.196  0.00  0.00    -0.316 N 
ATOM      3  C   UNL     1       3.599  -5.618  23.180  0.00  0.00    +0.131 C 
ATOM      4  C   UNL     1       5.767  -4.767  23.959  0.00  0.00    +0.035 A 
ATOM      5  C   UNL     1       6.277  -4.249  22.759  0.00  0.00    +0.027 A 
ATOM      6  C   UNL     1       7.592  -3.804  22.674  0.00  0.00    +0.048 A 
ATOM      7  C   UNL     1       8.361  -3.830  23.819  0.00  0.00    +0.134 A 
ATOM      8  C   UNL     1       7.869  -4.421  24.992  0.00  0.00    +0.052 A 
ATOM      9  C   UNL     1       6.555  -4.955  25.088  0.00  0.00    -0.014 A 
ATOM     10  C   UNL     1       5.871  -5.858  26.202  0.00  0.00    +0.028 C 
ATOM     11  C   UNL     1       6.949  -5.363  27.301  0.00  0.00    +0.019 C 
ATOM     12  C   UNL     1       5.053  -6.407  27.469  0.00  0.00    +0.030 C 
ATOM     13  C   UNL     1       3.613  -6.780  27.284  0.00  0.00    +0.087 C 
ATOM     14  N   UNL     1       3.305  -6.301  25.980  0.00  0.00    -0.287 NA
ATOM     15  C   UNL     1       1.941  -5.785  25.936  0.00  0.00    +0.106 C 
ENDROOT
BRANCH   7  16
ATOM     16  O   UNL     1       9.692  -3.357  23.885  0.00  0.00    -0.412 OA
BRANCH  16  17
ATOM     17  C   UNL     1      10.087  -2.097  23.447  0.00  0.00    +0.405 C 
ATOM     18  N   UNL     1       9.817  -1.189  24.424  0.00  0.00    -0.284 N 
ATOM     19  H   UNL     1       9.352  -1.531  25.252  0.00  0.00    +0.152 HD
ATOM     20  C   UNL     1      10.104   0.219  24.298  0.00  0.00    +0.131 C 
ATOM     21  O   UNL     1      10.587  -1.831  22.365  0.00  0.00    -0.226 OA
ENDBRANCH  16  17
ENDBRANCH   7  16
TORSDOF 2
ENDMDL
MODEL 7
REMARK VINA RESULT:      -6.1      3.930      7.077
REMARK  Name = 
REMARK  6 active torsions:
REMARK  status: ('A' for Active; 'I' for Inactive)
REMARK    1  A    between atoms: N_3  and  C_4
REMARK    2  A    between atoms: C_7  and  C_8
REMARK    3  A    between atoms: C_13  and  O_14
REMARK    4  A    between atoms: O_14  and  C_15
REMARK    5  A    between atoms: N_17  and  C_18
REMARK    6  A    between atoms: N_20  and  C_21
REMARK                            x       y       z     vdW  Elec       q    Type
REMARK                         _______ _______ _______ _____ _____    ______ ____
ROOT
ATOM      1  C   UNL     1       8.484  -1.469  24.362  0.00  0.00    +0.154 C 
ATOM      2  N   UNL     1       9.350  -0.927  23.310  0.00  0.00    -0.316 N 
ATOM      3  C   UNL     1      10.400  -1.677  22.650  0.00  0.00    +0.131 C 
ATOM      4  C   UNL     1       9.510   0.401  23.608  0.00  0.00    +0.035 A 
ATOM      5  C   UNL     1      10.105   1.343  22.756  0.00  0.00    +0.027 A 
ATOM      6  C   UNL     1      10.021   2.705  23.026  0.00  0.00    +0.048 A 
ATOM      7  C   UNL     1       9.288   3.105  24.124  0.00  0.00    +0.134 A 
ATOM      8  C   UNL     1       8.764   2.155  25.013  0.00  0.00    +0.052 A 
ATOM      9  C   UNL     1       8.899   0.755  24.805  0.00  0.00    -0.014 A 
ATOM     10  C   UNL     1       8.605  -0.478  25.763  0.00  0.00    +0.028 C 
ATOM     11  C   UNL     1       7.593   0.420  26.649  0.00  0.00    +0.019 C 
ATOM     12  C   UNL     1       7.947  -1.720  26.538  0.00  0.00    +0.030 C 
ATOM     13  C   UNL     1       8.166  -3.099  25.993  0.00  0.00    +0.087 C 
ATOM     14  N   UNL     1       8.767  -2.870  24.724  0.00  0.00    -0.287 NA
ATOM     15  C   UNL     1       8.295  -3.851  23.753  0.00  0.00    +0.106 C 
ENDROOT
BRANCH   7  16
ATOM     16  O   UNL     1       9.077   4.458  24.481  0.00  0.00    -0.412 OA
BRANCH  16  17
ATOM     17  C   UNL     1       8.976   5.494  23.558  0.00  0.00    +0.405 C 
ATOM     18  N   UNL     1       7.764   5.418  22.945  0.00  0.00    -0.284 N 
ATOM     19  H   UNL     1       7.171   4.640  23.196  0.00  0.00    +0.152 HD
ATOM     20  C   UNL     1       7.330   6.345  21.929  0.00  0.00    +0.131 C 
ATOM     21  O   UNL     1       9.828   6.335  23.319  0.00  0.00    -0.226 OA
ENDBRANCH  16  17
ENDBRANCH   7  16
TORSDOF 2
ENDMDL
MODEL 8
REMARK VINA RESULT:      -6.1      1.937      2.425
REMARK  Name = 
REMARK  6 active torsions:
REMARK  status: ('A' for Active; 'I' for Inactive)
REMARK    1  A    between atoms: N_3  and  C_4
REMARK    2  A    between atoms: C_7  and  C_8
REMARK    3  A    between atoms: C_13  and  O_14
REMARK    4  A    between atoms: O_14  and  C_15
REMARK    5  A    between atoms: N_17  and  C_18
REMARK    6  A    between atoms: N_20  and  C_21
REMARK                            x       y       z     vdW  Elec       q    Type
REMARK                         _______ _______ _______ _____ _____    ______ ____
ROOT
ATOM      1  C   UNL     1       9.316   2.261  24.488  0.00  0.00    +0.154 C 
ATOM      2  N   UNL     1       9.938   1.498  23.402  0.00  0.00    -0.316 N 
ATOM      3  C   UNL     1      10.103   1.990  22.049  0.00  0.00    +0.131 C 
ATOM      4  C   UNL     1       9.628   0.185  23.644  0.00  0.00    +0.035 A 
ATOM      5  C   UNL     1      10.187  -0.905  22.961  0.00  0.00    +0.027 A 
ATOM      6  C   UNL     1      10.000  -2.206  23.417  0.00  0.00    +0.048 A 
ATOM      7  C   UNL     1       9.300  -2.388  24.592  0.00  0.00    +0.134 A 
ATOM      8  C   UNL     1       8.680  -1.301  25.225  0.00  0.00    +0.052 A 
ATOM      9  C   UNL     1       8.787   0.031  24.741  0.00  0.00    -0.014 A 
ATOM     10  C   UNL     1       8.005   1.355  25.138  0.00  0.00    +0.028 C 
ATOM     11  C   UNL     1       7.622   0.726  26.578  0.00  0.00    +0.019 C 
ATOM     12  C   UNL     1       7.538   2.747  25.787  0.00  0.00    +0.030 C 
ATOM     13  C   UNL     1       7.919   4.021  25.097  0.00  0.00    +0.087 C 
ATOM     14  N   UNL     1       8.842   3.602  24.098  0.00  0.00    -0.287 NA
ATOM     15  C   UNL     1       9.901   4.592  23.935  0.00  0.00    +0.106 C 
ENDROOT
BRANCH   7  16
ATOM     16  O   UNL     1       9.086  -3.650  25.194  0.00  0.00    -0.412 OA
BRANCH  16  17
ATOM     17  C   UNL     1       8.573  -4.752  24.517  0.00  0.00    +0.405 C 
ATOM     18  N   UNL     1       7.274  -4.505  24.198  0.00  0.00    -0.284 N 
ATOM     19  H   UNL     1       6.880  -3.633  24.521  0.00  0.00    +0.152 HD
ATOM     20  C   UNL     1       6.440  -5.443  23.488  0.00  0.00    +0.131 C 
ATOM     21  O   UNL     1       9.173  -5.783  24.255  0.00  0.00    -0.226 OA
ENDBRANCH  16  17
ENDBRANCH   7  16
TORSDOF 2
ENDMDL
MODEL 9
REMARK VINA RESULT:      -6.1      3.430      6.746
REMARK  Name = 
REMARK  6 active torsions:
REMARK  status: ('A' for Active; 'I' for Inactive)
REMARK    1  A    between atoms: N_3  and  C_4
REMARK    2  A    between atoms: C_7  and  C_8
REMARK    3  A    between atoms: C_13  and  O_14
REMARK    4  A    between atoms: O_14  and  C_15
REMARK    5  A    between atoms: N_17  and  C_18
REMARK    6  A    between atoms: N_20  and  C_21
REMARK                            x       y       z     vdW  Elec       q    Type
REMARK                         _______ _______ _______ _____ _____    ______ ____
ROOT
ATOM      1  C   UNL     1       7.110  -2.385  24.496  0.00  0.00    +0.154 C 
ATOM      2  N   UNL     1       7.482  -2.187  23.091  0.00  0.00    -0.316 N 
ATOM      3  C   UNL     1       7.437  -3.224  22.080  0.00  0.00    +0.131 C 
ATOM      4  C   UNL     1       8.483  -1.251  23.100  0.00  0.00    +0.035 A 
ATOM      5  C   UNL     1       8.996  -0.622  21.956  0.00  0.00    +0.027 A 
ATOM      6  C   UNL     1       9.841   0.478  22.064  0.00  0.00    +0.048 A 
ATOM      7  C   UNL     1      10.112   0.968  23.325  0.00  0.00    +0.134 A 
ATOM      8  C   UNL     1       9.660   0.286  24.464  0.00  0.00    +0.052 A 
ATOM      9  C   UNL     1       8.858  -0.886  24.388  0.00  0.00    -0.014 A 
ATOM     10  C   UNL     1       8.433  -1.937  25.501  0.00  0.00    +0.028 C 
ATOM     11  C   UNL     1       8.695  -0.846  26.666  0.00  0.00    +0.019 C 
ATOM     12  C   UNL     1       7.669  -2.761  26.647  0.00  0.00    +0.030 C 
ATOM     13  C   UNL     1       6.772  -3.889  26.240  0.00  0.00    +0.087 C 
ATOM     14  N   UNL     1       6.684  -3.758  24.825  0.00  0.00    -0.287 NA
ATOM     15  C   UNL     1       5.343  -4.101  24.365  0.00  0.00    +0.106 C 
ENDROOT
BRANCH   7  16
ATOM     16  O   UNL     1      10.909   2.110  23.572  0.00  0.00    -0.412 OA
BRANCH  16  17
ATOM     17  C   UNL     1      10.408   3.407  23.614  0.00  0.00    +0.405 C 
ATOM     18  N   UNL     1      11.427   4.278  23.380  0.00  0.00    -0.284 N 
ATOM     19  H   UNL     1      12.350   3.885  23.266  0.00  0.00    +0.152 HD
ATOM     20  C   UNL     1      11.255   5.710  23.350  0.00  0.00    +0.131 C 
ATOM     21  O   UNL     1       9.251   3.729  23.834  0.00  0.00    -0.226 OA
ENDBRANCH  16  17
ENDBRANCH   7  16
TORSDOF 2
ENDMDL
