MODEL 1
REMARK VINA RESULT:      -5.6      0.000      0.000
REMARK  Name = 
REMARK  11 active torsions:
REMARK  status: ('A' for Active; 'I' for Inactive)
REMARK    1  A    between atoms: C_1  and  C_2
REMARK    2  A    between atoms: C_2  and  C_3
REMARK    3  A    between atoms: C_2  and  C_4
REMARK    4  A    between atoms: C_2  and  C_6
REMARK    5  A    between atoms: C_4  and  O_5
REMARK    6  A    between atoms: C_6  and  O_7
REMARK    7  A    between atoms: C_6  and  C_8
REMARK    8  A    between atoms: N_10  and  C_11
REMARK    9  A    between atoms: C_11  and  C_12
REMARK   10  A    between atoms: C_12  and  C_13
REMARK   11  A    between atoms: C_13  and  O_14
REMARK                            x       y       z     vdW  Elec       q    Type
REMARK                         _______ _______ _______ _____ _____    ______ ____
ROOT
ATOM      1  C   UNL     1       9.852   2.918  23.080  0.00  0.00    +0.242 C 
ATOM      2  N   UNL     1      10.988   3.712  23.138  0.00  0.00    -0.313 N 
ATOM      3  H   UNL     1      11.624   3.592  22.351  0.00  0.00    +0.149 HD
ATOM      4  O   UNL     1       8.795   3.272  23.595  0.00  0.00    -0.273 OA
ENDROOT
BRANCH   1   5
ATOM      5  C   UNL     1      10.024   1.602  22.291  0.00  0.00    +0.208 C 
BRANCH   5   7
ATOM      6  C   UNL     1       8.371   0.062  23.424  0.00  0.00    +0.016 C 
ATOM      7  C   UNL     1       9.874   0.317  23.163  0.00  0.00    +0.023 C 
ATOM      8  C   UNL     1      10.550   0.432  24.545  0.00  0.00    +0.016 C 
BRANCH   7   9
ATOM      9  C   UNL     1      10.467  -0.892  22.405  0.00  0.00    +0.165 C 
BRANCH   9  10
ATOM     10  O   UNL     1       9.719  -1.170  21.226  0.00  0.00    -0.394 OA
ATOM     11  H   UNL     1       9.742  -0.369  20.670  0.00  0.00    +0.209 HD
ENDBRANCH   9  10
ENDBRANCH   7   9
ENDBRANCH   5   7
BRANCH   5  12
ATOM     12  O   UNL     1       9.128   1.608  21.178  0.00  0.00    -0.382 OA
ATOM     13  H   UNL     1       8.256   1.896  21.504  0.00  0.00    +0.210 HD
ENDBRANCH   5  12
ENDBRANCH   1   5
BRANCH   2  14
ATOM     14  C   UNL     1      10.881   5.017  23.774  0.00  0.00    +0.115 C 
BRANCH  14  15
ATOM     15  C   UNL     1      12.189   5.781  23.799  0.00  0.00    +0.139 C 
BRANCH  15  16
ATOM     16  C   UNL     1      13.225   5.401  22.769  0.00  0.00    +0.306 C 
ATOM     17  O   UNL     1      12.980   5.434  21.569  0.00  0.00    -0.251 OA
BRANCH  16  18
ATOM     18  O   UNL     1      14.418   4.980  23.231  0.00  0.00    -0.481 OA
ATOM     19  H   UNL     1      14.670   4.065  22.988  0.00  0.00    +0.295 HD
ENDBRANCH  16  18
ENDBRANCH  15  16
ENDBRANCH  14  15
ENDBRANCH   2  14
TORSDOF 9
ENDMDL
MODEL 2
REMARK VINA RESULT:      -5.1      4.360      7.755
REMARK  Name = 
REMARK  11 active torsions:
REMARK  status: ('A' for Active; 'I' for Inactive)
REMARK    1  A    between atoms: C_1  and  C_2
REMARK    2  A    between atoms: C_2  and  C_3
REMARK    3  A    between atoms: C_2  and  C_4
REMARK    4  A    between atoms: C_2  and  C_6
REMARK    5  A    between atoms: C_4  and  O_5
REMARK    6  A    between atoms: C_6  and  O_7
REMARK    7  A    between atoms: C_6  and  C_8
REMARK    8  A    between atoms: N_10  and  C_11
REMARK    9  A    between atoms: C_11  and  C_12
REMARK   10  A    between atoms: C_12  and  C_13
REMARK   11  A    between atoms: C_13  and  O_14
REMARK                            x       y       z     vdW  Elec       q    Type
REMARK                         _______ _______ _______ _____ _____    ______ ____
ROOT
ATOM      1  C   UNL     1       9.159  -2.814  23.359  0.00  0.00    +0.242 C 
ATOM      2  N   UNL     1       7.993  -3.564  23.306  0.00  0.00    -0.313 N 
ATOM      3  H   UNL     1       7.484  -3.485  22.427  0.00  0.00    +0.149 HD
ATOM      4  O   UNL     1      10.115  -3.162  24.048  0.00  0.00    -0.273 OA
ENDROOT
BRANCH   1   5
ATOM      5  C   UNL     1       9.160  -1.558  22.461  0.00  0.00    +0.208 C 
BRANCH   5   7
ATOM      6  C   UNL     1      10.531   0.165  23.701  0.00  0.00    +0.016 C 
ATOM      7  C   UNL     1       9.101  -0.215  23.252  0.00  0.00    +0.023 C 
ATOM      8  C   UNL     1       8.242  -0.294  24.531  0.00  0.00    +0.016 C 
BRANCH   7   9
ATOM      9  C   UNL     1       8.547   0.899  22.335  0.00  0.00    +0.165 C 
BRANCH   9  10
ATOM     10  O   UNL     1       9.535   1.330  21.405  0.00  0.00    -0.394 OA
ATOM     11  H   UNL     1       9.620   2.297  21.497  0.00  0.00    +0.209 HD
ENDBRANCH   9  10
ENDBRANCH   7   9
ENDBRANCH   5   7
BRANCH   5  12
ATOM     12  O   UNL     1      10.284  -1.618  21.580  0.00  0.00    -0.382 OA
ATOM     13  H   UNL     1      11.082  -1.727  22.128  0.00  0.00    +0.210 HD
ENDBRANCH   5  12
ENDBRANCH   1   5
BRANCH   2  14
ATOM     14  C   UNL     1       7.951  -4.819  24.042  0.00  0.00    +0.115 C 
BRANCH  14  15
ATOM     15  C   UNL     1       7.305  -4.692  25.407  0.00  0.00    +0.139 C 
BRANCH  15  16
ATOM     16  C   UNL     1       8.114  -5.153  26.594  0.00  0.00    +0.306 C 
ATOM     17  O   UNL     1       7.588  -5.691  27.561  0.00  0.00    -0.251 OA
BRANCH  16  18
ATOM     18  O   UNL     1       9.437  -4.905  26.564  0.00  0.00    -0.481 OA
ATOM     19  H   UNL     1       9.790  -4.575  25.711  0.00  0.00    +0.295 HD
ENDBRANCH  16  18
ENDBRANCH  15  16
ENDBRANCH  14  15
ENDBRANCH   2  14
TORSDOF 9
ENDMDL
MODEL 3
REMARK VINA RESULT:      -5.1      4.119      8.108
REMARK  Name = 
REMARK  11 active torsions:
REMARK  status: ('A' for Active; 'I' for Inactive)
REMARK    1  A    between atoms: C_1  and  C_2
REMARK    2  A    between atoms: C_2  and  C_3
REMARK    3  A    between atoms: C_2  and  C_4
REMARK    4  A    between atoms: C_2  and  C_6
REMARK    5  A    between atoms: C_4  and  O_5
REMARK    6  A    between atoms: C_6  and  O_7
REMARK    7  A    between atoms: C_6  and  C_8
REMARK    8  A    between atoms: N_10  and  C_11
REMARK    9  A    between atoms: C_11  and  C_12
REMARK   10  A    between atoms: C_12  and  C_13
REMARK   11  A    between atoms: C_13  and  O_14
REMARK                            x       y       z     vdW  Elec       q    Type
REMARK                         _______ _______ _______ _____ _____    ______ ____
ROOT
ATOM      1  C   UNL     1       8.901  -2.480  23.019  0.00  0.00    +0.242 C 
ATOM      2  N   UNL     1       7.732  -3.159  22.710  0.00  0.00    -0.313 N 
ATOM      3  H   UNL     1       7.480  -3.133  21.723  0.00  0.00    +0.149 HD
ATOM      4  O   UNL     1       9.609  -2.819  23.964  0.00  0.00    -0.273 OA
ENDROOT
BRANCH   1   5
ATOM      5  C   UNL     1       9.244  -1.316  22.064  0.00  0.00    +0.208 C 
BRANCH   5   7
ATOM      6  C   UNL     1      10.389   0.456  23.455  0.00  0.00    +0.016 C 
ATOM      7  C   UNL     1       9.084   0.096  22.705  0.00  0.00    +0.023 C 
ATOM      8  C   UNL     1       7.943   0.175  23.740  0.00  0.00    +0.016 C 
BRANCH   7   9
ATOM      9  C   UNL     1       8.837   1.142  21.594  0.00  0.00    +0.165 C 
BRANCH   9  10
ATOM     10  O   UNL     1       9.922   2.060  21.509  0.00  0.00    -0.394 OA
ATOM     11  H   UNL     1      10.092   2.395  22.408  0.00  0.00    +0.209 HD
ENDBRANCH   9  10
ENDBRANCH   7   9
ENDBRANCH   5   7
BRANCH   5  12
ATOM     12  O   UNL     1      10.553  -1.524  21.530  0.00  0.00    -0.382 OA
ATOM     13  H   UNL     1      10.451  -1.927  20.649  0.00  0.00    +0.210 HD
ENDBRANCH   5  12
ENDBRANCH   1   5
BRANCH   2  14
ATOM     14  C   UNL     1       7.393  -4.334  23.499  0.00  0.00    +0.115 C 
BRANCH  14  15
ATOM     15  C   UNL     1       7.217  -5.587  22.665  0.00  0.00    +0.139 C 
BRANCH  15  16
ATOM     16  C   UNL     1       6.013  -5.642  21.757  0.00  0.00    +0.306 C 
ATOM     17  O   UNL     1       5.951  -4.974  20.731  0.00  0.00    -0.251 OA
BRANCH  16  18
ATOM     18  O   UNL     1       4.990  -6.425  22.147  0.00  0.00    -0.481 OA
ATOM     19  H   UNL     1       4.096  -6.125  21.879  0.00  0.00    +0.295 HD
ENDBRANCH  16  18
ENDBRANCH  15  16
ENDBRANCH  14  15
ENDBRANCH   2  14
TORSDOF 9
ENDMDL
MODEL 4
REMARK VINA RESULT:      -4.9      4.202      6.249
REMARK  Name = 
REMARK  11 active torsions:
REMARK  status: ('A' for Active; 'I' for Inactive)
REMARK    1  A    between atoms: C_1  and  C_2
REMARK    2  A    between atoms: C_2  and  C_3
REMARK    3  A    between atoms: C_2  and  C_4
REMARK    4  A    between atoms: C_2  and  C_6
REMARK    5  A    between atoms: C_4  and  O_5
REMARK    6  A    between atoms: C_6  and  O_7
REMARK    7  A    between atoms: C_6  and  C_8
REMARK    8  A    between atoms: N_10  and  C_11
REMARK    9  A    between atoms: C_11  and  C_12
REMARK   10  A    between atoms: C_12  and  C_13
REMARK   11  A    between atoms: C_13  and  O_14
REMARK                            x       y       z     vdW  Elec       q    Type
REMARK                         _______ _______ _______ _____ _____    ______ ____
ROOT
ATOM      1  C   UNL     1       9.073  -2.752  23.893  0.00  0.00    +0.242 C 
ATOM      2  N   UNL     1       8.550  -1.947  22.892  0.00  0.00    -0.313 N 
ATOM      3  H   UNL     1       7.785  -1.345  23.194  0.00  0.00    +0.149 HD
ATOM      4  O   UNL     1      10.246  -3.113  23.878  0.00  0.00    -0.273 OA
ENDROOT
BRANCH   1   5
ATOM      5  C   UNL     1       8.079  -3.106  25.021  0.00  0.00    +0.208 C 
BRANCH   5   7
ATOM      6  C   UNL     1       7.838  -5.176  23.593  0.00  0.00    +0.016 C 
ATOM      7  C   UNL     1       7.611  -4.593  25.008  0.00  0.00    +0.023 C 
ATOM      8  C   UNL     1       6.111  -4.767  25.323  0.00  0.00    +0.016 C 
BRANCH   7   9
ATOM      9  C   UNL     1       8.442  -5.405  26.027  0.00  0.00    +0.165 C 
BRANCH   9  10
ATOM     10  O   UNL     1       9.765  -5.621  25.548  0.00  0.00    -0.394 OA
ATOM     11  H   UNL     1       9.807  -6.534  25.209  0.00  0.00    +0.209 HD
ENDBRANCH   9  10
ENDBRANCH   7   9
ENDBRANCH   5   7
BRANCH   5  12
ATOM     12  O   UNL     1       8.649  -2.729  26.276  0.00  0.00    -0.382 OA
ATOM     13  H   UNL     1       9.426  -3.297  26.429  0.00  0.00    +0.210 HD
ENDBRANCH   5  12
ENDBRANCH   1   5
BRANCH   2  14
ATOM     14  C   UNL     1       9.449  -1.482  21.846  0.00  0.00    +0.115 C 
BRANCH  14  15
ATOM     15  C   UNL     1       9.988  -0.088  22.094  0.00  0.00    +0.139 C 
BRANCH  15  16
ATOM     16  C   UNL     1       9.032   1.062  21.895  0.00  0.00    +0.306 C 
ATOM     17  O   UNL     1       7.837   0.955  22.146  0.00  0.00    -0.251 OA
BRANCH  16  18
ATOM     18  O   UNL     1       9.543   2.200  21.387  0.00  0.00    -0.481 OA
ATOM     19  H   UNL     1       9.842   2.864  22.043  0.00  0.00    +0.295 HD
ENDBRANCH  16  18
ENDBRANCH  15  16
ENDBRANCH  14  15
ENDBRANCH   2  14
TORSDOF 9
ENDMDL
MODEL 5
REMARK VINA RESULT:      -4.9      3.890      7.244
REMARK  Name = 
REMARK  11 active torsions:
REMARK  status: ('A' for Active; 'I' for Inactive)
REMARK    1  A    between atoms: C_1  and  C_2
REMARK    2  A    between atoms: C_2  and  C_3
REMARK    3  A    between atoms: C_2  and  C_4
REMARK    4  A    between atoms: C_2  and  C_6
REMARK    5  A    between atoms: C_4  and  O_5
REMARK    6  A    between atoms: C_6  and  O_7
REMARK    7  A    between atoms: C_6  and  C_8
REMARK    8  A    between atoms: N_10  and  C_11
REMARK    9  A    between atoms: C_11  and  C_12
REMARK   10  A    between atoms: C_12  and  C_13
REMARK   11  A    between atoms: C_13  and  O_14
REMARK                            x       y       z     vdW  Elec       q    Type
REMARK                         _______ _______ _______ _____ _____    ______ ____
ROOT
ATOM      1  C   UNL     1       9.664  -1.992  23.630  0.00  0.00    +0.242 C 
ATOM      2  N   UNL     1       8.439  -2.564  23.940  0.00  0.00    -0.313 N 
ATOM      3  H   UNL     1       7.663  -1.905  23.965  0.00  0.00    +0.149 HD
ATOM      4  O   UNL     1      10.544  -2.632  23.060  0.00  0.00    -0.273 OA
ENDROOT
BRANCH   1   5
ATOM      5  C   UNL     1       9.798  -0.504  24.018  0.00  0.00    +0.208 C 
BRANCH   5   7
ATOM      6  C   UNL     1       7.824   0.838  23.186  0.00  0.00    +0.016 C 
ATOM      7  C   UNL     1       9.306   0.484  22.916  0.00  0.00    +0.023 C 
ATOM      8  C   UNL     1       9.367  -0.106  21.491  0.00  0.00    +0.016 C 
BRANCH   7   9
ATOM      9  C   UNL     1      10.151   1.777  22.967  0.00  0.00    +0.165 C 
BRANCH   9  10
ATOM     10  O   UNL     1      10.301   2.339  21.668  0.00  0.00    -0.394 OA
ATOM     11  H   UNL     1      10.794   3.174  21.767  0.00  0.00    +0.209 HD
ENDBRANCH   9  10
ENDBRANCH   7   9
ENDBRANCH   5   7
BRANCH   5  12
ATOM     12  O   UNL     1       9.142  -0.289  25.269  0.00  0.00    -0.382 OA
ATOM     13  H   UNL     1       8.217  -0.577  25.169  0.00  0.00    +0.210 HD
ENDBRANCH   5  12
ENDBRANCH   1   5
BRANCH   2  14
ATOM     14  C   UNL     1       8.194  -3.935  23.514  0.00  0.00    +0.115 C 
BRANCH  14  15
ATOM     15  C   UNL     1       8.102  -4.914  24.667  0.00  0.00    +0.139 C 
BRANCH  15  16
ATOM     16  C   UNL     1       9.222  -4.891  25.677  0.00  0.00    +0.306 C 
ATOM     17  O   UNL     1       9.144  -4.234  26.708  0.00  0.00    -0.251 OA
BRANCH  16  18
ATOM     18  O   UNL     1      10.331  -5.591  25.374  0.00  0.00    -0.481 OA
ATOM     19  H   UNL     1      10.460  -6.425  25.873  0.00  0.00    +0.295 HD
ENDBRANCH  16  18
ENDBRANCH  15  16
ENDBRANCH  14  15
ENDBRANCH   2  14
TORSDOF 9
ENDMDL
MODEL 6
REMARK VINA RESULT:      -4.7      3.535      5.616
REMARK  Name = 
REMARK  11 active torsions:
REMARK  status: ('A' for Active; 'I' for Inactive)
REMARK    1  A    between atoms: C_1  and  C_2
REMARK    2  A    between atoms: C_2  and  C_3
REMARK    3  A    between atoms: C_2  and  C_4
REMARK    4  A    between atoms: C_2  and  C_6
REMARK    5  A    between atoms: C_4  and  O_5
REMARK    6  A    between atoms: C_6  and  O_7
REMARK    7  A    between atoms: C_6  and  C_8
REMARK    8  A    between atoms: N_10  and  C_11
REMARK    9  A    between atoms: C_11  and  C_12
REMARK   10  A    between atoms: C_12  and  C_13
REMARK   11  A    between atoms: C_13  and  O_14
REMARK                            x       y       z     vdW  Elec       q    Type
REMARK                         _______ _______ _______ _____ _____    ______ ____
ROOT
ATOM      1  C   UNL     1       9.668  -2.392  23.910  0.00  0.00    +0.242 C 
ATOM      2  N   UNL     1       9.561  -1.161  24.540  0.00  0.00    -0.313 N 
ATOM      3  H   UNL     1       9.187  -1.205  25.486  0.00  0.00    +0.149 HD
ATOM      4  O   UNL     1      10.525  -2.603  23.056  0.00  0.00    -0.273 OA
ENDROOT
BRANCH   1   5
ATOM      5  C   UNL     1       8.664  -3.458  24.400  0.00  0.00    +0.208 C 
BRANCH   5   7
ATOM      6  C   UNL     1       7.452  -4.749  22.599  0.00  0.00    +0.016 C 
ATOM      7  C   UNL     1       7.358  -3.535  23.552  0.00  0.00    +0.023 C 
ATOM      8  C   UNL     1       7.128  -2.293  22.665  0.00  0.00    +0.016 C 
BRANCH   7   9
ATOM      9  C   UNL     1       6.144  -3.722  24.490  0.00  0.00    +0.165 C 
BRANCH   9  10
ATOM     10  O   UNL     1       6.451  -4.628  25.544  0.00  0.00    -0.394 OA
ATOM     11  H   UNL     1       5.630  -4.779  26.047  0.00  0.00    +0.209 HD
ENDBRANCH   9  10
ENDBRANCH   7   9
ENDBRANCH   5   7
BRANCH   5  12
ATOM     12  O   UNL     1       9.331  -4.719  24.484  0.00  0.00    -0.382 OA
ATOM     13  H   UNL     1      10.280  -4.542  24.618  0.00  0.00    +0.210 HD
ENDBRANCH   5  12
ENDBRANCH   1   5
BRANCH   2  14
ATOM     14  C   UNL     1      10.539  -0.134  24.208  0.00  0.00    +0.115 C 
BRANCH  14  15
ATOM     15  C   UNL     1       9.923   1.098  23.576  0.00  0.00    +0.139 C 
BRANCH  15  16
ATOM     16  C   UNL     1       9.807   1.110  22.071  0.00  0.00    +0.306 C 
ATOM     17  O   UNL     1       9.628   0.080  21.432  0.00  0.00    -0.251 OA
BRANCH  16  18
ATOM     18  O   UNL     1       9.953   2.300  21.458  0.00  0.00    -0.481 OA
ATOM     19  H   UNL     1       9.350   2.468  20.704  0.00  0.00    +0.295 HD
ENDBRANCH  16  18
ENDBRANCH  15  16
ENDBRANCH  14  15
ENDBRANCH   2  14
TORSDOF 9
ENDMDL
MODEL 7
REMARK VINA RESULT:      -4.6      3.101      6.033
REMARK  Name = 
REMARK  11 active torsions:
REMARK  status: ('A' for Active; 'I' for Inactive)
REMARK    1  A    between atoms: C_1  and  C_2
REMARK    2  A    between atoms: C_2  and  C_3
REMARK    3  A    between atoms: C_2  and  C_4
REMARK    4  A    between atoms: C_2  and  C_6
REMARK    5  A    between atoms: C_4  and  O_5
REMARK    6  A    between atoms: C_6  and  O_7
REMARK    7  A    between atoms: C_6  and  C_8
REMARK    8  A    between atoms: N_10  and  C_11
REMARK    9  A    between atoms: C_11  and  C_12
REMARK   10  A    between atoms: C_12  and  C_13
REMARK   11  A    between atoms: C_13  and  O_14
REMARK                            x       y       z     vdW  Elec       q    Type
REMARK                         _______ _______ _______ _____ _____    ______ ____
ROOT
ATOM      1  C   UNL     1       8.974   0.014  22.157  0.00  0.00    +0.242 C 
ATOM      2  N   UNL     1       7.982  -0.848  22.600  0.00  0.00    -0.313 N 
ATOM      3  H   UNL     1       7.066  -0.415  22.704  0.00  0.00    +0.149 HD
ATOM      4  O   UNL     1       9.929  -0.391  21.500  0.00  0.00    -0.273 OA
ENDROOT
BRANCH   1   5
ATOM      5  C   UNL     1       8.749   1.498  22.520  0.00  0.00    +0.208 C 
BRANCH   5   7
ATOM      6  C   UNL     1       8.302   1.497  25.007  0.00  0.00    +0.016 C 
ATOM      7  C   UNL     1       9.319   1.902  23.914  0.00  0.00    +0.023 C 
ATOM      8  C   UNL     1       9.552   3.419  24.066  0.00  0.00    +0.016 C 
BRANCH   7   9
ATOM      9  C   UNL     1      10.650   1.156  24.162  0.00  0.00    +0.165 C 
BRANCH   9  10
ATOM     10  O   UNL     1      10.626   0.476  25.413  0.00  0.00    -0.394 OA
ATOM     11  H   UNL     1      11.481   0.020  25.513  0.00  0.00    +0.209 HD
ENDBRANCH   9  10
ENDBRANCH   7   9
ENDBRANCH   5   7
BRANCH   5  12
ATOM     12  O   UNL     1       9.262   2.316  21.467  0.00  0.00    -0.382 OA
ATOM     13  H   UNL     1       9.088   3.245  21.704  0.00  0.00    +0.210 HD
ENDBRANCH   5  12
ENDBRANCH   1   5
BRANCH   2  14
ATOM     14  C   UNL     1       8.066  -2.248  22.209  0.00  0.00    +0.115 C 
BRANCH  14  15
ATOM     15  C   UNL     1       8.047  -3.202  23.387  0.00  0.00    +0.139 C 
BRANCH  15  16
ATOM     16  C   UNL     1       9.190  -3.104  24.367  0.00  0.00    +0.306 C 
ATOM     17  O   UNL     1       9.983  -4.024  24.523  0.00  0.00    -0.251 OA
BRANCH  16  18
ATOM     18  O   UNL     1       9.273  -1.975  25.096  0.00  0.00    -0.481 OA
ATOM     19  H   UNL     1      10.040  -1.397  24.902  0.00  0.00    +0.295 HD
ENDBRANCH  16  18
ENDBRANCH  15  16
ENDBRANCH  14  15
ENDBRANCH   2  14
TORSDOF 9
ENDMDL
MODEL 8
REMARK VINA RESULT:      -4.6      4.324      6.121
REMARK  Name = 
REMARK  11 active torsions:
REMARK  status: ('A' for Active; 'I' for Inactive)
REMARK    1  A    between atoms: C_1  and  C_2
REMARK    2  A    between atoms: C_2  and  C_3
REMARK    3  A    between atoms: C_2  and  C_4
REMARK    4  A    between atoms: C_2  and  C_6
REMARK    5  A    between atoms: C_4  and  O_5
REMARK    6  A    between atoms: C_6  and  O_7
REMARK    7  A    between atoms: C_6  and  C_8
REMARK    8  A    between atoms: N_10  and  C_11
REMARK    9  A    between atoms: C_11  and  C_12
REMARK   10  A    between atoms: C_12  and  C_13
REMARK   11  A    between atoms: C_13  and  O_14
REMARK                            x       y       z     vdW  Elec       q    Type
REMARK                         _______ _______ _______ _____ _____    ______ ____
ROOT
ATOM      1  C   UNL     1       6.793  -2.266  23.198  0.00  0.00    +0.242 C 
ATOM      2  N   UNL     1       7.977  -1.575  22.984  0.00  0.00    -0.313 N 
ATOM      3  H   UNL     1       8.347  -1.661  22.039  0.00  0.00    +0.149 HD
ATOM      4  O   UNL     1       5.969  -1.884  24.025  0.00  0.00    -0.273 OA
ENDROOT
BRANCH   1   5
ATOM      5  C   UNL     1       6.593  -3.501  22.293  0.00  0.00    +0.208 C 
BRANCH   5   7
ATOM      6  C   UNL     1       5.598  -5.215  23.860  0.00  0.00    +0.016 C 
ATOM      7  C   UNL     1       6.843  -4.860  23.015  0.00  0.00    +0.023 C 
ATOM      8  C   UNL     1       8.042  -4.829  23.985  0.00  0.00    +0.016 C 
BRANCH   7   9
ATOM      9  C   UNL     1       7.070  -5.969  21.962  0.00  0.00    +0.165 C 
BRANCH   9  10
ATOM     10  O   UNL     1       5.835  -6.388  21.391  0.00  0.00    -0.394 OA
ATOM     11  H   UNL     1       6.045  -6.921  20.602  0.00  0.00    +0.209 HD
ENDBRANCH   9  10
ENDBRANCH   7   9
ENDBRANCH   5   7
BRANCH   5  12
ATOM     12  O   UNL     1       5.296  -3.434  21.698  0.00  0.00    -0.382 OA
ATOM     13  H   UNL     1       4.643  -3.637  22.391  0.00  0.00    +0.210 HD
ENDBRANCH   5  12
ENDBRANCH   1   5
BRANCH   2  14
ATOM     14  C   UNL     1       8.193  -0.340  23.723  0.00  0.00    +0.115 C 
BRANCH  14  15
ATOM     15  C   UNL     1       8.188   0.894  22.844  0.00  0.00    +0.139 C 
BRANCH  15  16
ATOM     16  C   UNL     1       9.186   0.935  21.713  0.00  0.00    +0.306 C 
ATOM     17  O   UNL     1       9.492  -0.075  21.090  0.00  0.00    -0.251 OA
BRANCH  16  18
ATOM     18  O   UNL     1       9.761   2.123  21.449  0.00  0.00    -0.481 OA
ATOM     19  H   UNL     1      10.519   2.103  20.829  0.00  0.00    +0.295 HD
ENDBRANCH  16  18
ENDBRANCH  15  16
ENDBRANCH  14  15
ENDBRANCH   2  14
TORSDOF 9
ENDMDL
MODEL 9
REMARK VINA RESULT:      -4.6      4.506      7.545
REMARK  Name = 
REMARK  11 active torsions:
REMARK  status: ('A' for Active; 'I' for Inactive)
REMARK    1  A    between atoms: C_1  and  C_2
REMARK    2  A    between atoms: C_2  and  C_3
REMARK    3  A    between atoms: C_2  and  C_4
REMARK    4  A    between atoms: C_2  and  C_6
REMARK    5  A    between atoms: C_4  and  O_5
REMARK    6  A    between atoms: C_6  and  O_7
REMARK    7  A    between atoms: C_6  and  C_8
REMARK    8  A    between atoms: N_10  and  C_11
REMARK    9  A    between atoms: C_11  and  C_12
REMARK   10  A    between atoms: C_12  and  C_13
REMARK   11  A    between atoms: C_13  and  O_14
REMARK                            x       y       z     vdW  Elec       q    Type
REMARK                         _______ _______ _______ _____ _____    ______ ____
ROOT
ATOM      1  C   UNL     1       7.500  -2.071  23.135  0.00  0.00    +0.242 C 
ATOM      2  N   UNL     1       8.310  -2.819  23.977  0.00  0.00    -0.313 N 
ATOM      3  H   UNL     1       8.585  -2.336  24.832  0.00  0.00    +0.149 HD
ATOM      4  O   UNL     1       6.684  -2.605  22.390  0.00  0.00    -0.273 OA
ENDROOT
BRANCH   1   5
ATOM      5  C   UNL     1       7.685  -0.542  23.252  0.00  0.00    +0.208 C 
BRANCH   5   7
ATOM      6  C   UNL     1      10.060   0.284  23.503  0.00  0.00    +0.016 C 
ATOM      7  C   UNL     1       8.929   0.004  22.486  0.00  0.00    +0.023 C 
ATOM      8  C   UNL     1       8.660   1.332  21.747  0.00  0.00    +0.016 C 
BRANCH   7   9
ATOM      9  C   UNL     1       9.415  -1.054  21.470  0.00  0.00    +0.165 C 
BRANCH   9  10
ATOM     10  O   UNL     1      10.590  -1.707  21.939  0.00  0.00    -0.394 OA
ATOM     11  H   UNL     1      10.571  -1.676  22.913  0.00  0.00    +0.209 HD
ENDBRANCH   9  10
ENDBRANCH   7   9
ENDBRANCH   5   7
BRANCH   5  12
ATOM     12  O   UNL     1       6.475   0.103  22.851  0.00  0.00    -0.382 OA
ATOM     13  H   UNL     1       6.527   1.032  23.138  0.00  0.00    +0.210 HD
ENDBRANCH   5  12
ENDBRANCH   1   5
BRANCH   2  14
ATOM     14  C   UNL     1       8.124  -4.262  24.004  0.00  0.00    +0.115 C 
BRANCH  14  15
ATOM     15  C   UNL     1       7.348  -4.744  25.214  0.00  0.00    +0.139 C 
BRANCH  15  16
ATOM     16  C   UNL     1       8.113  -4.883  26.507  0.00  0.00    +0.306 C 
ATOM     17  O   UNL     1       8.928  -4.042  26.865  0.00  0.00    -0.251 OA
BRANCH  16  18
ATOM     18  O   UNL     1       7.891  -5.997  27.230  0.00  0.00    -0.481 OA
ATOM     19  H   UNL     1       8.203  -6.835  26.829  0.00  0.00    +0.295 HD
ENDBRANCH  16  18
ENDBRANCH  15  16
ENDBRANCH  14  15
ENDBRANCH   2  14
TORSDOF 9
ENDMDL
