MODEL 1
REMARK VINA RESULT:      -6.4      0.000      0.000
REMARK  Name = 
REMARK  12 active torsions:
REMARK  status: ('A' for Active; 'I' for Inactive)
REMARK    1  A    between atoms: C_1  and  C_2
REMARK    2  A    between atoms: C_2  and  C_3
REMARK    3  A    between atoms: C_3  and  C_24
REMARK    4  A    between atoms: C_4  and  C_5
REMARK    5  A    between atoms: C_4  and  C_12
REMARK    6  A    between atoms: C_8  and  O_9
REMARK    7  A    between atoms: C_15  and  O_16
REMARK    8  A    between atoms: O_16  and  C_17
REMARK    9  A    between atoms: C_17  and  C_18
REMARK   10  A    between atoms: C_18  and  N_19
REMARK   11  A    between atoms: N_19  and  C_20
REMARK   12  A    between atoms: N_19  and  C_21
REMARK                            x       y       z     vdW  Elec       q    Type
REMARK                         _______ _______ _______ _____ _____    ______ ____
ROOT
ATOM      1  C   UNL     1       8.635  -1.159  24.812  0.00  0.00    -0.032 C 
ATOM      2  C   UNL     1       7.630  -0.876  23.934  0.00  0.00    -0.007 C 
ENDROOT
BRANCH   1   3
ATOM      3  C   UNL     1       8.839  -2.570  25.247  0.00  0.00    -0.021 A 
ATOM      4  C   UNL     1       8.176  -3.068  26.374  0.00  0.00    +0.008 A 
ATOM      5  C   UNL     1       8.321  -4.408  26.737  0.00  0.00    +0.001 A 
ATOM      6  C   UNL     1       9.137  -5.253  25.983  0.00  0.00    +0.000 A 
ATOM      7  C   UNL     1       9.815  -4.760  24.870  0.00  0.00    +0.001 A 
ATOM      8  C   UNL     1       9.671  -3.420  24.505  0.00  0.00    +0.008 A 
ENDBRANCH   1   3
BRANCH   2   9
ATOM      9  C   UNL     1       7.446   0.477  23.375  0.00  0.00    -0.017 A 
ATOM     10  C   UNL     1       8.148   0.931  22.251  0.00  0.00    +0.012 A 
ATOM     11  C   UNL     1       7.930   2.229  21.765  0.00  0.00    +0.046 A 
ATOM     12  C   UNL     1       7.030   3.081  22.407  0.00  0.00    +0.121 A 
ATOM     13  C   UNL     1       6.355   2.623  23.544  0.00  0.00    +0.046 A 
ATOM     14  C   UNL     1       6.564   1.336  24.027  0.00  0.00    +0.012 A 
BRANCH  12  15
ATOM     15  O   UNL     1       6.874   4.338  21.862  0.00  0.00    -0.491 OA
BRANCH  15  16
ATOM     16  C   UNL     1       7.002   5.391  22.823  0.00  0.00    +0.244 C 
BRANCH  16  17
ATOM     17  C   UNL     1       8.301   6.188  22.670  0.00  0.00    +0.124 C 
BRANCH  17  18
ATOM     18  N   UNL     1       9.048   6.270  23.947  0.00  0.00    -0.305 NA
ATOM     19  C   UNL     1      10.464   5.982  23.730  0.00  0.00    +0.104 C 
ATOM     20  C   UNL     1       8.510   5.373  24.974  0.00  0.00    +0.104 C 
ENDBRANCH  17  18
ENDBRANCH  16  17
ENDBRANCH  15  16
ENDBRANCH  12  15
ENDBRANCH   2   9
BRANCH   2  21
ATOM     21  C   UNL     1       6.745  -1.971  23.443  0.00  0.00    -0.017 A 
ATOM     22  C   UNL     1       7.058  -2.673  22.266  0.00  0.00    +0.012 A 
ATOM     23  C   UNL     1       6.278  -3.755  21.862  0.00  0.00    +0.046 A 
ATOM     24  C   UNL     1       5.183  -4.134  22.630  0.00  0.00    +0.117 A 
ATOM     25  C   UNL     1       4.827  -3.423  23.771  0.00  0.00    +0.046 A 
ATOM     26  C   UNL     1       5.606  -2.335  24.174  0.00  0.00    +0.012 A 
BRANCH  24  27
ATOM     27  O   UNL     1       4.479  -5.233  22.235  0.00  0.00    -0.507 OA
ATOM     28  H   UNL     1       5.111  -5.894  21.908  0.00  0.00    +0.292 HD
ENDBRANCH  24  27
ENDBRANCH   2  21
BRANCH   1  30
ATOM     29  C   UNL     1      10.826   0.367  24.684  0.00  0.00    +0.009 C 
ATOM     30  C   UNL     1       9.685  -0.264  25.471  0.00  0.00    +0.033 C 
ENDBRANCH   1  30
TORSDOF 9
ENDMDL
MODEL 2
REMARK VINA RESULT:      -6.2      1.986      2.899
REMARK  Name = 
REMARK  12 active torsions:
REMARK  status: ('A' for Active; 'I' for Inactive)
REMARK    1  A    between atoms: C_1  and  C_2
REMARK    2  A    between atoms: C_2  and  C_3
REMARK    3  A    between atoms: C_3  and  C_24
REMARK    4  A    between atoms: C_4  and  C_5
REMARK    5  A    between atoms: C_4  and  C_12
REMARK    6  A    between atoms: C_8  and  O_9
REMARK    7  A    between atoms: C_15  and  O_16
REMARK    8  A    between atoms: O_16  and  C_17
REMARK    9  A    between atoms: C_17  and  C_18
REMARK   10  A    between atoms: C_18  and  N_19
REMARK   11  A    between atoms: N_19  and  C_20
REMARK   12  A    between atoms: N_19  and  C_21
REMARK                            x       y       z     vdW  Elec       q    Type
REMARK                         _______ _______ _______ _____ _____    ______ ____
ROOT
ATOM      1  C   UNL     1       7.391  -2.134  25.933  0.00  0.00    -0.032 C 
ATOM      2  C   UNL     1       7.557  -2.057  24.581  0.00  0.00    -0.007 C 
ENDROOT
BRANCH   1   3
ATOM      3  C   UNL     1       6.735  -3.340  26.512  0.00  0.00    -0.021 A 
ATOM      4  C   UNL     1       7.497  -4.454  26.882  0.00  0.00    +0.008 A 
ATOM      5  C   UNL     1       6.885  -5.554  27.484  0.00  0.00    +0.001 A 
ATOM      6  C   UNL     1       5.507  -5.551  27.711  0.00  0.00    +0.000 A 
ATOM      7  C   UNL     1       4.738  -4.453  27.330  0.00  0.00    +0.001 A 
ATOM      8  C   UNL     1       5.349  -3.352  26.727  0.00  0.00    +0.008 A 
ENDBRANCH   1   3
BRANCH   2   9
ATOM      9  C   UNL     1       8.300  -0.946  23.952  0.00  0.00    -0.017 A 
ATOM     10  C   UNL     1       9.688  -0.804  24.073  0.00  0.00    +0.012 A 
ATOM     11  C   UNL     1      10.338   0.273  23.452  0.00  0.00    +0.046 A 
ATOM     12  C   UNL     1       9.607   1.218  22.730  0.00  0.00    +0.121 A 
ATOM     13  C   UNL     1       8.218   1.076  22.640  0.00  0.00    +0.046 A 
ATOM     14  C   UNL     1       7.569   0.009  23.249  0.00  0.00    +0.012 A 
BRANCH  12  15
ATOM     15  O   UNL     1      10.326   2.242  22.149  0.00  0.00    -0.491 OA
BRANCH  15  16
ATOM     16  C   UNL     1      10.897   3.143  23.104  0.00  0.00    +0.244 C 
BRANCH  16  17
ATOM     17  C   UNL     1       9.851   4.009  23.812  0.00  0.00    +0.124 C 
BRANCH  17  18
ATOM     18  N   UNL     1      10.342   5.389  24.037  0.00  0.00    -0.305 NA
ATOM     19  C   UNL     1       9.447   6.359  23.408  0.00  0.00    +0.104 C 
ATOM     20  C   UNL     1      11.710   5.587  23.549  0.00  0.00    +0.104 C 
ENDBRANCH  17  18
ENDBRANCH  16  17
ENDBRANCH  15  16
ENDBRANCH  12  15
ENDBRANCH   2   9
BRANCH   2  21
ATOM     21  C   UNL     1       7.067  -3.163  23.709  0.00  0.00    -0.017 A 
ATOM     22  C   UNL     1       7.900  -4.248  23.391  0.00  0.00    +0.012 A 
ATOM     23  C   UNL     1       7.407  -5.323  22.652  0.00  0.00    +0.046 A 
ATOM     24  C   UNL     1       6.083  -5.311  22.228  0.00  0.00    +0.117 A 
ATOM     25  C   UNL     1       5.255  -4.224  22.490  0.00  0.00    +0.046 A 
ATOM     26  C   UNL     1       5.751  -3.146  23.227  0.00  0.00    +0.012 A 
BRANCH  24  27
ATOM     27  O   UNL     1       5.620  -6.405  21.559  0.00  0.00    -0.507 OA
ATOM     28  H   UNL     1       4.727  -6.205  21.234  0.00  0.00    +0.292 HD
ENDBRANCH  24  27
ENDBRANCH   2  21
BRANCH   1  30
ATOM     29  C   UNL     1       7.100   0.165  27.264  0.00  0.00    +0.009 C 
ATOM     30  C   UNL     1       7.787  -1.178  27.057  0.00  0.00    +0.033 C 
ENDBRANCH   1  30
TORSDOF 9
ENDMDL
MODEL 3
REMARK VINA RESULT:      -6.2      1.947      2.781
REMARK  Name = 
REMARK  12 active torsions:
REMARK  status: ('A' for Active; 'I' for Inactive)
REMARK    1  A    between atoms: C_1  and  C_2
REMARK    2  A    between atoms: C_2  and  C_3
REMARK    3  A    between atoms: C_3  and  C_24
REMARK    4  A    between atoms: C_4  and  C_5
REMARK    5  A    between atoms: C_4  and  C_12
REMARK    6  A    between atoms: C_8  and  O_9
REMARK    7  A    between atoms: C_15  and  O_16
REMARK    8  A    between atoms: O_16  and  C_17
REMARK    9  A    between atoms: C_17  and  C_18
REMARK   10  A    between atoms: C_18  and  N_19
REMARK   11  A    between atoms: N_19  and  C_20
REMARK   12  A    between atoms: N_19  and  C_21
REMARK                            x       y       z     vdW  Elec       q    Type
REMARK                         _______ _______ _______ _____ _____    ______ ____
ROOT
ATOM      1  C   UNL     1       7.486  -2.037  25.974  0.00  0.00    -0.032 C 
ATOM      2  C   UNL     1       7.605  -1.929  24.619  0.00  0.00    -0.007 C 
ENDROOT
BRANCH   1   3
ATOM      3  C   UNL     1       6.848  -3.256  26.548  0.00  0.00    -0.021 A 
ATOM      4  C   UNL     1       5.479  -3.272  26.836  0.00  0.00    +0.008 A 
ATOM      5  C   UNL     1       4.876  -4.437  27.312  0.00  0.00    +0.001 A 
ATOM      6  C   UNL     1       5.639  -5.589  27.512  0.00  0.00    +0.000 A 
ATOM      7  C   UNL     1       7.007  -5.576  27.245  0.00  0.00    +0.001 A 
ATOM      8  C   UNL     1       7.612  -4.411  26.769  0.00  0.00    +0.008 A 
ENDBRANCH   1   3
BRANCH   2   9
ATOM      9  C   UNL     1       8.328  -0.806  23.991  0.00  0.00    -0.017 A 
ATOM     10  C   UNL     1       7.691   0.140  23.177  0.00  0.00    +0.012 A 
ATOM     11  C   UNL     1       8.431   1.186  22.607  0.00  0.00    +0.046 A 
ATOM     12  C   UNL     1       9.806   1.281  22.829  0.00  0.00    +0.121 A 
ATOM     13  C   UNL     1      10.433   0.314  23.623  0.00  0.00    +0.046 A 
ATOM     14  C   UNL     1       9.703  -0.722  24.194  0.00  0.00    +0.012 A 
BRANCH  12  15
ATOM     15  O   UNL     1      10.456   2.341  22.234  0.00  0.00    -0.491 OA
BRANCH  15  16
ATOM     16  C   UNL     1      11.078   3.223  23.175  0.00  0.00    +0.244 C 
BRANCH  16  17
ATOM     17  C   UNL     1      10.122   4.290  23.719  0.00  0.00    +0.124 C 
BRANCH  17  18
ATOM     18  N   UNL     1      10.728   5.642  23.677  0.00  0.00    -0.305 NA
ATOM     19  C   UNL     1      12.187   5.547  23.655  0.00  0.00    +0.104 C 
ATOM     20  C   UNL     1      10.302   6.486  24.796  0.00  0.00    +0.104 C 
ENDBRANCH  17  18
ENDBRANCH  16  17
ENDBRANCH  15  16
ENDBRANCH  12  15
ENDBRANCH   2   9
BRANCH   2  21
ATOM     21  C   UNL     1       7.081  -3.014  23.740  0.00  0.00    -0.017 A 
ATOM     22  C   UNL     1       7.902  -4.088  23.359  0.00  0.00    +0.012 A 
ATOM     23  C   UNL     1       7.380  -5.144  22.613  0.00  0.00    +0.046 A 
ATOM     24  C   UNL     1       6.040  -5.125  22.245  0.00  0.00    +0.117 A 
ATOM     25  C   UNL     1       5.222  -4.048  22.569  0.00  0.00    +0.046 A 
ATOM     26  C   UNL     1       5.746  -2.987  23.312  0.00  0.00    +0.012 A 
BRANCH  24  27
ATOM     27  O   UNL     1       5.553  -6.203  21.567  0.00  0.00    -0.507 OA
ATOM     28  H   UNL     1       5.072  -5.878  20.788  0.00  0.00    +0.292 HD
ENDBRANCH  24  27
ENDBRANCH   2  21
BRANCH   1  30
ATOM     29  C   UNL     1       7.237   0.221  27.381  0.00  0.00    +0.009 C 
ATOM     30  C   UNL     1       7.925  -1.109  27.106  0.00  0.00    +0.033 C 
ENDBRANCH   1  30
TORSDOF 9
ENDMDL
MODEL 4
REMARK VINA RESULT:      -6.2      4.403      7.883
REMARK  Name = 
REMARK  12 active torsions:
REMARK  status: ('A' for Active; 'I' for Inactive)
REMARK    1  A    between atoms: C_1  and  C_2
REMARK    2  A    between atoms: C_2  and  C_3
REMARK    3  A    between atoms: C_3  and  C_24
REMARK    4  A    between atoms: C_4  and  C_5
REMARK    5  A    between atoms: C_4  and  C_12
REMARK    6  A    between atoms: C_8  and  O_9
REMARK    7  A    between atoms: C_15  and  O_16
REMARK    8  A    between atoms: O_16  and  C_17
REMARK    9  A    between atoms: C_17  and  C_18
REMARK   10  A    between atoms: C_18  and  N_19
REMARK   11  A    between atoms: N_19  and  C_20
REMARK   12  A    between atoms: N_19  and  C_21
REMARK                            x       y       z     vdW  Elec       q    Type
REMARK                         _______ _______ _______ _____ _____    ______ ____
ROOT
ATOM      1  C   UNL     1       8.111  -2.158  25.438  0.00  0.00    -0.032 C 
ATOM      2  C   UNL     1       7.273  -3.228  25.325  0.00  0.00    -0.007 C 
ENDROOT
BRANCH   1   3
ATOM      3  C   UNL     1       8.698  -1.567  24.201  0.00  0.00    -0.021 A 
ATOM      4  C   UNL     1       9.881  -2.083  23.660  0.00  0.00    +0.008 A 
ATOM      5  C   UNL     1      10.388  -1.567  22.467  0.00  0.00    +0.001 A 
ATOM      6  C   UNL     1       9.724  -0.527  21.815  0.00  0.00    +0.000 A 
ATOM      7  C   UNL     1       8.556   0.005  22.357  0.00  0.00    +0.001 A 
ATOM      8  C   UNL     1       8.046  -0.510  23.551  0.00  0.00    +0.008 A 
ENDBRANCH   1   3
BRANCH   2   9
ATOM      9  C   UNL     1       6.569  -3.789  26.495  0.00  0.00    -0.017 A 
ATOM     10  C   UNL     1       5.449  -3.173  27.068  0.00  0.00    +0.012 A 
ATOM     11  C   UNL     1       4.822  -3.754  28.179  0.00  0.00    +0.046 A 
ATOM     12  C   UNL     1       5.318  -4.935  28.734  0.00  0.00    +0.121 A 
ATOM     13  C   UNL     1       6.453  -5.525  28.166  0.00  0.00    +0.046 A 
ATOM     14  C   UNL     1       7.076  -4.956  27.061  0.00  0.00    +0.012 A 
BRANCH  12  15
ATOM     15  O   UNL     1       4.639  -5.439  29.822  0.00  0.00    -0.491 OA
BRANCH  15  16
ATOM     16  C   UNL     1       3.256  -5.697  29.556  0.00  0.00    +0.244 C 
BRANCH  16  17
ATOM     17  C   UNL     1       3.025  -7.010  28.803  0.00  0.00    +0.124 C 
BRANCH  17  18
ATOM     18  N   UNL     1       2.326  -6.788  27.515  0.00  0.00    -0.305 NA
ATOM     19  C   UNL     1       3.274  -6.841  26.403  0.00  0.00    +0.104 C 
ATOM     20  C   UNL     1       1.595  -5.518  27.482  0.00  0.00    +0.104 C 
ENDBRANCH  17  18
ENDBRANCH  16  17
ENDBRANCH  15  16
ENDBRANCH  12  15
ENDBRANCH   2   9
BRANCH   2  21
ATOM     21  C   UNL     1       6.975  -3.798  23.979  0.00  0.00    -0.017 A 
ATOM     22  C   UNL     1       7.689  -4.906  23.495  0.00  0.00    +0.012 A 
ATOM     23  C   UNL     1       7.345  -5.490  22.277  0.00  0.00    +0.046 A 
ATOM     24  C   UNL     1       6.288  -4.965  21.541  0.00  0.00    +0.117 A 
ATOM     25  C   UNL     1       5.600  -3.838  21.979  0.00  0.00    +0.046 A 
ATOM     26  C   UNL     1       5.949  -3.250  23.197  0.00  0.00    +0.012 A 
BRANCH  24  27
ATOM     27  O   UNL     1       5.943  -5.599  20.385  0.00  0.00    -0.507 OA
ATOM     28  H   UNL     1       4.988  -5.775  20.411  0.00  0.00    +0.292 HD
ENDBRANCH  24  27
ENDBRANCH   2  21
BRANCH   1  30
ATOM     29  C   UNL     1       7.807  -0.192  27.222  0.00  0.00    +0.009 C 
ATOM     30  C   UNL     1       8.589  -1.371  26.657  0.00  0.00    +0.033 C 
ENDBRANCH   1  30
TORSDOF 9
ENDMDL
MODEL 5
REMARK VINA RESULT:      -5.8      3.210      7.922
REMARK  Name = 
REMARK  12 active torsions:
REMARK  status: ('A' for Active; 'I' for Inactive)
REMARK    1  A    between atoms: C_1  and  C_2
REMARK    2  A    between atoms: C_2  and  C_3
REMARK    3  A    between atoms: C_3  and  C_24
REMARK    4  A    between atoms: C_4  and  C_5
REMARK    5  A    between atoms: C_4  and  C_12
REMARK    6  A    between atoms: C_8  and  O_9
REMARK    7  A    between atoms: C_15  and  O_16
REMARK    8  A    between atoms: O_16  and  C_17
REMARK    9  A    between atoms: C_17  and  C_18
REMARK   10  A    between atoms: C_18  and  N_19
REMARK   11  A    between atoms: N_19  and  C_20
REMARK   12  A    between atoms: N_19  and  C_21
REMARK                            x       y       z     vdW  Elec       q    Type
REMARK                         _______ _______ _______ _____ _____    ______ ____
ROOT
ATOM      1  C   UNL     1       8.528   1.619  22.988  0.00  0.00    -0.032 C 
ATOM      2  C   UNL     1       7.846   0.836  23.872  0.00  0.00    -0.007 C 
ENDROOT
BRANCH   1   3
ATOM      3  C   UNL     1       8.353   3.099  23.050  0.00  0.00    -0.021 A 
ATOM      4  C   UNL     1       9.209   3.883  23.831  0.00  0.00    +0.008 A 
ATOM      5  C   UNL     1       9.080   5.272  23.833  0.00  0.00    +0.001 A 
ATOM      6  C   UNL     1       8.091   5.885  23.062  0.00  0.00    +0.000 A 
ATOM      7  C   UNL     1       7.222   5.110  22.295  0.00  0.00    +0.001 A 
ATOM      8  C   UNL     1       7.350   3.719  22.293  0.00  0.00    +0.008 A 
ENDBRANCH   1   3
BRANCH   2   9
ATOM      9  C   UNL     1       8.061  -0.623  23.941  0.00  0.00    -0.017 A 
ATOM     10  C   UNL     1       7.124  -1.547  23.461  0.00  0.00    +0.012 A 
ATOM     11  C   UNL     1       7.384  -2.922  23.555  0.00  0.00    +0.046 A 
ATOM     12  C   UNL     1       8.565  -3.379  24.144  0.00  0.00    +0.121 A 
ATOM     13  C   UNL     1       9.479  -2.445  24.643  0.00  0.00    +0.046 A 
ATOM     14  C   UNL     1       9.228  -1.081  24.548  0.00  0.00    +0.012 A 
BRANCH  12  15
ATOM     15  O   UNL     1       8.742  -4.746  24.192  0.00  0.00    -0.491 OA
BRANCH  15  16
ATOM     16  C   UNL     1       9.030  -5.232  25.507  0.00  0.00    +0.244 C 
BRANCH  16  17
ATOM     17  C   UNL     1       7.979  -4.820  26.542  0.00  0.00    +0.124 C 
BRANCH  17  18
ATOM     18  N   UNL     1       6.977  -5.889  26.763  0.00  0.00    -0.305 NA
ATOM     19  C   UNL     1       5.867  -5.751  25.821  0.00  0.00    +0.104 C 
ATOM     20  C   UNL     1       6.464  -5.907  28.136  0.00  0.00    +0.104 C 
ENDBRANCH  17  18
ENDBRANCH  16  17
ENDBRANCH  15  16
ENDBRANCH  12  15
ENDBRANCH   2   9
BRANCH   2  21
ATOM     21  C   UNL     1       6.928   1.464  24.865  0.00  0.00    -0.017 A 
ATOM     22  C   UNL     1       5.565   1.640  24.571  0.00  0.00    +0.012 A 
ATOM     23  C   UNL     1       4.695   2.143  25.536  0.00  0.00    +0.046 A 
ATOM     24  C   UNL     1       5.186   2.474  26.794  0.00  0.00    +0.117 A 
ATOM     25  C   UNL     1       6.539   2.354  27.090  0.00  0.00    +0.046 A 
ATOM     26  C   UNL     1       7.412   1.854  26.121  0.00  0.00    +0.012 A 
BRANCH  24  27
ATOM     27  O   UNL     1       4.294   2.907  27.730  0.00  0.00    -0.507 OA
ATOM     28  H   UNL     1       4.520   3.823  27.961  0.00  0.00    +0.292 HD
ENDBRANCH  24  27
ENDBRANCH   2  21
BRANCH   1  30
ATOM     29  C   UNL     1       9.426  -0.020  21.078  0.00  0.00    +0.009 C 
ATOM     30  C   UNL     1       9.524   1.269  21.884  0.00  0.00    +0.033 C 
ENDBRANCH   1  30
TORSDOF 9
ENDMDL
MODEL 6
REMARK VINA RESULT:      -5.7      2.096      3.284
REMARK  Name = 
REMARK  12 active torsions:
REMARK  status: ('A' for Active; 'I' for Inactive)
REMARK    1  A    between atoms: C_1  and  C_2
REMARK    2  A    between atoms: C_2  and  C_3
REMARK    3  A    between atoms: C_3  and  C_24
REMARK    4  A    between atoms: C_4  and  C_5
REMARK    5  A    between atoms: C_4  and  C_12
REMARK    6  A    between atoms: C_8  and  O_9
REMARK    7  A    between atoms: C_15  and  O_16
REMARK    8  A    between atoms: O_16  and  C_17
REMARK    9  A    between atoms: C_17  and  C_18
REMARK   10  A    between atoms: C_18  and  N_19
REMARK   11  A    between atoms: N_19  and  C_20
REMARK   12  A    between atoms: N_19  and  C_21
REMARK                            x       y       z     vdW  Elec       q    Type
REMARK                         _______ _______ _______ _____ _____    ______ ____
ROOT
ATOM      1  C   UNL     1       7.832  -2.010  22.911  0.00  0.00    -0.032 C 
ATOM      2  C   UNL     1       7.359  -1.346  24.005  0.00  0.00    -0.007 C 
ENDROOT
BRANCH   1   3
ATOM      3  C   UNL     1       7.407  -3.421  22.684  0.00  0.00    -0.021 A 
ATOM      4  C   UNL     1       6.439  -3.725  21.720  0.00  0.00    +0.008 A 
ATOM      5  C   UNL     1       6.095  -5.053  21.467  0.00  0.00    +0.001 A 
ATOM      6  C   UNL     1       6.708  -6.084  22.182  0.00  0.00    +0.000 A 
ATOM      7  C   UNL     1       7.659  -5.789  23.156  0.00  0.00    +0.001 A 
ATOM      8  C   UNL     1       8.005  -4.461  23.411  0.00  0.00    +0.008 A 
ENDBRANCH   1   3
BRANCH   2   9
ATOM      9  C   UNL     1       7.647   0.085  24.228  0.00  0.00    -0.017 A 
ATOM     10  C   UNL     1       6.716   1.093  23.950  0.00  0.00    +0.012 A 
ATOM     11  C   UNL     1       7.046   2.436  24.183  0.00  0.00    +0.046 A 
ATOM     12  C   UNL     1       8.308   2.778  24.672  0.00  0.00    +0.121 A 
ATOM     13  C   UNL     1       9.237   1.761  24.921  0.00  0.00    +0.046 A 
ATOM     14  C   UNL     1       8.913   0.428  24.696  0.00  0.00    +0.012 A 
BRANCH  12  15
ATOM     15  O   UNL     1       8.549   4.120  24.876  0.00  0.00    -0.491 OA
BRANCH  15  16
ATOM     16  C   UNL     1       9.247   4.740  23.790  0.00  0.00    +0.244 C 
BRANCH  16  17
ATOM     17  C   UNL     1       9.956   6.036  24.195  0.00  0.00    +0.124 C 
BRANCH  17  18
ATOM     18  N   UNL     1      11.386   6.024  23.805  0.00  0.00    -0.305 NA
ATOM     19  C   UNL     1      11.802   4.674  23.431  0.00  0.00    +0.104 C 
ATOM     20  C   UNL     1      12.262   6.539  24.861  0.00  0.00    +0.104 C 
ENDBRANCH  17  18
ENDBRANCH  16  17
ENDBRANCH  15  16
ENDBRANCH  12  15
ENDBRANCH   2   9
BRANCH   2  21
ATOM     21  C   UNL     1       6.449  -2.042  24.959  0.00  0.00    -0.017 A 
ATOM     22  C   UNL     1       5.094  -2.238  24.645  0.00  0.00    +0.012 A 
ATOM     23  C   UNL     1       4.270  -2.969  25.500  0.00  0.00    +0.046 A 
ATOM     24  C   UNL     1       4.799  -3.500  26.670  0.00  0.00    +0.117 A 
ATOM     25  C   UNL     1       6.125  -3.277  27.025  0.00  0.00    +0.046 A 
ATOM     26  C   UNL     1       6.949  -2.540  26.170  0.00  0.00    +0.012 A 
BRANCH  24  27
ATOM     27  O   UNL     1       3.978  -4.259  27.451  0.00  0.00    -0.507 OA
ATOM     28  H   UNL     1       3.092  -4.251  27.053  0.00  0.00    +0.292 HD
ENDBRANCH  24  27
ENDBRANCH   2  21
BRANCH   1  30
ATOM     29  C   UNL     1      10.241  -1.312  21.990  0.00  0.00    +0.009 C 
ATOM     30  C   UNL     1       8.755  -1.566  21.777  0.00  0.00    +0.033 C 
ENDBRANCH   1  30
TORSDOF 9
ENDMDL
MODEL 7
REMARK VINA RESULT:      -5.7      2.959      7.654
REMARK  Name = 
REMARK  12 active torsions:
REMARK  status: ('A' for Active; 'I' for Inactive)
REMARK    1  A    between atoms: C_1  and  C_2
REMARK    2  A    between atoms: C_2  and  C_3
REMARK    3  A    between atoms: C_3  and  C_24
REMARK    4  A    between atoms: C_4  and  C_5
REMARK    5  A    between atoms: C_4  and  C_12
REMARK    6  A    between atoms: C_8  and  O_9
REMARK    7  A    between atoms: C_15  and  O_16
REMARK    8  A    between atoms: O_16  and  C_17
REMARK    9  A    between atoms: C_17  and  C_18
REMARK   10  A    between atoms: C_18  and  N_19
REMARK   11  A    between atoms: N_19  and  C_20
REMARK   12  A    between atoms: N_19  and  C_21
REMARK                            x       y       z     vdW  Elec       q    Type
REMARK                         _______ _______ _______ _____ _____    ______ ____
ROOT
ATOM      1  C   UNL     1       9.385   3.097  23.777  0.00  0.00    -0.032 C 
ATOM      2  C   UNL     1       8.470   2.085  23.795  0.00  0.00    -0.007 C 
ENDROOT
BRANCH   1   3
ATOM      3  C   UNL     1       8.906   4.506  23.867  0.00  0.00    -0.021 A 
ATOM      4  C   UNL     1       8.513   5.197  22.716  0.00  0.00    +0.008 A 
ATOM      5  C   UNL     1       8.004   6.493  22.815  0.00  0.00    +0.001 A 
ATOM      6  C   UNL     1       7.895   7.108  24.064  0.00  0.00    +0.000 A 
ATOM      7  C   UNL     1       8.301   6.433  25.213  0.00  0.00    +0.001 A 
ATOM      8  C   UNL     1       8.810   5.137  25.116  0.00  0.00    +0.008 A 
ENDBRANCH   1   3
BRANCH   2   9
ATOM      9  C   UNL     1       8.881   0.668  23.825  0.00  0.00    -0.017 A 
ATOM     10  C   UNL     1       9.068  -0.088  22.661  0.00  0.00    +0.012 A 
ATOM     11  C   UNL     1       9.459  -1.432  22.753  0.00  0.00    +0.046 A 
ATOM     12  C   UNL     1       9.645  -2.029  24.001  0.00  0.00    +0.121 A 
ATOM     13  C   UNL     1       9.430  -1.268  25.156  0.00  0.00    +0.046 A 
ATOM     14  C   UNL     1       9.046   0.065  25.070  0.00  0.00    +0.012 A 
BRANCH  12  15
ATOM     15  O   UNL     1      10.033  -3.352  24.001  0.00  0.00    -0.491 OA
BRANCH  15  16
ATOM     16  C   UNL     1       9.235  -4.175  24.858  0.00  0.00    +0.244 C 
BRANCH  16  17
ATOM     17  C   UNL     1       8.320  -5.132  24.089  0.00  0.00    +0.124 C 
BRANCH  17  18
ATOM     18  N   UNL     1       6.906  -4.688  24.127  0.00  0.00    -0.305 NA
ATOM     19  C   UNL     1       6.580  -3.918  22.927  0.00  0.00    +0.104 C 
ATOM     20  C   UNL     1       6.595  -3.899  25.322  0.00  0.00    +0.104 C 
ENDBRANCH  17  18
ENDBRANCH  16  17
ENDBRANCH  15  16
ENDBRANCH  12  15
ENDBRANCH   2   9
BRANCH   2  21
ATOM     21  C   UNL     1       7.016   2.402  23.883  0.00  0.00    -0.017 A 
ATOM     22  C   UNL     1       6.267   2.665  22.724  0.00  0.00    +0.012 A 
ATOM     23  C   UNL     1       4.890   2.870  22.805  0.00  0.00    +0.046 A 
ATOM     24  C   UNL     1       4.263   2.817  24.044  0.00  0.00    +0.117 A 
ATOM     25  C   UNL     1       4.992   2.607  25.209  0.00  0.00    +0.046 A 
ATOM     26  C   UNL     1       6.372   2.406  25.128  0.00  0.00    +0.012 A 
BRANCH  24  27
ATOM     27  O   UNL     1       2.907   2.963  24.076  0.00  0.00    -0.507 OA
ATOM     28  H   UNL     1       2.685   3.803  23.642  0.00  0.00    +0.292 HD
ENDBRANCH  24  27
ENDBRANCH   2  21
BRANCH   1  30
ATOM     29  C   UNL     1      11.722   4.322  23.357  0.00  0.00    +0.009 C 
ATOM     30  C   UNL     1      10.911   3.081  23.701  0.00  0.00    +0.033 C 
ENDBRANCH   1  30
TORSDOF 9
ENDMDL
MODEL 8
REMARK VINA RESULT:      -5.6      3.281      8.168
REMARK  Name = 
REMARK  12 active torsions:
REMARK  status: ('A' for Active; 'I' for Inactive)
REMARK    1  A    between atoms: C_1  and  C_2
REMARK    2  A    between atoms: C_2  and  C_3
REMARK    3  A    between atoms: C_3  and  C_24
REMARK    4  A    between atoms: C_4  and  C_5
REMARK    5  A    between atoms: C_4  and  C_12
REMARK    6  A    between atoms: C_8  and  O_9
REMARK    7  A    between atoms: C_15  and  O_16
REMARK    8  A    between atoms: O_16  and  C_17
REMARK    9  A    between atoms: C_17  and  C_18
REMARK   10  A    between atoms: C_18  and  N_19
REMARK   11  A    between atoms: N_19  and  C_20
REMARK   12  A    between atoms: N_19  and  C_21
REMARK                            x       y       z     vdW  Elec       q    Type
REMARK                         _______ _______ _______ _____ _____    ______ ____
ROOT
ATOM      1  C   UNL     1       8.421   2.299  23.132  0.00  0.00    -0.032 C 
ATOM      2  C   UNL     1       7.684   1.628  24.063  0.00  0.00    -0.007 C 
ENDROOT
BRANCH   1   3
ATOM      3  C   UNL     1       8.329   3.786  23.073  0.00  0.00    -0.021 A 
ATOM      4  C   UNL     1       9.220   4.582  23.802  0.00  0.00    +0.008 A 
ATOM      5  C   UNL     1       9.170   5.972  23.691  0.00  0.00    +0.001 A 
ATOM      6  C   UNL     1       8.225   6.575  22.859  0.00  0.00    +0.000 A 
ATOM      7  C   UNL     1       7.322   5.790  22.144  0.00  0.00    +0.001 A 
ATOM      8  C   UNL     1       7.370   4.399  22.254  0.00  0.00    +0.008 A 
ENDBRANCH   1   3
BRANCH   2   9
ATOM      9  C   UNL     1       7.814   0.170  24.253  0.00  0.00    -0.017 A 
ATOM     10  C   UNL     1       8.892  -0.409  24.935  0.00  0.00    +0.012 A 
ATOM     11  C   UNL     1       8.961  -1.802  25.083  0.00  0.00    +0.046 A 
ATOM     12  C   UNL     1       7.971  -2.620  24.535  0.00  0.00    +0.121 A 
ATOM     13  C   UNL     1       6.915  -2.029  23.834  0.00  0.00    +0.046 A 
ATOM     14  C   UNL     1       6.839  -0.649  23.688  0.00  0.00    +0.012 A 
BRANCH  12  15
ATOM     15  O   UNL     1       8.115  -3.977  24.730  0.00  0.00    -0.491 OA
BRANCH  15  16
ATOM     16  C   UNL     1       7.029  -4.743  24.197  0.00  0.00    +0.244 C 
BRANCH  16  17
ATOM     17  C   UNL     1       7.413  -5.535  22.943  0.00  0.00    +0.124 C 
BRANCH  17  18
ATOM     18  N   UNL     1       6.223  -6.108  22.271  0.00  0.00    -0.305 NA
ATOM     19  C   UNL     1       6.226  -5.769  20.849  0.00  0.00    +0.104 C 
ATOM     20  C   UNL     1       4.965  -5.672  22.883  0.00  0.00    +0.104 C 
ENDBRANCH  17  18
ENDBRANCH  16  17
ENDBRANCH  15  16
ENDBRANCH  12  15
ENDBRANCH   2   9
BRANCH   2  21
ATOM     21  C   UNL     1       6.790   2.384  24.987  0.00  0.00    -0.017 A 
ATOM     22  C   UNL     1       5.441   2.602  24.662  0.00  0.00    +0.012 A 
ATOM     23  C   UNL     1       4.589   3.230  25.569  0.00  0.00    +0.046 A 
ATOM     24  C   UNL     1       5.085   3.642  26.800  0.00  0.00    +0.117 A 
ATOM     25  C   UNL     1       6.428   3.480  27.124  0.00  0.00    +0.046 A 
ATOM     26  C   UNL     1       7.283   2.856  26.212  0.00  0.00    +0.012 A 
BRANCH  24  27
ATOM     27  O   UNL     1       4.208   4.197  27.685  0.00  0.00    -0.507 OA
ATOM     28  H   UNL     1       4.544   5.075  27.931  0.00  0.00    +0.292 HD
ENDBRANCH  24  27
ENDBRANCH   2  21
BRANCH   1  30
ATOM     29  C   UNL     1       9.169   0.540  21.265  0.00  0.00    +0.009 C 
ATOM     30  C   UNL     1       9.409   1.806  22.077  0.00  0.00    +0.033 C 
ENDBRANCH   1  30
TORSDOF 9
ENDMDL
MODEL 9
REMARK VINA RESULT:      -5.4      2.857      4.301
REMARK  Name = 
REMARK  12 active torsions:
REMARK  status: ('A' for Active; 'I' for Inactive)
REMARK    1  A    between atoms: C_1  and  C_2
REMARK    2  A    between atoms: C_2  and  C_3
REMARK    3  A    between atoms: C_3  and  C_24
REMARK    4  A    between atoms: C_4  and  C_5
REMARK    5  A    between atoms: C_4  and  C_12
REMARK    6  A    between atoms: C_8  and  O_9
REMARK    7  A    between atoms: C_15  and  O_16
REMARK    8  A    between atoms: O_16  and  C_17
REMARK    9  A    between atoms: C_17  and  C_18
REMARK   10  A    between atoms: C_18  and  N_19
REMARK   11  A    between atoms: N_19  and  C_20
REMARK   12  A    between atoms: N_19  and  C_21
REMARK                            x       y       z     vdW  Elec       q    Type
REMARK                         _______ _______ _______ _____ _____    ______ ____
ROOT
ATOM      1  C   UNL     1       5.300  -1.654  26.125  0.00  0.00    -0.032 C 
ATOM      2  C   UNL     1       5.950  -2.263  25.092  0.00  0.00    -0.007 C 
ENDROOT
BRANCH   1   3
ATOM      3  C   UNL     1       4.259  -2.415  26.873  0.00  0.00    -0.021 A 
ATOM      4  C   UNL     1       4.550  -2.975  28.122  0.00  0.00    +0.008 A 
ATOM      5  C   UNL     1       3.552  -3.630  28.845  0.00  0.00    +0.001 A 
ATOM      6  C   UNL     1       2.263  -3.737  28.321  0.00  0.00    +0.000 A 
ATOM      7  C   UNL     1       1.970  -3.198  27.070  0.00  0.00    +0.001 A 
ATOM      8  C   UNL     1       2.966  -2.543  26.345  0.00  0.00    +0.008 A 
ENDBRANCH   1   3
BRANCH   2   9
ATOM      9  C   UNL     1       7.069  -1.609  24.385  0.00  0.00    -0.017 A 
ATOM     10  C   UNL     1       8.403  -1.758  24.784  0.00  0.00    +0.012 A 
ATOM     11  C   UNL     1       9.424  -1.111  24.072  0.00  0.00    +0.046 A 
ATOM     12  C   UNL     1       9.117  -0.300  22.977  0.00  0.00    +0.121 A 
ATOM     13  C   UNL     1       7.777  -0.140  22.607  0.00  0.00    +0.046 A 
ATOM     14  C   UNL     1       6.762  -0.783  23.306  0.00  0.00    +0.012 A 
BRANCH  12  15
ATOM     15  O   UNL     1      10.180   0.295  22.333  0.00  0.00    -0.491 OA
BRANCH  15  16
ATOM     16  C   UNL     1      10.002   1.701  22.128  0.00  0.00    +0.244 C 
BRANCH  16  17
ATOM     17  C   UNL     1      10.314   2.533  23.375  0.00  0.00    +0.124 C 
BRANCH  17  18
ATOM     18  N   UNL     1       9.139   3.320  23.819  0.00  0.00    -0.305 NA
ATOM     19  C   UNL     1       8.508   2.687  24.976  0.00  0.00    +0.104 C 
ATOM     20  C   UNL     1       8.149   3.504  22.753  0.00  0.00    +0.104 C 
ENDBRANCH  17  18
ENDBRANCH  16  17
ENDBRANCH  15  16
ENDBRANCH  12  15
ENDBRANCH   2   9
BRANCH   2  21
ATOM     21  C   UNL     1       5.599  -3.663  24.718  0.00  0.00    -0.017 A 
ATOM     22  C   UNL     1       6.036  -4.746  25.499  0.00  0.00    +0.012 A 
ATOM     23  C   UNL     1       5.629  -6.044  25.196  0.00  0.00    +0.046 A 
ATOM     24  C   UNL     1       4.788  -6.261  24.110  0.00  0.00    +0.117 A 
ATOM     25  C   UNL     1       4.383  -5.210  23.294  0.00  0.00    +0.046 A 
ATOM     26  C   UNL     1       4.796  -3.910  23.595  0.00  0.00    +0.012 A 
BRANCH  24  27
ATOM     27  O   UNL     1       4.363  -7.537  23.881  0.00  0.00    -0.507 OA
ATOM     28  H   UNL     1       4.972  -8.143  24.333  0.00  0.00    +0.292 HD
ENDBRANCH  24  27
ENDBRANCH   2  21
BRANCH   1  30
ATOM     29  C   UNL     1       6.684   0.166  27.508  0.00  0.00    +0.009 C 
ATOM     30  C   UNL     1       5.446  -0.258  26.730  0.00  0.00    +0.033 C 
ENDBRANCH   1  30
TORSDOF 9
ENDMDL
