MODEL 1
REMARK VINA RESULT:      -5.3      0.000      0.000
REMARK  Name = 
REMARK  8 active torsions:
REMARK  status: ('A' for Active; 'I' for Inactive)
REMARK    1  A    between atoms: C_1  and  C_2
REMARK    2  A    between atoms: C_3  and  C_4
REMARK    3  A    between atoms: C_4  and  C_5
REMARK    4  A    between atoms: C_6  and  C_7
REMARK    5  A    between atoms: C_7  and  C_8
REMARK    6  A    between atoms: C_8  and  C_9
REMARK    7  A    between atoms: C_9  and  C_11
REMARK    8  A    between atoms: C_14  and  C_16
REMARK                            x       y       z     vdW  Elec       q    Type
REMARK                         _______ _______ _______ _____ _____    ______ ____
ROOT
ATOM      1  C   UNL     1       8.782  -2.255  24.265  0.00  0.00    +0.165 C 
ATOM      2  O   UNL     1       8.709  -1.590  25.293  0.00  0.00    -0.295 OA
ENDROOT
BRANCH   1   3
ATOM      3  C   UNL     1       7.881  -3.419  24.077  0.00  0.00    +0.223 C 
ATOM      4  C   UNL     1       7.956  -4.718  24.832  0.00  0.00    +0.240 C 
ATOM      5  O   UNL     1       8.546  -4.579  23.531  0.00  0.00    -0.351 OA
BRANCH   4   6
ATOM      6  C   UNL     1       8.895  -4.967  25.944  0.00  0.00    +0.242 C 
ATOM      7  O   UNL     1       8.572  -4.729  27.098  0.00  0.00    -0.273 OA
ATOM      8  N   UNL     1      10.109  -5.490  25.611  0.00  0.00    -0.327 N 
ATOM      9  H   UNL     1      10.336  -5.712  24.650  0.00  0.00    +0.145 HD
ATOM     10  H   UNL     1      10.742  -5.757  26.349  0.00  0.00    +0.145 HD
ENDBRANCH   4   6
ENDBRANCH   1   3
BRANCH   1  11
ATOM     11  C   UNL     1       9.826  -2.037  23.198  0.00  0.00    +0.081 C 
BRANCH  11  12
ATOM     12  C   UNL     1       9.214  -1.681  21.846  0.00  0.00    +0.034 C 
BRANCH  12  14
ATOM     13  C   UNL     1      10.070   0.603  22.407  0.00  0.00    -0.027 C 
ATOM     14  C   UNL     1       9.392  -0.213  21.583  0.00  0.00    -0.030 C 
BRANCH  13  15
ATOM     15  C   UNL     1      10.186   2.087  22.224  0.00  0.00    +0.053 C 
BRANCH  15  18
ATOM     16  C   UNL     1       8.072   2.981  25.383  0.00  0.00    +0.035 C 
ATOM     17  C   UNL     1       8.731   2.229  24.273  0.00  0.00    -0.034 C 
ATOM     18  C   UNL     1       9.507   2.817  23.347  0.00  0.00    -0.027 C 
ENDBRANCH  15  18
ENDBRANCH  13  15
ENDBRANCH  12  14
ENDBRANCH  11  12
ENDBRANCH   1  11
TORSDOF 7
ENDMDL
MODEL 2
REMARK VINA RESULT:      -5.2      1.543      1.879
REMARK  Name = 
REMARK  8 active torsions:
REMARK  status: ('A' for Active; 'I' for Inactive)
REMARK    1  A    between atoms: C_1  and  C_2
REMARK    2  A    between atoms: C_3  and  C_4
REMARK    3  A    between atoms: C_4  and  C_5
REMARK    4  A    between atoms: C_6  and  C_7
REMARK    5  A    between atoms: C_7  and  C_8
REMARK    6  A    between atoms: C_8  and  C_9
REMARK    7  A    between atoms: C_9  and  C_11
REMARK    8  A    between atoms: C_14  and  C_16
REMARK                            x       y       z     vdW  Elec       q    Type
REMARK                         _______ _______ _______ _____ _____    ______ ____
ROOT
ATOM      1  C   UNL     1       9.157  -2.612  24.304  0.00  0.00    +0.165 C 
ATOM      2  O   UNL     1      10.219  -2.810  23.724  0.00  0.00    -0.295 OA
ENDROOT
BRANCH   1   3
ATOM      3  C   UNL     1       8.014  -3.533  24.081  0.00  0.00    +0.223 C 
ATOM      4  C   UNL     1       7.751  -4.805  24.841  0.00  0.00    +0.240 C 
ATOM      5  O   UNL     1       8.408  -4.823  23.565  0.00  0.00    -0.351 OA
BRANCH   4   6
ATOM      6  C   UNL     1       8.560  -5.255  25.992  0.00  0.00    +0.242 C 
ATOM      7  O   UNL     1       8.168  -5.079  27.136  0.00  0.00    -0.273 OA
ATOM      8  N   UNL     1       9.732  -5.887  25.702  0.00  0.00    -0.327 N 
ATOM      9  H   UNL     1      10.013  -6.052  24.744  0.00  0.00    +0.145 HD
ATOM     10  H   UNL     1      10.268  -6.287  26.457  0.00  0.00    +0.145 HD
ENDBRANCH   4   6
ENDBRANCH   1   3
BRANCH   1  11
ATOM     11  C   UNL     1       8.884  -1.403  25.165  0.00  0.00    +0.081 C 
BRANCH  11  12
ATOM     12  C   UNL     1      10.026  -0.391  25.128  0.00  0.00    +0.034 C 
BRANCH  12  14
ATOM     13  C   UNL     1      10.103   0.675  22.865  0.00  0.00    -0.027 C 
ATOM     14  C   UNL     1       9.702   0.699  24.146  0.00  0.00    -0.030 C 
BRANCH  13  15
ATOM     15  C   UNL     1       9.878   1.788  21.885  0.00  0.00    +0.053 C 
BRANCH  15  18
ATOM     16  C   UNL     1       6.248   3.182  22.245  0.00  0.00    +0.035 C 
ATOM     17  C   UNL     1       7.426   2.358  21.841  0.00  0.00    -0.034 C 
ATOM     18  C   UNL     1       8.675   2.602  22.271  0.00  0.00    -0.027 C 
ENDBRANCH  15  18
ENDBRANCH  13  15
ENDBRANCH  12  14
ENDBRANCH  11  12
ENDBRANCH   1  11
TORSDOF 7
ENDMDL
MODEL 3
REMARK VINA RESULT:      -5.2      1.649      2.296
REMARK  Name = 
REMARK  8 active torsions:
REMARK  status: ('A' for Active; 'I' for Inactive)
REMARK    1  A    between atoms: C_1  and  C_2
REMARK    2  A    between atoms: C_3  and  C_4
REMARK    3  A    between atoms: C_4  and  C_5
REMARK    4  A    between atoms: C_6  and  C_7
REMARK    5  A    between atoms: C_7  and  C_8
REMARK    6  A    between atoms: C_8  and  C_9
REMARK    7  A    between atoms: C_9  and  C_11
REMARK    8  A    between atoms: C_14  and  C_16
REMARK                            x       y       z     vdW  Elec       q    Type
REMARK                         _______ _______ _______ _____ _____    ______ ____
ROOT
ATOM      1  C   UNL     1       9.294  -2.572  24.126  0.00  0.00    +0.165 C 
ATOM      2  O   UNL     1      10.377  -3.009  23.752  0.00  0.00    -0.295 OA
ENDROOT
BRANCH   1   3
ATOM      3  C   UNL     1       8.081  -3.421  24.016  0.00  0.00    +0.223 C 
ATOM      4  C   UNL     1       7.791  -4.648  24.836  0.00  0.00    +0.240 C 
ATOM      5  O   UNL     1       8.352  -4.749  23.519  0.00  0.00    -0.351 OA
BRANCH   4   6
ATOM      6  C   UNL     1       8.649  -5.116  25.943  0.00  0.00    +0.242 C 
ATOM      7  O   UNL     1       8.334  -4.912  27.106  0.00  0.00    -0.273 OA
ATOM      8  N   UNL     1       9.777  -5.797  25.593  0.00  0.00    -0.327 N 
ATOM      9  H   UNL     1       9.993  -5.984  24.622  0.00  0.00    +0.145 HD
ATOM     10  H   UNL     1      10.341  -6.209  26.320  0.00  0.00    +0.145 HD
ENDBRANCH   4   6
ENDBRANCH   1   3
BRANCH   1  11
ATOM     11  C   UNL     1       9.079  -1.155  24.599  0.00  0.00    +0.081 C 
BRANCH  11  12
ATOM     12  C   UNL     1      10.308  -0.275  24.382  0.00  0.00    +0.034 C 
BRANCH  12  14
ATOM     13  C   UNL     1       9.758   2.163  24.262  0.00  0.00    -0.027 C 
ATOM     14  C   UNL     1       9.909   0.976  23.652  0.00  0.00    -0.030 C 
BRANCH  13  15
ATOM     15  C   UNL     1       9.270   3.408  23.582  0.00  0.00    +0.053 C 
BRANCH  15  18
ATOM     16  C   UNL     1      12.495   5.610  23.612  0.00  0.00    +0.035 C 
ATOM     17  C   UNL     1      11.546   4.472  23.422  0.00  0.00    -0.034 C 
ATOM     18  C   UNL     1      10.248   4.534  23.765  0.00  0.00    -0.027 C 
ENDBRANCH  15  18
ENDBRANCH  13  15
ENDBRANCH  12  14
ENDBRANCH  11  12
ENDBRANCH   1  11
TORSDOF 7
ENDMDL
MODEL 4
REMARK VINA RESULT:      -5.2      3.290      6.316
REMARK  Name = 
REMARK  8 active torsions:
REMARK  status: ('A' for Active; 'I' for Inactive)
REMARK    1  A    between atoms: C_1  and  C_2
REMARK    2  A    between atoms: C_3  and  C_4
REMARK    3  A    between atoms: C_4  and  C_5
REMARK    4  A    between atoms: C_6  and  C_7
REMARK    5  A    between atoms: C_7  and  C_8
REMARK    6  A    between atoms: C_8  and  C_9
REMARK    7  A    between atoms: C_9  and  C_11
REMARK    8  A    between atoms: C_14  and  C_16
REMARK                            x       y       z     vdW  Elec       q    Type
REMARK                         _______ _______ _______ _____ _____    ______ ____
ROOT
ATOM      1  C   UNL     1       9.997  -0.239  24.429  0.00  0.00    +0.165 C 
ATOM      2  O   UNL     1      10.862   0.485  24.911  0.00  0.00    -0.295 OA
ENDROOT
BRANCH   1   3
ATOM      3  C   UNL     1      10.185  -0.804  23.069  0.00  0.00    +0.223 C 
ATOM      4  C   UNL     1       9.785  -0.140  21.780  0.00  0.00    +0.240 C 
ATOM      5  O   UNL     1       8.944  -1.123  22.403  0.00  0.00    -0.351 OA
BRANCH   4   6
ATOM      6  C   UNL     1       9.231   1.227  21.699  0.00  0.00    +0.242 C 
ATOM      7  O   UNL     1       8.024   1.412  21.709  0.00  0.00    -0.273 OA
ATOM      8  N   UNL     1      10.134   2.247  21.638  0.00  0.00    -0.327 N 
ATOM      9  H   UNL     1      11.130   2.065  21.668  0.00  0.00    +0.145 HD
ATOM     10  H   UNL     1       9.797   3.196  21.672  0.00  0.00    +0.145 HD
ENDBRANCH   4   6
ENDBRANCH   1   3
BRANCH   1  11
ATOM     11  C   UNL     1       8.669  -0.513  25.091  0.00  0.00    +0.081 C 
BRANCH  11  12
ATOM     12  C   UNL     1       8.788  -1.495  26.254  0.00  0.00    +0.034 C 
BRANCH  12  14
ATOM     13  C   UNL     1       8.823  -3.687  25.047  0.00  0.00    -0.027 C 
ATOM     14  C   UNL     1       8.197  -2.818  25.857  0.00  0.00    -0.030 C 
BRANCH  13  15
ATOM     15  C   UNL     1       8.223  -4.972  24.557  0.00  0.00    +0.053 C 
BRANCH  15  18
ATOM     16  C   UNL     1       6.396  -5.551  21.155  0.00  0.00    +0.035 C 
ATOM     17  C   UNL     1       6.969  -5.754  22.519  0.00  0.00    -0.034 C 
ATOM     18  C   UNL     1       7.641  -4.798  23.183  0.00  0.00    -0.027 C 
ENDBRANCH  15  18
ENDBRANCH  13  15
ENDBRANCH  12  14
ENDBRANCH  11  12
ENDBRANCH   1  11
TORSDOF 7
ENDMDL
MODEL 5
REMARK VINA RESULT:      -5.2      1.958      2.785
REMARK  Name = 
REMARK  8 active torsions:
REMARK  status: ('A' for Active; 'I' for Inactive)
REMARK    1  A    between atoms: C_1  and  C_2
REMARK    2  A    between atoms: C_3  and  C_4
REMARK    3  A    between atoms: C_4  and  C_5
REMARK    4  A    between atoms: C_6  and  C_7
REMARK    5  A    between atoms: C_7  and  C_8
REMARK    6  A    between atoms: C_8  and  C_9
REMARK    7  A    between atoms: C_9  and  C_11
REMARK    8  A    between atoms: C_14  and  C_16
REMARK                            x       y       z     vdW  Elec       q    Type
REMARK                         _______ _______ _______ _____ _____    ______ ____
ROOT
ATOM      1  C   UNL     1       9.721  -1.725  23.097  0.00  0.00    +0.165 C 
ATOM      2  O   UNL     1      10.740  -2.279  22.699  0.00  0.00    -0.295 OA
ENDROOT
BRANCH   1   3
ATOM      3  C   UNL     1       9.314  -1.866  24.518  0.00  0.00    +0.223 C 
ATOM      4  C   UNL     1       8.684  -3.085  25.134  0.00  0.00    +0.240 C 
ATOM      5  O   UNL     1       7.885  -1.974  24.699  0.00  0.00    -0.351 OA
BRANCH   4   6
ATOM      6  C   UNL     1       8.475  -4.355  24.409  0.00  0.00    +0.242 C 
ATOM      7  O   UNL     1       9.320  -5.238  24.442  0.00  0.00    -0.273 OA
ATOM      8  N   UNL     1       7.296  -4.486  23.738  0.00  0.00    -0.327 N 
ATOM      9  H   UNL     1       6.599  -3.753  23.759  0.00  0.00    +0.145 HD
ATOM     10  H   UNL     1       7.079  -5.372  23.306  0.00  0.00    +0.145 HD
ENDBRANCH   4   6
ENDBRANCH   1   3
BRANCH   1  11
ATOM     11  C   UNL     1       8.763  -0.985  22.196  0.00  0.00    +0.081 C 
BRANCH  11  12
ATOM     12  C   UNL     1       9.454   0.103  21.377  0.00  0.00    +0.034 C 
BRANCH  12  14
ATOM     13  C   UNL     1       9.246   2.045  22.942  0.00  0.00    -0.027 C 
ATOM     14  C   UNL     1      10.013   1.149  22.300  0.00  0.00    -0.030 C 
BRANCH  13  15
ATOM     15  C   UNL     1       9.778   3.159  23.793  0.00  0.00    +0.053 C 
BRANCH  15  18
ATOM     16  C   UNL     1      13.072   5.110  23.019  0.00  0.00    +0.035 C 
ATOM     17  C   UNL     1      11.678   4.773  23.436  0.00  0.00    -0.034 C 
ATOM     18  C   UNL     1      11.174   3.529  23.377  0.00  0.00    -0.027 C 
ENDBRANCH  15  18
ENDBRANCH  13  15
ENDBRANCH  12  14
ENDBRANCH  11  12
ENDBRANCH   1  11
TORSDOF 7
ENDMDL
MODEL 6
REMARK VINA RESULT:      -5.1      2.239      3.275
REMARK  Name = 
REMARK  8 active torsions:
REMARK  status: ('A' for Active; 'I' for Inactive)
REMARK    1  A    between atoms: C_1  and  C_2
REMARK    2  A    between atoms: C_3  and  C_4
REMARK    3  A    between atoms: C_4  and  C_5
REMARK    4  A    between atoms: C_6  and  C_7
REMARK    5  A    between atoms: C_7  and  C_8
REMARK    6  A    between atoms: C_8  and  C_9
REMARK    7  A    between atoms: C_9  and  C_11
REMARK    8  A    between atoms: C_14  and  C_16
REMARK                            x       y       z     vdW  Elec       q    Type
REMARK                         _______ _______ _______ _____ _____    ______ ____
ROOT
ATOM      1  C   UNL     1       8.085  -4.423  24.316  0.00  0.00    +0.165 C 
ATOM      2  O   UNL     1       8.896  -5.318  24.104  0.00  0.00    -0.295 OA
ENDROOT
BRANCH   1   3
ATOM      3  C   UNL     1       6.712  -4.765  24.764  0.00  0.00    +0.223 C 
ATOM      4  C   UNL     1       5.560  -5.125  23.866  0.00  0.00    +0.240 C 
ATOM      5  O   UNL     1       5.720  -3.791  24.373  0.00  0.00    -0.351 OA
BRANCH   4   6
ATOM      6  C   UNL     1       5.678  -5.279  22.402  0.00  0.00    +0.242 C 
ATOM      7  O   UNL     1       5.504  -4.326  21.658  0.00  0.00    -0.273 OA
ATOM      8  N   UNL     1       6.012  -6.520  21.945  0.00  0.00    -0.327 N 
ATOM      9  H   UNL     1       6.188  -7.282  22.587  0.00  0.00    +0.145 HD
ATOM     10  H   UNL     1       6.190  -6.643  20.960  0.00  0.00    +0.145 HD
ENDBRANCH   4   6
ENDBRANCH   1   3
BRANCH   1  11
ATOM     11  C   UNL     1       8.354  -2.964  24.038  0.00  0.00    +0.081 C 
BRANCH  11  12
ATOM     12  C   UNL     1       9.846  -2.656  23.932  0.00  0.00    +0.034 C 
BRANCH  12  14
ATOM     13  C   UNL     1       9.158  -0.720  22.502  0.00  0.00    -0.027 C 
ATOM     14  C   UNL     1      10.075  -1.638  22.851  0.00  0.00    -0.030 C 
BRANCH  13  15
ATOM     15  C   UNL     1       9.317   0.247  21.367  0.00  0.00    +0.053 C 
BRANCH  15  18
ATOM     16  C   UNL     1      10.601   3.214  23.558  0.00  0.00    +0.035 C 
ATOM     17  C   UNL     1       9.955   1.942  23.116  0.00  0.00    -0.034 C 
ATOM     18  C   UNL     1       9.955   1.523  21.839  0.00  0.00    -0.027 C 
ENDBRANCH  15  18
ENDBRANCH  13  15
ENDBRANCH  12  14
ENDBRANCH  11  12
ENDBRANCH   1  11
TORSDOF 7
ENDMDL
MODEL 7
REMARK VINA RESULT:      -5.1      1.956      3.331
REMARK  Name = 
REMARK  8 active torsions:
REMARK  status: ('A' for Active; 'I' for Inactive)
REMARK    1  A    between atoms: C_1  and  C_2
REMARK    2  A    between atoms: C_3  and  C_4
REMARK    3  A    between atoms: C_4  and  C_5
REMARK    4  A    between atoms: C_6  and  C_7
REMARK    5  A    between atoms: C_7  and  C_8
REMARK    6  A    between atoms: C_8  and  C_9
REMARK    7  A    between atoms: C_9  and  C_11
REMARK    8  A    between atoms: C_14  and  C_16
REMARK                            x       y       z     vdW  Elec       q    Type
REMARK                         _______ _______ _______ _____ _____    ______ ____
ROOT
ATOM      1  C   UNL     1       6.416  -4.727  25.135  0.00  0.00    +0.165 C 
ATOM      2  O   UNL     1       5.886  -5.787  25.450  0.00  0.00    -0.295 OA
ENDROOT
BRANCH   1   3
ATOM      3  C   UNL     1       7.197  -3.968  26.143  0.00  0.00    +0.223 C 
ATOM      4  C   UNL     1       8.695  -3.980  26.284  0.00  0.00    +0.240 C 
ATOM      5  O   UNL     1       7.864  -4.811  27.108  0.00  0.00    -0.351 OA
BRANCH   4   6
ATOM      6  C   UNL     1       9.600  -4.688  25.356  0.00  0.00    +0.242 C 
ATOM      7  O   UNL     1      10.158  -4.088  24.450  0.00  0.00    -0.273 OA
ATOM      8  N   UNL     1       9.788  -6.019  25.586  0.00  0.00    -0.327 N 
ATOM      9  H   UNL     1       9.341  -6.482  26.367  0.00  0.00    +0.145 HD
ATOM     10  H   UNL     1      10.466  -6.517  25.030  0.00  0.00    +0.145 HD
ENDBRANCH   4   6
ENDBRANCH   1   3
BRANCH   1  11
ATOM     11  C   UNL     1       6.232  -4.064  23.792  0.00  0.00    +0.081 C 
BRANCH  11  12
ATOM     12  C   UNL     1       5.878  -2.584  23.915  0.00  0.00    +0.034 C 
BRANCH  12  14
ATOM     13  C   UNL     1       7.980  -2.263  22.595  0.00  0.00    -0.027 C 
ATOM     14  C   UNL     1       6.837  -1.767  23.096  0.00  0.00    -0.030 C 
BRANCH  13  15
ATOM     15  C   UNL     1       9.002  -1.452  21.855  0.00  0.00    +0.053 C 
BRANCH  15  18
ATOM     16  C   UNL     1      10.973   0.704  24.447  0.00  0.00    +0.035 C 
ATOM     17  C   UNL     1       9.919   0.205  23.514  0.00  0.00    -0.034 C 
ATOM     18  C   UNL     1      10.047  -0.924  22.797  0.00  0.00    -0.027 C 
ENDBRANCH  15  18
ENDBRANCH  13  15
ENDBRANCH  12  14
ENDBRANCH  11  12
ENDBRANCH   1  11
TORSDOF 7
ENDMDL
MODEL 8
REMARK VINA RESULT:      -5.0      3.191      6.566
REMARK  Name = 
REMARK  8 active torsions:
REMARK  status: ('A' for Active; 'I' for Inactive)
REMARK    1  A    between atoms: C_1  and  C_2
REMARK    2  A    between atoms: C_3  and  C_4
REMARK    3  A    between atoms: C_4  and  C_5
REMARK    4  A    between atoms: C_6  and  C_7
REMARK    5  A    between atoms: C_7  and  C_8
REMARK    6  A    between atoms: C_8  and  C_9
REMARK    7  A    between atoms: C_9  and  C_11
REMARK    8  A    between atoms: C_14  and  C_16
REMARK                            x       y       z     vdW  Elec       q    Type
REMARK                         _______ _______ _______ _____ _____    ______ ____
ROOT
ATOM      1  C   UNL     1       8.470   0.489  24.830  0.00  0.00    +0.165 C 
ATOM      2  O   UNL     1       7.319   0.092  24.682  0.00  0.00    -0.295 OA
ENDROOT
BRANCH   1   3
ATOM      3  C   UNL     1       8.752   1.947  24.816  0.00  0.00    +0.223 C 
ATOM      4  C   UNL     1       8.908   2.798  23.586  0.00  0.00    +0.240 C 
ATOM      5  O   UNL     1      10.051   2.275  24.278  0.00  0.00    -0.351 OA
BRANCH   4   6
ATOM      6  C   UNL     1       8.700   2.300  22.211  0.00  0.00    +0.242 C 
ATOM      7  O   UNL     1       7.576   2.227  21.737  0.00  0.00    -0.273 OA
ATOM      8  N   UNL     1       9.819   1.957  21.512  0.00  0.00    -0.327 N 
ATOM      9  H   UNL     1      10.741   2.063  21.918  0.00  0.00    +0.145 HD
ATOM     10  H   UNL     1       9.725   1.698  20.542  0.00  0.00    +0.145 HD
ENDBRANCH   4   6
ENDBRANCH   1   3
BRANCH   1  11
ATOM     11  C   UNL     1       9.668  -0.424  24.915  0.00  0.00    +0.081 C 
BRANCH  11  12
ATOM     12  C   UNL     1       9.986  -1.095  23.581  0.00  0.00    +0.034 C 
BRANCH  12  14
ATOM     13  C   UNL     1       8.660  -3.140  24.152  0.00  0.00    -0.027 C 
ATOM     14  C   UNL     1       9.797  -2.581  23.707  0.00  0.00    -0.030 C 
BRANCH  13  15
ATOM     15  C   UNL     1       8.473  -4.611  24.379  0.00  0.00    +0.053 C 
BRANCH  15  18
ATOM     16  C   UNL     1       6.250  -5.897  21.436  0.00  0.00    +0.035 C 
ATOM     17  C   UNL     1       7.399  -5.369  22.231  0.00  0.00    -0.034 C 
ATOM     18  C   UNL     1       7.333  -5.136  23.553  0.00  0.00    -0.027 C 
ENDBRANCH  15  18
ENDBRANCH  13  15
ENDBRANCH  12  14
ENDBRANCH  11  12
ENDBRANCH   1  11
TORSDOF 7
ENDMDL
MODEL 9
REMARK VINA RESULT:      -4.9      3.540      6.898
REMARK  Name = 
REMARK  8 active torsions:
REMARK  status: ('A' for Active; 'I' for Inactive)
REMARK    1  A    between atoms: C_1  and  C_2
REMARK    2  A    between atoms: C_3  and  C_4
REMARK    3  A    between atoms: C_4  and  C_5
REMARK    4  A    between atoms: C_6  and  C_7
REMARK    5  A    between atoms: C_7  and  C_8
REMARK    6  A    between atoms: C_8  and  C_9
REMARK    7  A    between atoms: C_9  and  C_11
REMARK    8  A    between atoms: C_14  and  C_16
REMARK                            x       y       z     vdW  Elec       q    Type
REMARK                         _______ _______ _______ _____ _____    ______ ____
ROOT
ATOM      1  C   UNL     1       9.605  -1.579  22.891  0.00  0.00    +0.165 C 
ATOM      2  O   UNL     1      10.574  -1.708  22.151  0.00  0.00    -0.295 OA
ENDROOT
BRANCH   1   3
ATOM      3  C   UNL     1       9.595  -0.498  23.908  0.00  0.00    +0.223 C 
ATOM      4  C   UNL     1       9.387   0.966  23.630  0.00  0.00    +0.240 C 
ATOM      5  O   UNL     1      10.705   0.418  23.784  0.00  0.00    -0.351 OA
BRANCH   4   6
ATOM      6  C   UNL     1       9.065   1.510  22.295  0.00  0.00    +0.242 C 
ATOM      7  O   UNL     1       7.920   1.476  21.867  0.00  0.00    -0.273 OA
ATOM      8  N   UNL     1      10.097   2.062  21.596  0.00  0.00    -0.327 N 
ATOM      9  H   UNL     1      11.028   2.109  21.991  0.00  0.00    +0.145 HD
ATOM     10  H   UNL     1       9.900   2.522  20.721  0.00  0.00    +0.145 HD
ENDBRANCH   4   6
ENDBRANCH   1   3
BRANCH   1  11
ATOM     11  C   UNL     1       8.439  -2.536  22.919  0.00  0.00    +0.081 C 
BRANCH  11  12
ATOM     12  C   UNL     1       8.624  -3.652  23.944  0.00  0.00    +0.034 C 
BRANCH  12  14
ATOM     13  C   UNL     1       7.288  -5.215  22.517  0.00  0.00    -0.027 C 
ATOM     14  C   UNL     1       7.583  -4.713  23.728  0.00  0.00    -0.030 C 
BRANCH  13  15
ATOM     15  C   UNL     1       6.191  -6.204  22.255  0.00  0.00    +0.053 C 
BRANCH  15  18
ATOM     16  C   UNL     1       3.424  -6.523  24.992  0.00  0.00    +0.035 C 
ATOM     17  C   UNL     1       4.593  -6.804  24.105  0.00  0.00    -0.034 C 
ATOM     18  C   UNL     1       5.018  -5.950  23.157  0.00  0.00    -0.027 C 
ENDBRANCH  15  18
ENDBRANCH  13  15
ENDBRANCH  12  14
ENDBRANCH  11  12
ENDBRANCH   1  11
TORSDOF 7
ENDMDL
