MODEL 1
REMARK VINA RESULT:      -4.6      0.000      0.000
REMARK  Name = 
REMARK  3 active torsions:
REMARK  status: ('A' for Active; 'I' for Inactive)
REMARK    1  A    between atoms: N_4  and  C_5
REMARK    2  A    between atoms: C_5  and  N_6
REMARK    3  A    between atoms: C_5  and  C_10
REMARK                            x       y       z     vdW  Elec       q    Type
REMARK                         _______ _______ _______ _____ _____    ______ ____
ROOT
ATOM      1  C   UNL     1       7.939  -4.837  23.587  0.00  0.00    +0.209 C 
ENDROOT
BRANCH   1   6
ATOM      2  N   UNL     1       9.037  -1.466  22.754  0.00  0.00    -0.313 N 
ATOM      3  H   UNL     1       8.390  -1.331  21.993  0.00  0.00    +0.146 HD
ATOM      4  H   UNL     1       9.870  -0.898  22.781  0.00  0.00    +0.146 HD
ATOM      5  C   UNL     1       9.159  -2.706  23.289  0.00  0.00    +0.299 C 
ATOM      6  N   UNL     1       8.027  -3.440  23.145  0.00  0.00    -0.276 N 
ATOM      7  H   UNL     1       7.603  -3.374  22.225  0.00  0.00    +0.152 HD
ATOM      8  O   UNL     1      10.141  -3.008  23.952  0.00  0.00    -0.253 OA
ENDBRANCH   1   6
BRANCH   1   9
ATOM      9  N   UNL     1       7.663  -4.849  25.028  0.00  0.00    -0.276 N 
ATOM     10  H   UNL     1       6.677  -4.771  25.256  0.00  0.00    +0.152 HD
ATOM     11  C   UNL     1       8.458  -5.231  26.042  0.00  0.00    +0.299 C 
ATOM     12  O   UNL     1       8.068  -5.276  27.203  0.00  0.00    -0.253 OA
ATOM     13  N   UNL     1       9.723  -5.566  25.727  0.00  0.00    -0.313 N 
ATOM     14  H   UNL     1      10.363  -5.654  26.500  0.00  0.00    +0.146 HD
ATOM     15  H   UNL     1      10.095  -5.210  24.856  0.00  0.00    +0.146 HD
ENDBRANCH   1   9
BRANCH   1  16
ATOM     16  C   UNL     1       6.798  -5.612  22.770  0.00  0.00    +0.080 C 
ATOM     17  O   UNL     1       7.100  -5.935  21.584  0.00  0.00    -0.546 OA
ATOM     18  O   UNL     1       5.765  -5.894  23.456  0.00  0.00    -0.546 OA
ENDBRANCH   1  16
TORSDOF 3
ENDMDL
MODEL 2
REMARK VINA RESULT:      -4.5      1.773      3.689
REMARK  Name = 
REMARK  3 active torsions:
REMARK  status: ('A' for Active; 'I' for Inactive)
REMARK    1  A    between atoms: N_4  and  C_5
REMARK    2  A    between atoms: C_5  and  N_6
REMARK    3  A    between atoms: C_5  and  C_10
REMARK                            x       y       z     vdW  Elec       q    Type
REMARK                         _______ _______ _______ _____ _____    ______ ____
ROOT
ATOM      1  C   UNL     1       7.317  -4.171  23.198  0.00  0.00    +0.209 C 
ENDROOT
BRANCH   1   6
ATOM      2  N   UNL     1       9.671  -5.826  25.430  0.00  0.00    -0.313 N 
ATOM      3  H   UNL     1       9.416  -6.766  25.171  0.00  0.00    +0.146 HD
ATOM      4  H   UNL     1      10.123  -5.679  26.319  0.00  0.00    +0.146 HD
ATOM      5  C   UNL     1       8.899  -4.801  24.992  0.00  0.00    +0.299 C 
ATOM      6  N   UNL     1       8.260  -5.099  23.832  0.00  0.00    -0.276 N 
ATOM      7  H   UNL     1       7.851  -6.027  23.810  0.00  0.00    +0.152 HD
ATOM      8  O   UNL     1       8.943  -3.707  25.536  0.00  0.00    -0.253 OA
ENDBRANCH   1   6
BRANCH   1   9
ATOM      9  N   UNL     1       8.033  -2.930  22.879  0.00  0.00    -0.276 N 
ATOM     10  H   UNL     1       8.962  -3.081  22.499  0.00  0.00    +0.152 HD
ATOM     11  C   UNL     1       7.553  -1.683  22.741  0.00  0.00    +0.299 C 
ATOM     12  O   UNL     1       8.254  -0.744  22.381  0.00  0.00    -0.253 OA
ATOM     13  N   UNL     1       6.249  -1.502  23.021  0.00  0.00    -0.313 N 
ATOM     14  H   UNL     1       5.945  -0.546  23.112  0.00  0.00    +0.146 HD
ATOM     15  H   UNL     1       5.801  -2.188  23.614  0.00  0.00    +0.146 HD
ENDBRANCH   1   9
BRANCH   1  16
ATOM     16  C   UNL     1       6.682  -4.830  21.882  0.00  0.00    +0.080 C 
ATOM     17  O   UNL     1       7.226  -5.904  21.492  0.00  0.00    -0.546 OA
ATOM     18  O   UNL     1       5.640  -4.240  21.452  0.00  0.00    -0.546 OA
ENDBRANCH   1  16
TORSDOF 3
ENDMDL
MODEL 3
REMARK VINA RESULT:      -4.4      4.292      6.295
REMARK  Name = 
REMARK  3 active torsions:
REMARK  status: ('A' for Active; 'I' for Inactive)
REMARK    1  A    between atoms: N_4  and  C_5
REMARK    2  A    between atoms: C_5  and  N_6
REMARK    3  A    between atoms: C_5  and  C_10
REMARK                            x       y       z     vdW  Elec       q    Type
REMARK                         _______ _______ _______ _____ _____    ______ ____
ROOT
ATOM      1  C   UNL     1       9.167  -0.192  23.031  0.00  0.00    +0.209 C 
ENDROOT
BRANCH   1   6
ATOM      2  N   UNL     1       5.758   0.289  24.221  0.00  0.00    -0.313 N 
ATOM      3  H   UNL     1       5.663  -0.625  24.635  0.00  0.00    +0.146 HD
ATOM      4  H   UNL     1       4.921   0.794  23.976  0.00  0.00    +0.146 HD
ATOM      5  C   UNL     1       6.839   0.537  23.440  0.00  0.00    +0.299 C 
ATOM      6  N   UNL     1       7.903  -0.235  23.777  0.00  0.00    -0.276 N 
ATOM      7  H   UNL     1       7.673  -1.207  23.950  0.00  0.00    +0.152 HD
ATOM      8  O   UNL     1       6.840   1.472  22.651  0.00  0.00    -0.253 OA
ENDBRANCH   1   6
BRANCH   1   9
ATOM      9  N   UNL     1       9.928   0.981  23.478  0.00  0.00    -0.276 N 
ATOM     10  H   UNL     1      10.465   0.821  24.325  0.00  0.00    +0.152 HD
ATOM     11  C   UNL     1      10.243   2.098  22.801  0.00  0.00    +0.299 C 
ATOM     12  O   UNL     1      10.967   2.969  23.269  0.00  0.00    -0.253 OA
ATOM     13  N   UNL     1       9.720   2.226  21.568  0.00  0.00    -0.313 N 
ATOM     14  H   UNL     1       9.791   3.140  21.150  0.00  0.00    +0.146 HD
ATOM     15  H   UNL     1       8.895   1.681  21.354  0.00  0.00    +0.146 HD
ENDBRANCH   1   9
BRANCH   1  16
ATOM     16  C   UNL     1       9.997  -1.545  23.259  0.00  0.00    +0.080 C 
ATOM     17  O   UNL     1       9.717  -2.186  24.314  0.00  0.00    -0.546 OA
ATOM     18  O   UNL     1      10.764  -1.856  22.294  0.00  0.00    -0.546 OA
ENDBRANCH   1  16
TORSDOF 3
ENDMDL
MODEL 4
REMARK VINA RESULT:      -4.4      2.060      4.464
REMARK  Name = 
REMARK  3 active torsions:
REMARK  status: ('A' for Active; 'I' for Inactive)
REMARK    1  A    between atoms: N_4  and  C_5
REMARK    2  A    between atoms: C_5  and  N_6
REMARK    3  A    between atoms: C_5  and  C_10
REMARK                            x       y       z     vdW  Elec       q    Type
REMARK                         _______ _______ _______ _____ _____    ______ ____
ROOT
ATOM      1  C   UNL     1       8.839  -3.052  23.343  0.00  0.00    +0.209 C 
ENDROOT
BRANCH   1   6
ATOM      2  N   UNL     1       9.171  -4.915  26.455  0.00  0.00    -0.313 N 
ATOM      3  H   UNL     1       9.385  -4.117  27.032  0.00  0.00    +0.146 HD
ATOM      4  H   UNL     1       9.446  -5.829  26.781  0.00  0.00    +0.146 HD
ATOM      5  C   UNL     1       9.154  -4.756  25.109  0.00  0.00    +0.299 C 
ATOM      6  N   UNL     1       8.854  -3.483  24.746  0.00  0.00    -0.276 N 
ATOM      7  H   UNL     1       9.334  -2.773  25.289  0.00  0.00    +0.152 HD
ATOM      8  O   UNL     1       9.245  -5.721  24.364  0.00  0.00    -0.253 OA
ENDBRANCH   1   6
BRANCH   1   9
ATOM      9  N   UNL     1       7.443  -2.884  22.926  0.00  0.00    -0.276 N 
ATOM     10  H   UNL     1       7.121  -1.922  22.953  0.00  0.00    +0.152 HD
ATOM     11  C   UNL     1       6.646  -3.736  22.258  0.00  0.00    +0.299 C 
ATOM     12  O   UNL     1       5.518  -3.431  21.891  0.00  0.00    -0.253 OA
ATOM     13  N   UNL     1       7.147  -4.960  22.006  0.00  0.00    -0.313 N 
ATOM     14  H   UNL     1       6.485  -5.651  21.690  0.00  0.00    +0.146 HD
ATOM     15  H   UNL     1       7.909  -5.280  22.588  0.00  0.00    +0.146 HD
ENDBRANCH   1   9
BRANCH   1  16
ATOM     16  C   UNL     1       9.667  -1.691  23.167  0.00  0.00    +0.080 C 
ATOM     17  O   UNL     1       9.367  -0.762  23.973  0.00  0.00    -0.546 OA
ATOM     18  O   UNL     1      10.595  -1.752  22.301  0.00  0.00    -0.546 OA
ENDBRANCH   1  16
TORSDOF 3
ENDMDL
MODEL 5
REMARK VINA RESULT:      -4.3      1.956      3.702
REMARK  Name = 
REMARK  3 active torsions:
REMARK  status: ('A' for Active; 'I' for Inactive)
REMARK    1  A    between atoms: N_4  and  C_5
REMARK    2  A    between atoms: C_5  and  N_6
REMARK    3  A    between atoms: C_5  and  C_10
REMARK                            x       y       z     vdW  Elec       q    Type
REMARK                         _______ _______ _______ _____ _____    ______ ____
ROOT
ATOM      1  C   UNL     1       7.762  -4.506  24.614  0.00  0.00    +0.209 C 
ENDROOT
BRANCH   1   6
ATOM      2  N   UNL     1       6.053  -6.384  22.003  0.00  0.00    -0.313 N 
ATOM      3  H   UNL     1       6.667  -6.103  21.254  0.00  0.00    +0.146 HD
ATOM      4  H   UNL     1       5.128  -6.710  21.767  0.00  0.00    +0.146 HD
ATOM      5  C   UNL     1       6.164  -5.759  23.201  0.00  0.00    +0.299 C 
ATOM      6  N   UNL     1       7.415  -5.278  23.414  0.00  0.00    -0.276 N 
ATOM      7  H   UNL     1       7.823  -4.811  22.611  0.00  0.00    +0.152 HD
ATOM      8  O   UNL     1       5.253  -5.801  24.016  0.00  0.00    -0.253 OA
ENDBRANCH   1   6
BRANCH   1   9
ATOM      9  N   UNL     1       7.687  -5.400  25.775  0.00  0.00    -0.276 N 
ATOM     10  H   UNL     1       8.260  -6.233  25.687  0.00  0.00    +0.152 HD
ATOM     11  C   UNL     1       7.226  -5.149  27.012  0.00  0.00    +0.299 C 
ATOM     12  O   UNL     1       7.306  -5.966  27.922  0.00  0.00    -0.253 OA
ATOM     13  N   UNL     1       6.662  -3.944  27.215  0.00  0.00    -0.313 N 
ATOM     14  H   UNL     1       6.143  -3.838  28.072  0.00  0.00    +0.146 HD
ATOM     15  H   UNL     1       6.320  -3.448  26.402  0.00  0.00    +0.146 HD
ENDBRANCH   1   9
BRANCH   1  16
ATOM     16  C   UNL     1       9.225  -3.867  24.465  0.00  0.00    +0.080 C 
ATOM     17  O   UNL     1       9.256  -2.640  24.157  0.00  0.00    -0.546 OA
ATOM     18  O   UNL     1      10.173  -4.655  24.775  0.00  0.00    -0.546 OA
ENDBRANCH   1  16
TORSDOF 3
ENDMDL
MODEL 6
REMARK VINA RESULT:      -4.3      2.567      4.298
REMARK  Name = 
REMARK  3 active torsions:
REMARK  status: ('A' for Active; 'I' for Inactive)
REMARK    1  A    between atoms: N_4  and  C_5
REMARK    2  A    between atoms: C_5  and  N_6
REMARK    3  A    between atoms: C_5  and  C_10
REMARK                            x       y       z     vdW  Elec       q    Type
REMARK                         _______ _______ _______ _____ _____    ______ ____
ROOT
ATOM      1  C   UNL     1       7.544  -3.901  23.541  0.00  0.00    +0.209 C 
ENDROOT
BRANCH   1   6
ATOM      2  N   UNL     1       5.788  -6.253  21.385  0.00  0.00    -0.313 N 
ATOM      3  H   UNL     1       6.377  -7.044  21.592  0.00  0.00    +0.146 HD
ATOM      4  H   UNL     1       5.255  -6.264  20.528  0.00  0.00    +0.146 HD
ATOM      5  C   UNL     1       6.173  -5.027  21.817  0.00  0.00    +0.299 C 
ATOM      6  N   UNL     1       6.952  -5.096  22.926  0.00  0.00    -0.276 N 
ATOM      7  H   UNL     1       7.665  -5.817  22.890  0.00  0.00    +0.152 HD
ATOM      8  O   UNL     1       5.707  -4.013  21.318  0.00  0.00    -0.253 OA
ENDBRANCH   1   6
BRANCH   1   9
ATOM      9  N   UNL     1       6.502  -3.213  24.312  0.00  0.00    -0.276 N 
ATOM     10  H   UNL     1       6.371  -3.587  25.246  0.00  0.00    +0.152 HD
ATOM     11  C   UNL     1       5.924  -2.022  24.084  0.00  0.00    +0.299 C 
ATOM     12  O   UNL     1       5.124  -1.519  24.865  0.00  0.00    -0.253 OA
ATOM     13  N   UNL     1       6.264  -1.392  22.945  0.00  0.00    -0.313 N 
ATOM     14  H   UNL     1       5.686  -0.609  22.683  0.00  0.00    +0.146 HD
ATOM     15  H   UNL     1       6.645  -1.956  22.197  0.00  0.00    +0.146 HD
ENDBRANCH   1   9
BRANCH   1  16
ATOM     16  C   UNL     1       8.784  -4.308  24.473  0.00  0.00    +0.080 C 
ATOM     17  O   UNL     1       8.598  -5.312  25.221  0.00  0.00    -0.546 OA
ATOM     18  O   UNL     1       9.838  -3.627  24.266  0.00  0.00    -0.546 OA
ENDBRANCH   1  16
TORSDOF 3
ENDMDL
MODEL 7
REMARK VINA RESULT:      -4.3      2.442      4.411
REMARK  Name = 
REMARK  3 active torsions:
REMARK  status: ('A' for Active; 'I' for Inactive)
REMARK    1  A    between atoms: N_4  and  C_5
REMARK    2  A    between atoms: C_5  and  N_6
REMARK    3  A    between atoms: C_5  and  C_10
REMARK                            x       y       z     vdW  Elec       q    Type
REMARK                         _______ _______ _______ _____ _____    ______ ____
ROOT
ATOM      1  C   UNL     1       8.876  -2.325  24.399  0.00  0.00    +0.209 C 
ENDROOT
BRANCH   1   6
ATOM      2  N   UNL     1       9.959  -5.624  25.498  0.00  0.00    -0.313 N 
ATOM      3  H   UNL     1      10.146  -5.985  24.576  0.00  0.00    +0.146 HD
ATOM      4  H   UNL     1       9.791  -6.281  26.245  0.00  0.00    +0.146 HD
ATOM      5  C   UNL     1       9.315  -4.436  25.611  0.00  0.00    +0.299 C 
ATOM      6  N   UNL     1       9.523  -3.636  24.535  0.00  0.00    -0.276 N 
ATOM      7  H   UNL     1       9.455  -4.114  23.642  0.00  0.00    +0.152 HD
ATOM      8  O   UNL     1       8.764  -4.120  26.656  0.00  0.00    -0.253 OA
ENDBRANCH   1   6
BRANCH   1   9
ATOM      9  N   UNL     1       9.924  -1.307  24.256  0.00  0.00    -0.276 N 
ATOM     10  H   UNL     1      10.431  -1.363  23.379  0.00  0.00    +0.152 HD
ATOM     11  C   UNL     1      10.107  -0.173  24.953  0.00  0.00    +0.299 C 
ATOM     12  O   UNL     1      10.977   0.641  24.668  0.00  0.00    -0.253 OA
ATOM     13  N   UNL     1       9.282   0.036  25.996  0.00  0.00    -0.313 N 
ATOM     14  H   UNL     1       9.548   0.773  26.629  0.00  0.00    +0.146 HD
ATOM     15  H   UNL     1       8.822  -0.772  26.394  0.00  0.00    +0.146 HD
ENDBRANCH   1   9
BRANCH   1  16
ATOM     16  C   UNL     1       7.883  -2.318  23.140  0.00  0.00    +0.080 C 
ATOM     17  O   UNL     1       7.348  -1.203  22.873  0.00  0.00    -0.546 OA
ATOM     18  O   UNL     1       7.839  -3.419  22.504  0.00  0.00    -0.546 OA
ENDBRANCH   1  16
TORSDOF 3
ENDMDL
MODEL 8
REMARK VINA RESULT:      -4.2      2.628      4.308
REMARK  Name = 
REMARK  3 active torsions:
REMARK  status: ('A' for Active; 'I' for Inactive)
REMARK    1  A    between atoms: N_4  and  C_5
REMARK    2  A    between atoms: C_5  and  N_6
REMARK    3  A    between atoms: C_5  and  C_10
REMARK                            x       y       z     vdW  Elec       q    Type
REMARK                         _______ _______ _______ _____ _____    ______ ____
ROOT
ATOM      1  C   UNL     1       8.762  -2.960  25.079  0.00  0.00    +0.209 C 
ENDROOT
BRANCH   1   6
ATOM      2  N   UNL     1       8.440  -0.213  27.449  0.00  0.00    -0.313 N 
ATOM      3  H   UNL     1       8.366  -0.792  28.271  0.00  0.00    +0.146 HD
ATOM      4  H   UNL     1       8.082   0.729  27.494  0.00  0.00    +0.146 HD
ATOM      5  C   UNL     1       8.377  -0.804  26.230  0.00  0.00    +0.299 C 
ATOM      6  N   UNL     1       8.799  -2.094  26.264  0.00  0.00    -0.276 N 
ATOM      7  H   UNL     1       8.449  -2.626  27.053  0.00  0.00    +0.152 HD
ATOM      8  O   UNL     1       8.116  -0.151  25.231  0.00  0.00    -0.253 OA
ENDBRANCH   1   6
BRANCH   1   9
ATOM      9  N   UNL     1       9.787  -2.497  24.136  0.00  0.00    -0.276 N 
ATOM     10  H   UNL     1      10.725  -2.809  24.367  0.00  0.00    +0.152 HD
ATOM     11  C   UNL     1       9.638  -1.991  22.900  0.00  0.00    +0.299 C 
ATOM     12  O   UNL     1      10.592  -1.726  22.178  0.00  0.00    -0.253 OA
ATOM     13  N   UNL     1       8.377  -1.782  22.479  0.00  0.00    -0.313 N 
ATOM     14  H   UNL     1       8.275  -1.223  21.647  0.00  0.00    +0.146 HD
ATOM     15  H   UNL     1       7.659  -1.694  23.187  0.00  0.00    +0.146 HD
ENDBRANCH   1   9
BRANCH   1  16
ATOM     16  C   UNL     1       9.003  -4.489  25.496  0.00  0.00    +0.080 C 
ATOM     17  O   UNL     1       9.405  -5.250  24.568  0.00  0.00    -0.546 OA
ATOM     18  O   UNL     1       8.856  -4.721  26.737  0.00  0.00    -0.546 OA
ENDBRANCH   1  16
TORSDOF 3
ENDMDL
MODEL 9
REMARK VINA RESULT:      -4.2      1.512      3.475
REMARK  Name = 
REMARK  3 active torsions:
REMARK  status: ('A' for Active; 'I' for Inactive)
REMARK    1  A    between atoms: N_4  and  C_5
REMARK    2  A    between atoms: C_5  and  N_6
REMARK    3  A    between atoms: C_5  and  C_10
REMARK                            x       y       z     vdW  Elec       q    Type
REMARK                         _______ _______ _______ _____ _____    ______ ____
ROOT
ATOM      1  C   UNL     1       8.045  -4.306  24.591  0.00  0.00    +0.209 C 
ENDROOT
BRANCH   1   6
ATOM      2  N   UNL     1      10.256  -1.793  23.154  0.00  0.00    -0.313 N 
ATOM      3  H   UNL     1      10.851  -1.703  23.962  0.00  0.00    +0.146 HD
ATOM      4  H   UNL     1      10.231  -1.034  22.490  0.00  0.00    +0.146 HD
ATOM      5  C   UNL     1       9.106  -2.504  23.270  0.00  0.00    +0.299 C 
ATOM      6  N   UNL     1       9.187  -3.454  24.236  0.00  0.00    -0.276 N 
ATOM      7  H   UNL     1       9.622  -3.137  25.095  0.00  0.00    +0.152 HD
ATOM      8  O   UNL     1       8.200  -2.363  22.462  0.00  0.00    -0.253 OA
ENDBRANCH   1   6
BRANCH   1   9
ATOM      9  N   UNL     1       7.898  -5.335  23.555  0.00  0.00    -0.276 N 
ATOM     10  H   UNL     1       8.503  -6.139  23.689  0.00  0.00    +0.152 HD
ATOM     11  C   UNL     1       6.911  -5.503  22.659  0.00  0.00    +0.299 C 
ATOM     12  O   UNL     1       6.866  -6.467  21.903  0.00  0.00    -0.253 OA
ATOM     13  N   UNL     1       5.958  -4.554  22.622  0.00  0.00    -0.313 N 
ATOM     14  H   UNL     1       5.342  -4.576  21.826  0.00  0.00    +0.146 HD
ATOM     15  H   UNL     1       6.192  -3.645  23.001  0.00  0.00    +0.146 HD
ENDBRANCH   1   9
BRANCH   1  16
ATOM     16  C   UNL     1       8.265  -4.962  26.037  0.00  0.00    +0.080 C 
ATOM     17  O   UNL     1       7.423  -5.847  26.368  0.00  0.00    -0.546 OA
ATOM     18  O   UNL     1       9.325  -4.581  26.628  0.00  0.00    -0.546 OA
ENDBRANCH   1  16
TORSDOF 3
ENDMDL
