MODEL 1
REMARK VINA RESULT:      -3.9      0.000      0.000
REMARK  Name = 
REMARK  6 active torsions:
REMARK  status: ('A' for Active; 'I' for Inactive)
REMARK    1  A    between atoms: C_1  and  C_2
REMARK    2  A    between atoms: N_4  and  CA_5
REMARK    3  A    between atoms: CA_5  and  CB_7
REMARK    4  A    between atoms: CA_5  and  C_9
REMARK    5  A    between atoms: CB_7  and  SG_8
REMARK    6  A    between atoms: C_9  and  O_10
REMARK                            x       y       z     vdW  Elec       q    Type
REMARK                         _______ _______ _______ _____ _____    ______ ____
ROOT
ATOM      1  CA  CYS A   1       7.774  -4.766  24.722  0.00  0.00    +0.191 C 
ENDROOT
BRANCH   1   4
ATOM      2  C   UNK A   0       6.489  -5.652  21.245  0.00  0.00    +0.109 C 
ATOM      3  C   UNK A   0       7.071  -4.807  22.343  0.00  0.00    +0.211 C 
ATOM      4  N   CYS A   1       7.320  -5.495  23.516  0.00  0.00    -0.302 N 
ATOM      5  H   CYS A   1       6.771  -6.335  23.677  0.00  0.00    +0.150 HD
ATOM      6  O   UNK A   0       7.396  -3.638  22.183  0.00  0.00    -0.276 OA
ENDBRANCH   1   4
BRANCH   1   7
ATOM      7  C   CYS A   1       9.296  -4.852  24.891  0.00  0.00    +0.326 C 
ATOM      8  OXT CYS A   1      10.078  -4.010  24.479  0.00  0.00    -0.249 OA
BRANCH   7   9
ATOM      9  O   CYS A   1       9.711  -5.934  25.595  0.00  0.00    -0.479 OA
ATOM     10  H   CYS A   1       9.997  -5.654  26.487  0.00  0.00    +0.295 HD
ENDBRANCH   7   9
ENDBRANCH   1   7
BRANCH   1  11
ATOM     11  CB  CYS A   1       7.138  -5.319  26.004  0.00  0.00    +0.099 C 
BRANCH  11  12
ATOM     12  SG  CYS A   1       5.446  -5.938  25.704  0.00  0.00    -0.176 S 
ATOM     13  HG  CYS A   1       5.535  -7.024  26.491  0.00  0.00    +0.102 HD
ENDBRANCH  11  12
ENDBRANCH   1  11
TORSDOF 5
ENDMDL
MODEL 2
REMARK VINA RESULT:      -3.9      8.063      8.866
REMARK  Name = 
REMARK  6 active torsions:
REMARK  status: ('A' for Active; 'I' for Inactive)
REMARK    1  A    between atoms: C_1  and  C_2
REMARK    2  A    between atoms: N_4  and  CA_5
REMARK    3  A    between atoms: CA_5  and  CB_7
REMARK    4  A    between atoms: CA_5  and  C_9
REMARK    5  A    between atoms: CB_7  and  SG_8
REMARK    6  A    between atoms: C_9  and  O_10
REMARK                            x       y       z     vdW  Elec       q    Type
REMARK                         _______ _______ _______ _____ _____    ______ ____
ROOT
ATOM      1  CA  CYS A   1      10.510   2.183  23.237  0.00  0.00    +0.191 C 
ENDROOT
BRANCH   1   4
ATOM      2  C   UNK A   0      10.572   5.963  23.722  0.00  0.00    +0.109 C 
ATOM      3  C   UNK A   0      11.107   4.577  23.496  0.00  0.00    +0.211 C 
ATOM      4  N   CYS A   1      10.132   3.610  23.341  0.00  0.00    -0.302 N 
ATOM      5  H   CYS A   1       9.225   3.807  23.758  0.00  0.00    +0.150 HD
ATOM      6  O   UNK A   0      12.299   4.339  23.354  0.00  0.00    -0.276 OA
ENDBRANCH   1   4
BRANCH   1   7
ATOM      7  C   CYS A   1       9.833   1.507  22.038  0.00  0.00    +0.326 C 
ATOM      8  OXT CYS A   1       9.989   0.335  21.738  0.00  0.00    -0.249 OA
BRANCH   7   9
ATOM      9  O   CYS A   1       8.992   2.319  21.352  0.00  0.00    -0.479 OA
ATOM     10  H   CYS A   1       9.010   2.083  20.404  0.00  0.00    +0.295 HD
ENDBRANCH   7   9
ENDBRANCH   1   7
BRANCH   1  11
ATOM     11  CB  CYS A   1      10.119   1.389  24.492  0.00  0.00    +0.099 C 
BRANCH  11  12
ATOM     12  SG  CYS A   1       8.368   1.654  24.938  0.00  0.00    -0.176 S 
ATOM     13  HG  CYS A   1       8.465   2.972  25.178  0.00  0.00    +0.102 HD
ENDBRANCH  11  12
ENDBRANCH   1  11
TORSDOF 5
ENDMDL
MODEL 3
REMARK VINA RESULT:      -3.8      2.047      3.543
REMARK  Name = 
REMARK  6 active torsions:
REMARK  status: ('A' for Active; 'I' for Inactive)
REMARK    1  A    between atoms: C_1  and  C_2
REMARK    2  A    between atoms: N_4  and  CA_5
REMARK    3  A    between atoms: CA_5  and  CB_7
REMARK    4  A    between atoms: CA_5  and  C_9
REMARK    5  A    between atoms: CB_7  and  SG_8
REMARK    6  A    between atoms: C_9  and  O_10
REMARK                            x       y       z     vdW  Elec       q    Type
REMARK                         _______ _______ _______ _____ _____    ______ ____
ROOT
ATOM      1  CA  CYS A   1       7.922  -5.005  24.614  0.00  0.00    +0.191 C 
ENDROOT
BRANCH   1   4
ATOM      2  C   UNK A   0       5.821  -4.309  27.716  0.00  0.00    +0.109 C 
ATOM      3  C   UNK A   0       6.795  -5.024  26.823  0.00  0.00    +0.211 C 
ATOM      4  N   CYS A   1       7.078  -4.361  25.645  0.00  0.00    -0.302 N 
ATOM      5  H   CYS A   1       6.374  -3.709  25.308  0.00  0.00    +0.150 HD
ATOM      6  O   UNK A   0       7.371  -6.052  27.155  0.00  0.00    -0.276 OA
ENDBRANCH   1   4
BRANCH   1   7
ATOM      7  C   CYS A   1       9.412  -4.724  24.849  0.00  0.00    +0.326 C 
ATOM      8  OXT CYS A   1      10.007  -3.763  24.389  0.00  0.00    -0.249 OA
BRANCH   7   9
ATOM      9  O   CYS A   1      10.017  -5.619  25.668  0.00  0.00    -0.479 OA
ATOM     10  H   CYS A   1      10.903  -5.837  25.317  0.00  0.00    +0.295 HD
ENDBRANCH   7   9
ENDBRANCH   1   7
BRANCH   1  11
ATOM     11  CB  CYS A   1       7.581  -4.515  23.200  0.00  0.00    +0.099 C 
BRANCH  11  12
ATOM     12  SG  CYS A   1       7.096  -5.895  22.107  0.00  0.00    -0.176 S 
ATOM     13  HG  CYS A   1       7.496  -5.330  20.955  0.00  0.00    +0.102 HD
ENDBRANCH  11  12
ENDBRANCH   1  11
TORSDOF 5
ENDMDL
MODEL 4
REMARK VINA RESULT:      -3.8      2.361      2.615
REMARK  Name = 
REMARK  6 active torsions:
REMARK  status: ('A' for Active; 'I' for Inactive)
REMARK    1  A    between atoms: C_1  and  C_2
REMARK    2  A    between atoms: N_4  and  CA_5
REMARK    3  A    between atoms: CA_5  and  CB_7
REMARK    4  A    between atoms: CA_5  and  C_9
REMARK    5  A    between atoms: CB_7  and  SG_8
REMARK    6  A    between atoms: C_9  and  O_10
REMARK                            x       y       z     vdW  Elec       q    Type
REMARK                         _______ _______ _______ _____ _____    ______ ____
ROOT
ATOM      1  CA  CYS A   1       8.313  -4.551  24.253  0.00  0.00    +0.191 C 
ENDROOT
BRANCH   1   4
ATOM      2  C   UNK A   0       5.130  -5.742  22.527  0.00  0.00    +0.109 C 
ATOM      3  C   UNK A   0       6.603  -5.571  22.773  0.00  0.00    +0.211 C 
ATOM      4  N   CYS A   1       6.909  -4.903  23.943  0.00  0.00    -0.302 N 
ATOM      5  H   CYS A   1       6.196  -4.277  24.310  0.00  0.00    +0.150 HD
ATOM      6  O   UNK A   0       7.460  -6.072  22.057  0.00  0.00    -0.276 OA
ENDBRANCH   1   4
BRANCH   1   7
ATOM      7  C   CYS A   1       8.854  -5.377  25.426  0.00  0.00    +0.326 C 
ATOM      8  OXT CYS A   1       8.172  -5.763  26.362  0.00  0.00    -0.249 OA
BRANCH   7   9
ATOM      9  O   CYS A   1      10.167  -5.695  25.315  0.00  0.00    -0.479 OA
ATOM     10  H   CYS A   1      10.350  -6.025  24.414  0.00  0.00    +0.295 HD
ENDBRANCH   7   9
ENDBRANCH   1   7
BRANCH   1  11
ATOM     11  CB  CYS A   1       8.469  -3.070  24.623  0.00  0.00    +0.099 C 
BRANCH  11  12
ATOM     12  SG  CYS A   1       9.823  -2.280  23.688  0.00  0.00    -0.176 S 
ATOM     13  HG  CYS A   1       9.371  -2.594  22.462  0.00  0.00    +0.102 HD
ENDBRANCH  11  12
ENDBRANCH   1  11
TORSDOF 5
ENDMDL
MODEL 5
REMARK VINA RESULT:      -3.8      5.472      6.726
REMARK  Name = 
REMARK  6 active torsions:
REMARK  status: ('A' for Active; 'I' for Inactive)
REMARK    1  A    between atoms: C_1  and  C_2
REMARK    2  A    between atoms: N_4  and  CA_5
REMARK    3  A    between atoms: CA_5  and  CB_7
REMARK    4  A    between atoms: CA_5  and  C_9
REMARK    5  A    between atoms: CB_7  and  SG_8
REMARK    6  A    between atoms: C_9  and  O_10
REMARK                            x       y       z     vdW  Elec       q    Type
REMARK                         _______ _______ _______ _____ _____    ______ ____
ROOT
ATOM      1  CA  CYS A   1       9.724   0.099  22.498  0.00  0.00    +0.191 C 
ENDROOT
BRANCH   1   4
ATOM      2  C   UNK A   0       9.012  -0.296  26.221  0.00  0.00    +0.109 C 
ATOM      3  C   UNK A   0       9.793   0.016  24.976  0.00  0.00    +0.211 C 
ATOM      4  N   CYS A   1       9.057  -0.059  23.810  0.00  0.00    -0.302 N 
ATOM      5  H   CYS A   1       8.234  -0.657  23.828  0.00  0.00    +0.150 HD
ATOM      6  O   UNK A   0      10.953   0.406  24.998  0.00  0.00    -0.276 OA
ENDBRANCH   1   4
BRANCH   1   7
ATOM      7  C   CYS A   1       9.282   1.388  21.793  0.00  0.00    +0.326 C 
ATOM      8  OXT CYS A   1       8.138   1.612  21.434  0.00  0.00    -0.249 OA
BRANCH   7   9
ATOM      9  O   CYS A   1      10.274   2.299  21.641  0.00  0.00    -0.479 OA
ATOM     10  H   CYS A   1      10.653   2.519  22.515  0.00  0.00    +0.295 HD
ENDBRANCH   7   9
ENDBRANCH   1   7
BRANCH   1  11
ATOM     11  CB  CYS A   1       9.418  -1.069  21.550  0.00  0.00    +0.099 C 
BRANCH  11  12
ATOM     12  SG  CYS A   1       8.248  -2.255  22.298  0.00  0.00    -0.176 S 
ATOM     13  HG  CYS A   1       8.806  -2.275  23.521  0.00  0.00    +0.102 HD
ENDBRANCH  11  12
ENDBRANCH   1  11
TORSDOF 5
ENDMDL
MODEL 6
REMARK VINA RESULT:      -3.7      5.490      6.280
REMARK  Name = 
REMARK  6 active torsions:
REMARK  status: ('A' for Active; 'I' for Inactive)
REMARK    1  A    between atoms: C_1  and  C_2
REMARK    2  A    between atoms: N_4  and  CA_5
REMARK    3  A    between atoms: CA_5  and  CB_7
REMARK    4  A    between atoms: CA_5  and  C_9
REMARK    5  A    between atoms: CB_7  and  SG_8
REMARK    6  A    between atoms: C_9  and  O_10
REMARK                            x       y       z     vdW  Elec       q    Type
REMARK                         _______ _______ _______ _____ _____    ______ ____
ROOT
ATOM      1  CA  CYS A   1       9.001   0.465  22.315  0.00  0.00    +0.191 C 
ENDROOT
BRANCH   1   4
ATOM      2  C   UNK A   0       9.639  -2.835  24.112  0.00  0.00    +0.109 C 
ATOM      3  C   UNK A   0       9.811  -1.748  23.089  0.00  0.00    +0.211 C 
ATOM      4  N   CYS A   1       9.029  -0.631  23.310  0.00  0.00    -0.302 N 
ATOM      5  H   CYS A   1       8.180  -0.769  23.852  0.00  0.00    +0.150 HD
ATOM      6  O   UNK A   0      10.648  -1.801  22.197  0.00  0.00    -0.276 OA
ENDBRANCH   1   4
BRANCH   1   7
ATOM      7  C   CYS A   1      10.021   1.559  22.654  0.00  0.00    +0.326 C 
ATOM      8  OXT CYS A   1      10.570   1.668  23.739  0.00  0.00    -0.249 OA
BRANCH   7   9
ATOM      9  O   CYS A   1      10.310   2.383  21.617  0.00  0.00    -0.479 OA
ATOM     10  H   CYS A   1      11.128   2.081  21.177  0.00  0.00    +0.295 HD
ENDBRANCH   7   9
ENDBRANCH   1   7
BRANCH   1  11
ATOM     11  CB  CYS A   1       7.622   1.133  22.232  0.00  0.00    +0.099 C 
BRANCH  11  12
ATOM     12  SG  CYS A   1       6.752   1.086  23.836  0.00  0.00    -0.176 S 
ATOM     13  HG  CYS A   1       7.753   1.595  24.573  0.00  0.00    +0.102 HD
ENDBRANCH  11  12
ENDBRANCH   1  11
TORSDOF 5
ENDMDL
MODEL 7
REMARK VINA RESULT:      -3.7      5.222      5.673
REMARK  Name = 
REMARK  6 active torsions:
REMARK  status: ('A' for Active; 'I' for Inactive)
REMARK    1  A    between atoms: C_1  and  C_2
REMARK    2  A    between atoms: N_4  and  CA_5
REMARK    3  A    between atoms: CA_5  and  CB_7
REMARK    4  A    between atoms: CA_5  and  C_9
REMARK    5  A    between atoms: CB_7  and  SG_8
REMARK    6  A    between atoms: C_9  and  O_10
REMARK                            x       y       z     vdW  Elec       q    Type
REMARK                         _______ _______ _______ _____ _____    ______ ____
ROOT
ATOM      1  CA  CYS A   1       9.887  -0.355  23.578  0.00  0.00    +0.191 C 
ENDROOT
BRANCH   1   4
ATOM      2  C   UNK A   0       7.825   2.184  21.622  0.00  0.00    +0.109 C 
ATOM      3  C   UNK A   0       9.050   1.499  22.158  0.00  0.00    +0.211 C 
ATOM      4  N   CYS A   1       8.787   0.353  22.884  0.00  0.00    -0.302 N 
ATOM      5  H   CYS A   1       7.867   0.285  23.312  0.00  0.00    +0.150 HD
ATOM      6  O   UNK A   0      10.187   1.862  21.888  0.00  0.00    -0.276 OA
ENDBRANCH   1   4
BRANCH   1   7
ATOM      7  C   CYS A   1      10.156  -1.728  22.951  0.00  0.00    +0.326 C 
ATOM      8  OXT CYS A   1      10.228  -2.767  23.587  0.00  0.00    -0.249 OA
BRANCH   7   9
ATOM      9  O   CYS A   1      10.261  -1.705  21.599  0.00  0.00    -0.479 OA
ATOM     10  H   CYS A   1       9.731  -0.965  21.243  0.00  0.00    +0.295 HD
ENDBRANCH   7   9
ENDBRANCH   1   7
BRANCH   1  11
ATOM     11  CB  CYS A   1       9.580  -0.582  25.065  0.00  0.00    +0.099 C 
BRANCH  11  12
ATOM     12  SG  CYS A   1       7.784  -0.553  25.394  0.00  0.00    -0.176 S 
ATOM     13  HG  CYS A   1       7.464   0.337  24.440  0.00  0.00    +0.102 HD
ENDBRANCH  11  12
ENDBRANCH   1  11
TORSDOF 5
ENDMDL
MODEL 8
REMARK VINA RESULT:      -3.7      2.382      2.928
REMARK  Name = 
REMARK  6 active torsions:
REMARK  status: ('A' for Active; 'I' for Inactive)
REMARK    1  A    between atoms: C_1  and  C_2
REMARK    2  A    between atoms: N_4  and  CA_5
REMARK    3  A    between atoms: CA_5  and  CB_7
REMARK    4  A    between atoms: CA_5  and  C_9
REMARK    5  A    between atoms: CB_7  and  SG_8
REMARK    6  A    between atoms: C_9  and  O_10
REMARK                            x       y       z     vdW  Elec       q    Type
REMARK                         _______ _______ _______ _____ _____    ______ ____
ROOT
ATOM      1  CA  CYS A   1       8.573  -4.032  24.767  0.00  0.00    +0.191 C 
ENDROOT
BRANCH   1   4
ATOM      2  C   UNK A   0      10.383  -1.471  22.602  0.00  0.00    +0.109 C 
ATOM      3  C   UNK A   0       9.239  -2.133  23.316  0.00  0.00    +0.211 C 
ATOM      4  N   CYS A   1       9.608  -3.206  24.105  0.00  0.00    -0.302 N 
ATOM      5  H   CYS A   1      10.471  -3.682  23.853  0.00  0.00    +0.150 HD
ATOM      6  O   UNK A   0       8.096  -1.698  23.289  0.00  0.00    -0.276 OA
ENDBRANCH   1   4
BRANCH   1   7
ATOM      7  C   CYS A   1       9.137  -4.770  25.987  0.00  0.00    +0.326 C 
ATOM      8  OXT CYS A   1       8.589  -4.804  27.078  0.00  0.00    -0.249 OA
BRANCH   7   9
ATOM      9  O   CYS A   1      10.291  -5.437  25.742  0.00  0.00    -0.479 OA
ATOM     10  H   CYS A   1      10.197  -5.965  24.925  0.00  0.00    +0.295 HD
ENDBRANCH   7   9
ENDBRANCH   1   7
BRANCH   1  11
ATOM     11  CB  CYS A   1       7.987  -5.090  23.822  0.00  0.00    +0.099 C 
BRANCH  11  12
ATOM     12  SG  CYS A   1       6.173  -5.212  23.989  0.00  0.00    -0.176 S 
ATOM     13  HG  CYS A   1       6.154  -6.390  24.635  0.00  0.00    +0.102 HD
ENDBRANCH  11  12
ENDBRANCH   1  11
TORSDOF 5
ENDMDL
MODEL 9
REMARK VINA RESULT:      -3.7      3.076      4.208
REMARK  Name = 
REMARK  6 active torsions:
REMARK  status: ('A' for Active; 'I' for Inactive)
REMARK    1  A    between atoms: C_1  and  C_2
REMARK    2  A    between atoms: N_4  and  CA_5
REMARK    3  A    between atoms: CA_5  and  CB_7
REMARK    4  A    between atoms: CA_5  and  C_9
REMARK    5  A    between atoms: CB_7  and  SG_8
REMARK    6  A    between atoms: C_9  and  O_10
REMARK                            x       y       z     vdW  Elec       q    Type
REMARK                         _______ _______ _______ _____ _____    ______ ____
ROOT
ATOM      1  CA  CYS A   1       8.793  -2.521  23.181  0.00  0.00    +0.191 C 
ENDROOT
BRANCH   1   4
ATOM      2  C   UNK A   0       9.044  -4.573  26.383  0.00  0.00    +0.109 C 
ATOM      3  C   UNK A   0       8.912  -4.294  24.913  0.00  0.00    +0.211 C 
ATOM      4  N   CYS A   1       9.028  -2.959  24.576  0.00  0.00    -0.302 N 
ATOM      5  H   CYS A   1       8.804  -2.284  25.303  0.00  0.00    +0.150 HD
ATOM      6  O   UNK A   0       8.817  -5.179  24.073  0.00  0.00    -0.276 OA
ENDBRANCH   1   4
BRANCH   1   7
ATOM      7  C   CYS A   1       9.852  -1.510  22.724  0.00  0.00    +0.326 C 
ATOM      8  OXT CYS A   1      10.421  -0.731  23.471  0.00  0.00    -0.249 OA
BRANCH   7   9
ATOM      9  O   CYS A   1      10.149  -1.585  21.403  0.00  0.00    -0.479 OA
ATOM     10  H   CYS A   1      11.073  -1.300  21.259  0.00  0.00    +0.295 HD
ENDBRANCH   7   9
ENDBRANCH   1   7
BRANCH   1  11
ATOM     11  CB  CYS A   1       7.420  -1.858  23.007  0.00  0.00    +0.099 C 
BRANCH  11  12
ATOM     12  SG  CYS A   1       6.178  -3.037  22.373  0.00  0.00    -0.176 S 
ATOM     13  HG  CYS A   1       5.586  -2.193  21.512  0.00  0.00    +0.102 HD
ENDBRANCH  11  12
ENDBRANCH   1  11
TORSDOF 5
ENDMDL
