MODEL 1
REMARK VINA RESULT:      -7.4      0.000      0.000
REMARK  Name = 
REMARK  10 active torsions:
REMARK  status: ('A' for Active; 'I' for Inactive)
REMARK    1  A    between atoms: O_1  and  C_2
REMARK    2  A    between atoms: C_2  and  C_4
REMARK    3  A    between atoms: C_4  and  O_5
REMARK    4  A    between atoms: O_5  and  C_6
REMARK    5  A    between atoms: C_7  and  C_26
REMARK    6  A    between atoms: C_9  and  C_12
REMARK    7  A    between atoms: C_16  and  N_17
REMARK    8  A    between atoms: N_17  and  C_18
REMARK    9  A    between atoms: C_18  and  C_19
REMARK   10  A    between atoms: C_26  and  O_27
REMARK                            x       y       z     vdW  Elec       q    Type
REMARK                         _______ _______ _______ _____ _____    ______ ____
ROOT
ATOM      1  C   UNL     1       6.341  -4.497  24.606  0.00  0.00    +0.157 A 
ATOM      2  C   UNL     1       7.273  -3.401  24.466  0.00  0.00    +0.075 A 
ATOM      3 BR   UNL     1       8.623  -2.983  25.757  0.00  0.00    -0.045 Br
ATOM      4  C   UNL     1       7.110  -2.679  23.289  0.00  0.00    +0.038 A 
ATOM      5  S   UNL     1       5.802  -3.335  22.385  0.00  0.00    -0.077 S 
ATOM      6  C   UNL     1       5.470  -4.563  23.530  0.00  0.00    +0.139 A 
ENDROOT
BRANCH   4   7
ATOM      7  C   UNL     1       7.847  -1.511  22.736  0.00  0.00    -0.008 A 
ATOM      8  C   UNL     1       7.508  -0.191  23.096  0.00  0.00    +0.032 A 
ATOM      9  C   UNL     1       8.239   0.929  22.666  0.00  0.00    +0.028 A 
ATOM     10  C   UNL     1       9.333   0.706  21.829  0.00  0.00    +0.023 A 
ATOM     11  C   UNL     1       9.658  -0.579  21.400  0.00  0.00    +0.002 A 
ATOM     12  C   UNL     1       8.927  -1.677  21.856  0.00  0.00    +0.009 A 
BRANCH   9  13
ATOM     13  N   UNL     1       7.928   2.192  23.192  0.00  0.00    -0.340 N 
ATOM     14  H   UNL     1       7.929   2.924  22.487  0.00  0.00    +0.146 HD
BRANCH  13  15
ATOM     15  C   UNL     1       8.636   2.604  24.399  0.00  0.00    +0.136 C 
BRANCH  15  16
ATOM     16  C   UNL     1       9.652   3.671  24.069  0.00  0.00    -0.030 A 
ATOM     17  C   UNL     1      10.905   3.328  23.540  0.00  0.00    +0.005 A 
ATOM     18  C   UNL     1      11.848   4.318  23.261  0.00  0.00    +0.000 A 
ATOM     19  C   UNL     1      11.549   5.659  23.504  0.00  0.00    +0.000 A 
ATOM     20  C   UNL     1      10.304   6.012  24.018  0.00  0.00    +0.000 A 
ATOM     21  C   UNL     1       9.357   5.024  24.293  0.00  0.00    +0.005 A 
ENDBRANCH  15  16
ENDBRANCH  13  15
ENDBRANCH   9  13
ENDBRANCH   4   7
BRANCH   6  22
ATOM     22  C   UNL     1       4.377  -5.482  23.225  0.00  0.00    +0.347 C 
ATOM     23  O   UNL     1       3.236  -5.162  22.913  0.00  0.00    -0.244 OA
BRANCH  22  24
ATOM     24  O   UNL     1       4.725  -6.791  23.308  0.00  0.00    -0.477 OA
ATOM     25  H   UNL     1       3.982  -7.392  23.507  0.00  0.00    +0.295 HD
ENDBRANCH  22  24
ENDBRANCH   6  22
BRANCH   1  26
ATOM     26  O   UNL     1       6.169  -5.407  25.609  0.00  0.00    -0.478 OA
BRANCH  26  27
ATOM     27  C   UNL     1       5.739  -4.896  26.861  0.00  0.00    +0.349 C 
BRANCH  27  28
ATOM     28  C   UNL     1       6.524  -5.477  28.021  0.00  0.00    +0.343 C 
ATOM     29  O   UNL     1       6.169  -5.424  29.191  0.00  0.00    -0.247 OA
BRANCH  28  30
ATOM     30  O   UNL     1       7.678  -6.067  27.635  0.00  0.00    -0.478 OA
ATOM     31  H   UNL     1       8.347  -6.173  28.338  0.00  0.00    +0.295 HD
ENDBRANCH  28  30
ENDBRANCH  27  28
ENDBRANCH  26  27
ENDBRANCH   1  26
TORSDOF 10
ENDMDL
MODEL 2
REMARK VINA RESULT:      -7.3      2.567      3.404
REMARK  Name = 
REMARK  10 active torsions:
REMARK  status: ('A' for Active; 'I' for Inactive)
REMARK    1  A    between atoms: O_1  and  C_2
REMARK    2  A    between atoms: C_2  and  C_4
REMARK    3  A    between atoms: C_4  and  O_5
REMARK    4  A    between atoms: O_5  and  C_6
REMARK    5  A    between atoms: C_7  and  C_26
REMARK    6  A    between atoms: C_9  and  C_12
REMARK    7  A    between atoms: C_16  and  N_17
REMARK    8  A    between atoms: N_17  and  C_18
REMARK    9  A    between atoms: C_18  and  C_19
REMARK   10  A    between atoms: C_26  and  O_27
REMARK                            x       y       z     vdW  Elec       q    Type
REMARK                         _______ _______ _______ _____ _____    ______ ____
ROOT
ATOM      1  C   UNL     1       8.489  -2.964  26.059  0.00  0.00    +0.157 A 
ATOM      2  C   UNL     1       8.588  -1.541  25.822  0.00  0.00    +0.075 A 
ATOM      3 BR   UNL     1       7.882  -0.216  27.009  0.00  0.00    -0.045 Br
ATOM      4  C   UNL     1       9.261  -1.218  24.650  0.00  0.00    +0.038 A 
ATOM      5  S   UNL     1       9.740  -2.659  23.842  0.00  0.00    -0.077 S 
ATOM      6  C   UNL     1       9.078  -3.691  25.035  0.00  0.00    +0.139 A 
ENDROOT
BRANCH   4   7
ATOM      7  C   UNL     1       9.604   0.094  24.038  0.00  0.00    -0.008 A 
ATOM      8  C   UNL     1       8.836   0.639  22.989  0.00  0.00    +0.032 A 
ATOM      9  C   UNL     1       9.077   1.913  22.450  0.00  0.00    +0.028 A 
ATOM     10  C   UNL     1      10.140   2.650  22.975  0.00  0.00    +0.023 A 
ATOM     11  C   UNL     1      10.961   2.116  23.967  0.00  0.00    +0.002 A 
ATOM     12  C   UNL     1      10.690   0.855  24.498  0.00  0.00    +0.009 A 
BRANCH   9  13
ATOM     13  N   UNL     1       8.173   2.443  21.516  0.00  0.00    -0.340 N 
ATOM     14  H   UNL     1       8.609   3.101  20.875  0.00  0.00    +0.146 HD
BRANCH  13  15
ATOM     15  C   UNL     1       6.904   2.947  22.027  0.00  0.00    +0.136 C 
BRANCH  15  16
ATOM     16  C   UNL     1       7.112   4.269  22.728  0.00  0.00    -0.030 A 
ATOM     17  C   UNL     1       7.429   5.423  21.998  0.00  0.00    +0.005 A 
ATOM     18  C   UNL     1       7.644   6.637  22.654  0.00  0.00    +0.000 A 
ATOM     19  C   UNL     1       7.540   6.709  24.043  0.00  0.00    +0.000 A 
ATOM     20  C   UNL     1       7.213   5.571  24.777  0.00  0.00    +0.000 A 
ATOM     21  C   UNL     1       6.992   4.358  24.122  0.00  0.00    +0.005 A 
ENDBRANCH  15  16
ENDBRANCH  13  15
ENDBRANCH   9  13
ENDBRANCH   4   7
BRANCH   6  22
ATOM     22  C   UNL     1       9.229  -5.128  24.833  0.00  0.00    +0.347 C 
ATOM     23  O   UNL     1       8.817  -5.766  23.871  0.00  0.00    -0.244 OA
BRANCH  22  24
ATOM     24  O   UNL     1       9.900  -5.753  25.835  0.00  0.00    -0.477 OA
ATOM     25  H   UNL     1      10.778  -5.375  26.027  0.00  0.00    +0.295 HD
ENDBRANCH  22  24
ENDBRANCH   6  22
BRANCH   1  26
ATOM     26  O   UNL     1       7.897  -3.668  27.068  0.00  0.00    -0.478 OA
BRANCH  26  27
ATOM     27  C   UNL     1       6.628  -4.235  26.784  0.00  0.00    +0.349 C 
BRANCH  27  28
ATOM     28  C   UNL     1       6.563  -5.709  27.134  0.00  0.00    +0.343 C 
ATOM     29  O   UNL     1       5.634  -6.448  26.840  0.00  0.00    -0.247 OA
BRANCH  28  30
ATOM     30  O   UNL     1       7.648  -6.138  27.818  0.00  0.00    -0.478 OA
ATOM     31  H   UNL     1       7.457  -6.582  28.666  0.00  0.00    +0.295 HD
ENDBRANCH  28  30
ENDBRANCH  27  28
ENDBRANCH  26  27
ENDBRANCH   1  26
TORSDOF 10
ENDMDL
MODEL 3
REMARK VINA RESULT:      -7.3      1.532      3.241
REMARK  Name = 
REMARK  10 active torsions:
REMARK  status: ('A' for Active; 'I' for Inactive)
REMARK    1  A    between atoms: O_1  and  C_2
REMARK    2  A    between atoms: C_2  and  C_4
REMARK    3  A    between atoms: C_4  and  O_5
REMARK    4  A    between atoms: O_5  and  C_6
REMARK    5  A    between atoms: C_7  and  C_26
REMARK    6  A    between atoms: C_9  and  C_12
REMARK    7  A    between atoms: C_16  and  N_17
REMARK    8  A    between atoms: N_17  and  C_18
REMARK    9  A    between atoms: C_18  and  C_19
REMARK   10  A    between atoms: C_26  and  O_27
REMARK                            x       y       z     vdW  Elec       q    Type
REMARK                         _______ _______ _______ _____ _____    ______ ____
ROOT
ATOM      1  C   UNL     1       6.567  -4.520  24.633  0.00  0.00    +0.157 A 
ATOM      2  C   UNL     1       6.891  -3.532  23.629  0.00  0.00    +0.075 A 
ATOM      3 BR   UNL     1       6.139  -3.521  21.869  0.00  0.00    -0.045 Br
ATOM      4  C   UNL     1       7.796  -2.572  24.065  0.00  0.00    +0.038 A 
ATOM      5  S   UNL     1       8.257  -2.907  25.688  0.00  0.00    -0.077 S 
ATOM      6  C   UNL     1       7.261  -4.293  25.811  0.00  0.00    +0.139 A 
ENDROOT
BRANCH   4   7
ATOM      7  C   UNL     1       8.380  -1.383  23.386  0.00  0.00    -0.008 A 
ATOM      8  C   UNL     1       8.366  -0.111  23.992  0.00  0.00    +0.032 A 
ATOM      9  C   UNL     1       8.988   1.012  23.421  0.00  0.00    +0.028 A 
ATOM     10  C   UNL     1       9.625   0.845  22.191  0.00  0.00    +0.023 A 
ATOM     11  C   UNL     1       9.602  -0.383  21.532  0.00  0.00    +0.002 A 
ATOM     12  C   UNL     1       8.993  -1.487  22.129  0.00  0.00    +0.009 A 
BRANCH   9  13
ATOM     13  N   UNL     1       9.060   2.203  24.160  0.00  0.00    -0.340 N 
ATOM     14  H   UNL     1       8.483   2.183  24.998  0.00  0.00    +0.146 HD
BRANCH  13  15
ATOM     15  C   UNL     1       8.903   3.454  23.426  0.00  0.00    +0.136 C 
BRANCH  15  16
ATOM     16  C   UNL     1      10.092   4.353  23.665  0.00  0.00    -0.030 A 
ATOM     17  C   UNL     1       9.938   5.585  24.316  0.00  0.00    +0.005 A 
ATOM     18  C   UNL     1      11.038   6.423  24.512  0.00  0.00    +0.000 A 
ATOM     19  C   UNL     1      12.301   6.036  24.064  0.00  0.00    +0.000 A 
ATOM     20  C   UNL     1      12.467   4.808  23.427  0.00  0.00    +0.000 A 
ATOM     21  C   UNL     1      11.370   3.967  23.235  0.00  0.00    +0.005 A 
ENDBRANCH  15  16
ENDBRANCH  13  15
ENDBRANCH   9  13
ENDBRANCH   4   7
BRANCH   6  22
ATOM     22  C   UNL     1       7.263  -5.005  27.085  0.00  0.00    +0.347 C 
ATOM     23  O   UNL     1       6.536  -4.768  28.042  0.00  0.00    -0.244 OA
BRANCH  22  24
ATOM     24  O   UNL     1       8.173  -6.011  27.147  0.00  0.00    -0.477 OA
ATOM     25  H   UNL     1       8.553  -6.262  26.284  0.00  0.00    +0.295 HD
ENDBRANCH  22  24
ENDBRANCH   6  22
BRANCH   1  26
ATOM     26  O   UNL     1       5.752  -5.614  24.587  0.00  0.00    -0.478 OA
BRANCH  26  27
ATOM     27  C   UNL     1       4.356  -5.367  24.661  0.00  0.00    +0.349 C 
BRANCH  27  28
ATOM     28  C   UNL     1       3.573  -6.168  23.639  0.00  0.00    +0.343 C 
ATOM     29  O   UNL     1       2.845  -5.678  22.787  0.00  0.00    -0.247 OA
BRANCH  28  30
ATOM     30  O   UNL     1       3.756  -7.503  23.763  0.00  0.00    -0.478 OA
ATOM     31  H   UNL     1       3.732  -8.006  22.926  0.00  0.00    +0.295 HD
ENDBRANCH  28  30
ENDBRANCH  27  28
ENDBRANCH  26  27
ENDBRANCH   1  26
TORSDOF 10
ENDMDL
MODEL 4
REMARK VINA RESULT:      -7.2      1.848      3.286
REMARK  Name = 
REMARK  10 active torsions:
REMARK  status: ('A' for Active; 'I' for Inactive)
REMARK    1  A    between atoms: O_1  and  C_2
REMARK    2  A    between atoms: C_2  and  C_4
REMARK    3  A    between atoms: C_4  and  O_5
REMARK    4  A    between atoms: O_5  and  C_6
REMARK    5  A    between atoms: C_7  and  C_26
REMARK    6  A    between atoms: C_9  and  C_12
REMARK    7  A    between atoms: C_16  and  N_17
REMARK    8  A    between atoms: N_17  and  C_18
REMARK    9  A    between atoms: C_18  and  C_19
REMARK   10  A    between atoms: C_26  and  O_27
REMARK                            x       y       z     vdW  Elec       q    Type
REMARK                         _______ _______ _______ _____ _____    ______ ____
ROOT
ATOM      1  C   UNL     1       7.154  -4.402  24.365  0.00  0.00    +0.157 A 
ATOM      2  C   UNL     1       7.116  -3.386  23.338  0.00  0.00    +0.075 A 
ATOM      3 BR   UNL     1       6.068  -3.527  21.743  0.00  0.00    -0.045 Br
ATOM      4  C   UNL     1       7.905  -2.277  23.623  0.00  0.00    +0.038 A 
ATOM      5  S   UNL     1       8.702  -2.507  25.130  0.00  0.00    -0.077 S 
ATOM      6  C   UNL     1       8.000  -4.043  25.403  0.00  0.00    +0.139 A 
ENDROOT
BRANCH   4   7
ATOM      7  C   UNL     1       8.142  -1.014  22.874  0.00  0.00    -0.008 A 
ATOM      8  C   UNL     1       7.214   0.046  22.909  0.00  0.00    +0.032 A 
ATOM      9  C   UNL     1       7.448   1.285  22.288  0.00  0.00    +0.028 A 
ATOM     10  C   UNL     1       8.648   1.447  21.596  0.00  0.00    +0.023 A 
ATOM     11  C   UNL     1       9.560   0.398  21.485  0.00  0.00    +0.002 A 
ATOM     12  C   UNL     1       9.312  -0.817  22.125  0.00  0.00    +0.009 A 
BRANCH   9  13
ATOM     13  N   UNL     1       6.543   2.337  22.500  0.00  0.00    -0.340 N 
ATOM     14  H   UNL     1       6.473   2.963  21.701  0.00  0.00    +0.146 HD
BRANCH  13  15
ATOM     15  C   UNL     1       6.657   3.072  23.754  0.00  0.00    +0.136 C 
BRANCH  15  16
ATOM     16  C   UNL     1       7.640   4.209  23.606  0.00  0.00    -0.030 A 
ATOM     17  C   UNL     1       8.853   4.202  24.309  0.00  0.00    +0.005 A 
ATOM     18  C   UNL     1       9.746   5.267  24.187  0.00  0.00    +0.000 A 
ATOM     19  C   UNL     1       9.438   6.347  23.360  0.00  0.00    +0.000 A 
ATOM     20  C   UNL     1       8.241   6.359  22.648  0.00  0.00    +0.000 A 
ATOM     21  C   UNL     1       7.349   5.292  22.764  0.00  0.00    +0.005 A 
ENDBRANCH  15  16
ENDBRANCH  13  15
ENDBRANCH   9  13
ENDBRANCH   4   7
BRANCH   6  22
ATOM     22  C   UNL     1       8.355  -4.729  26.642  0.00  0.00    +0.347 C 
ATOM     23  O   UNL     1       7.568  -5.144  27.485  0.00  0.00    -0.244 OA
BRANCH  22  24
ATOM     24  O   UNL     1       9.692  -4.893  26.812  0.00  0.00    -0.477 OA
ATOM     25  H   UNL     1      10.236  -4.179  26.428  0.00  0.00    +0.295 HD
ENDBRANCH  22  24
ENDBRANCH   6  22
BRANCH   1  26
ATOM     26  O   UNL     1       6.546  -5.622  24.445  0.00  0.00    -0.478 OA
BRANCH  26  27
ATOM     27  C   UNL     1       5.170  -5.621  24.792  0.00  0.00    +0.349 C 
BRANCH  27  28
ATOM     28  C   UNL     1       4.390  -6.698  24.062  0.00  0.00    +0.343 C 
ATOM     29  O   UNL     1       4.005  -7.740  24.574  0.00  0.00    -0.247 OA
BRANCH  28  30
ATOM     30  O   UNL     1       4.159  -6.393  22.764  0.00  0.00    -0.478 OA
ATOM     31  H   UNL     1       3.248  -6.109  22.559  0.00  0.00    +0.295 HD
ENDBRANCH  28  30
ENDBRANCH  27  28
ENDBRANCH  26  27
ENDBRANCH   1  26
TORSDOF 10
ENDMDL
MODEL 5
REMARK VINA RESULT:      -6.8      1.749      2.334
REMARK  Name = 
REMARK  10 active torsions:
REMARK  status: ('A' for Active; 'I' for Inactive)
REMARK    1  A    between atoms: O_1  and  C_2
REMARK    2  A    between atoms: C_2  and  C_4
REMARK    3  A    between atoms: C_4  and  O_5
REMARK    4  A    between atoms: O_5  and  C_6
REMARK    5  A    between atoms: C_7  and  C_26
REMARK    6  A    between atoms: C_9  and  C_12
REMARK    7  A    between atoms: C_16  and  N_17
REMARK    8  A    between atoms: N_17  and  C_18
REMARK    9  A    between atoms: C_18  and  C_19
REMARK   10  A    between atoms: C_26  and  O_27
REMARK                            x       y       z     vdW  Elec       q    Type
REMARK                         _______ _______ _______ _____ _____    ______ ____
ROOT
ATOM      1  C   UNL     1       6.701  -3.474  24.327  0.00  0.00    +0.157 A 
ATOM      2  C   UNL     1       7.393  -2.274  24.742  0.00  0.00    +0.075 A 
ATOM      3 BR   UNL     1       7.333  -1.578  26.524  0.00  0.00    -0.045 Br
ATOM      4  C   UNL     1       8.127  -1.675  23.726  0.00  0.00    +0.038 A 
ATOM      5  S   UNL     1       7.938  -2.571  22.270  0.00  0.00    -0.077 S 
ATOM      6  C   UNL     1       6.913  -3.741  22.983  0.00  0.00    +0.139 A 
ENDROOT
BRANCH   4   7
ATOM      7  C   UNL     1       8.990  -0.463  23.712  0.00  0.00    -0.008 A 
ATOM      8  C   UNL     1       8.687   0.645  22.896  0.00  0.00    +0.032 A 
ATOM      9  C   UNL     1       9.427   1.839  22.926  0.00  0.00    +0.028 A 
ATOM     10  C   UNL     1      10.517   1.905  23.794  0.00  0.00    +0.023 A 
ATOM     11  C   UNL     1      10.885   0.806  24.567  0.00  0.00    +0.002 A 
ATOM     12  C   UNL     1      10.124  -0.362  24.533  0.00  0.00    +0.009 A 
BRANCH   9  13
ATOM     13  N   UNL     1       8.968   2.946  22.195  0.00  0.00    -0.340 N 
ATOM     14  H   UNL     1       9.718   3.573  21.916  0.00  0.00    +0.146 HD
BRANCH  13  15
ATOM     15  C   UNL     1       7.828   3.677  22.737  0.00  0.00    +0.136 C 
BRANCH  15  16
ATOM     16  C   UNL     1       8.293   4.697  23.747  0.00  0.00    -0.030 A 
ATOM     17  C   UNL     1       9.084   5.786  23.352  0.00  0.00    +0.005 A 
ATOM     18  C   UNL     1       9.532   6.713  24.296  0.00  0.00    +0.000 A 
ATOM     19  C   UNL     1       9.191   6.563  25.640  0.00  0.00    +0.000 A 
ATOM     20  C   UNL     1       8.396   5.492  26.041  0.00  0.00    +0.000 A 
ATOM     21  C   UNL     1       7.943   4.568  25.099  0.00  0.00    +0.005 A 
ENDBRANCH  15  16
ENDBRANCH  13  15
ENDBRANCH   9  13
ENDBRANCH   4   7
BRANCH   6  22
ATOM     22  C   UNL     1       6.435  -4.822  22.126  0.00  0.00    +0.347 C 
ATOM     23  O   UNL     1       7.136  -5.564  21.448  0.00  0.00    -0.244 OA
BRANCH  22  24
ATOM     24  O   UNL     1       5.086  -4.967  22.129  0.00  0.00    -0.477 OA
ATOM     25  H   UNL     1       4.711  -5.217  22.995  0.00  0.00    +0.295 HD
ENDBRANCH  22  24
ENDBRANCH   6  22
BRANCH   1  26
ATOM     26  O   UNL     1       5.877  -4.319  25.013  0.00  0.00    -0.478 OA
BRANCH  26  27
ATOM     27  C   UNL     1       6.490  -5.446  25.619  0.00  0.00    +0.349 C 
BRANCH  27  28
ATOM     28  C   UNL     1       6.567  -5.319  27.128  0.00  0.00    +0.343 C 
ATOM     29  O   UNL     1       7.430  -5.839  27.822  0.00  0.00    -0.247 OA
BRANCH  28  30
ATOM     30  O   UNL     1       5.570  -4.565  27.646  0.00  0.00    -0.478 OA
ATOM     31  H   UNL     1       5.500  -4.580  28.619  0.00  0.00    +0.295 HD
ENDBRANCH  28  30
ENDBRANCH  27  28
ENDBRANCH  26  27
ENDBRANCH   1  26
TORSDOF 10
ENDMDL
MODEL 6
REMARK VINA RESULT:      -6.7      2.632      3.607
REMARK  Name = 
REMARK  10 active torsions:
REMARK  status: ('A' for Active; 'I' for Inactive)
REMARK    1  A    between atoms: O_1  and  C_2
REMARK    2  A    between atoms: C_2  and  C_4
REMARK    3  A    between atoms: C_4  and  O_5
REMARK    4  A    between atoms: O_5  and  C_6
REMARK    5  A    between atoms: C_7  and  C_26
REMARK    6  A    between atoms: C_9  and  C_12
REMARK    7  A    between atoms: C_16  and  N_17
REMARK    8  A    between atoms: N_17  and  C_18
REMARK    9  A    between atoms: C_18  and  C_19
REMARK   10  A    between atoms: C_26  and  O_27
REMARK                            x       y       z     vdW  Elec       q    Type
REMARK                         _______ _______ _______ _____ _____    ______ ____
ROOT
ATOM      1  C   UNL     1       4.446  -4.812  23.689  0.00  0.00    +0.157 A 
ATOM      2  C   UNL     1       5.792  -4.659  23.185  0.00  0.00    +0.075 A 
ATOM      3 BR   UNL     1       6.622  -5.893  21.980  0.00  0.00    -0.045 Br
ATOM      4  C   UNL     1       6.432  -3.515  23.646  0.00  0.00    +0.038 A 
ATOM      5  S   UNL     1       5.388  -2.658  24.711  0.00  0.00    -0.077 S 
ATOM      6  C   UNL     1       4.105  -3.779  24.548  0.00  0.00    +0.139 A 
ENDROOT
BRANCH   4   7
ATOM      7  C   UNL     1       7.786  -2.962  23.375  0.00  0.00    -0.008 A 
ATOM      8  C   UNL     1       8.030  -2.126  22.267  0.00  0.00    +0.032 A 
ATOM      9  C   UNL     1       9.272  -1.514  22.031  0.00  0.00    +0.028 A 
ATOM     10  C   UNL     1      10.304  -1.773  22.934  0.00  0.00    +0.023 A 
ATOM     11  C   UNL     1      10.118  -2.647  24.004  0.00  0.00    +0.002 A 
ATOM     12  C   UNL     1       8.870  -3.228  24.226  0.00  0.00    +0.009 A 
BRANCH   9  13
ATOM     13  N   UNL     1       9.387  -0.576  20.993  0.00  0.00    -0.340 N 
ATOM     14  H   UNL     1      10.348  -0.290  20.825  0.00  0.00    +0.146 HD
BRANCH  13  15
ATOM     15  C   UNL     1       8.481   0.566  21.023  0.00  0.00    +0.136 C 
BRANCH  15  16
ATOM     16  C   UNL     1       8.891   1.530  22.111  0.00  0.00    -0.030 A 
ATOM     17  C   UNL     1      10.222   1.956  22.225  0.00  0.00    +0.005 A 
ATOM     18  C   UNL     1      10.599   2.828  23.248  0.00  0.00    +0.000 A 
ATOM     19  C   UNL     1       9.651   3.285  24.162  0.00  0.00    +0.000 A 
ATOM     20  C   UNL     1       8.324   2.878  24.051  0.00  0.00    +0.000 A 
ATOM     21  C   UNL     1       7.943   2.011  23.026  0.00  0.00    +0.005 A 
ENDBRANCH  15  16
ENDBRANCH  13  15
ENDBRANCH   9  13
ENDBRANCH   4   7
BRANCH   6  22
ATOM     22  C   UNL     1       2.878  -3.501  25.287  0.00  0.00    +0.347 C 
ATOM     23  O   UNL     1       2.432  -2.390  25.548  0.00  0.00    -0.244 OA
BRANCH  22  24
ATOM     24  O   UNL     1       2.216  -4.617  25.687  0.00  0.00    -0.477 OA
ATOM     25  H   UNL     1       1.245  -4.554  25.620  0.00  0.00    +0.295 HD
ENDBRANCH  22  24
ENDBRANCH   6  22
BRANCH   1  26
ATOM     26  O   UNL     1       3.518  -5.794  23.489  0.00  0.00    -0.478 OA
BRANCH  26  27
ATOM     27  C   UNL     1       3.789  -7.052  24.088  0.00  0.00    +0.349 C 
BRANCH  27  28
ATOM     28  C   UNL     1       2.526  -7.758  24.543  0.00  0.00    +0.343 C 
ATOM     29  O   UNL     1       1.404  -7.275  24.481  0.00  0.00    -0.247 OA
BRANCH  28  30
ATOM     30  O   UNL     1       2.763  -8.995  25.037  0.00  0.00    -0.478 OA
ATOM     31  H   UNL     1       2.019  -9.397  25.525  0.00  0.00    +0.295 HD
ENDBRANCH  28  30
ENDBRANCH  27  28
ENDBRANCH  26  27
ENDBRANCH   1  26
TORSDOF 10
ENDMDL
MODEL 7
REMARK VINA RESULT:      -6.7      4.685      8.875
REMARK  Name = 
REMARK  10 active torsions:
REMARK  status: ('A' for Active; 'I' for Inactive)
REMARK    1  A    between atoms: O_1  and  C_2
REMARK    2  A    between atoms: C_2  and  C_4
REMARK    3  A    between atoms: C_4  and  O_5
REMARK    4  A    between atoms: O_5  and  C_6
REMARK    5  A    between atoms: C_7  and  C_26
REMARK    6  A    between atoms: C_9  and  C_12
REMARK    7  A    between atoms: C_16  and  N_17
REMARK    8  A    between atoms: N_17  and  C_18
REMARK    9  A    between atoms: C_18  and  C_19
REMARK   10  A    between atoms: C_26  and  O_27
REMARK                            x       y       z     vdW  Elec       q    Type
REMARK                         _______ _______ _______ _____ _____    ______ ____
ROOT
ATOM      1  C   UNL     1       8.206   0.289  22.786  0.00  0.00    +0.157 A 
ATOM      2  C   UNL     1       7.803  -0.982  23.343  0.00  0.00    +0.075 A 
ATOM      3 BR   UNL     1       6.155  -1.856  22.913  0.00  0.00    -0.045 Br
ATOM      4  C   UNL     1       8.736  -1.527  24.217  0.00  0.00    +0.038 A 
ATOM      5  S   UNL     1      10.079  -0.463  24.365  0.00  0.00    -0.077 S 
ATOM      6  C   UNL     1       9.438   0.691  23.276  0.00  0.00    +0.139 A 
ENDROOT
BRANCH   4   7
ATOM      7  C   UNL     1       8.744  -2.801  24.986  0.00  0.00    -0.008 A 
ATOM      8  C   UNL     1       7.787  -3.061  25.986  0.00  0.00    +0.032 A 
ATOM      9  C   UNL     1       7.709  -4.288  26.667  0.00  0.00    +0.028 A 
ATOM     10  C   UNL     1       8.642  -5.272  26.338  0.00  0.00    +0.023 A 
ATOM     11  C   UNL     1       9.644  -5.026  25.401  0.00  0.00    +0.002 A 
ATOM     12  C   UNL     1       9.688  -3.806  24.726  0.00  0.00    +0.009 A 
BRANCH   9  13
ATOM     13  N   UNL     1       6.633  -4.520  27.538  0.00  0.00    -0.340 N 
ATOM     14  H   UNL     1       6.595  -5.480  27.871  0.00  0.00    +0.146 HD
BRANCH  13  15
ATOM     15  C   UNL     1       5.321  -4.042  27.118  0.00  0.00    +0.136 C 
BRANCH  15  16
ATOM     16  C   UNL     1       4.743  -4.959  26.067  0.00  0.00    -0.030 A 
ATOM     17  C   UNL     1       4.716  -6.347  26.264  0.00  0.00    +0.005 A 
ATOM     18  C   UNL     1       4.203  -7.191  25.277  0.00  0.00    +0.000 A 
ATOM     19  C   UNL     1       3.709  -6.657  24.087  0.00  0.00    +0.000 A 
ATOM     20  C   UNL     1       3.720  -5.278  23.886  0.00  0.00    +0.000 A 
ATOM     21  C   UNL     1       4.227  -4.432  24.873  0.00  0.00    +0.005 A 
ENDBRANCH  15  16
ENDBRANCH  13  15
ENDBRANCH   9  13
ENDBRANCH   4   7
BRANCH   6  22
ATOM     22  C   UNL     1      10.245   1.878  23.010  0.00  0.00    +0.347 C 
ATOM     23  O   UNL     1      10.901   2.501  23.836  0.00  0.00    -0.244 OA
BRANCH  22  24
ATOM     24  O   UNL     1      10.227   2.270  21.710  0.00  0.00    -0.477 OA
ATOM     25  H   UNL     1      10.424   3.216  21.574  0.00  0.00    +0.295 HD
ENDBRANCH  22  24
ENDBRANCH   6  22
BRANCH   1  26
ATOM     26  O   UNL     1       7.569   1.134  21.923  0.00  0.00    -0.478 OA
BRANCH  26  27
ATOM     27  C   UNL     1       6.514   1.914  22.463  0.00  0.00    +0.349 C 
BRANCH  27  28
ATOM     28  C   UNL     1       6.730   3.401  22.255  0.00  0.00    +0.343 C 
ATOM     29  O   UNL     1       7.794   3.976  22.437  0.00  0.00    -0.247 OA
BRANCH  28  30
ATOM     30  O   UNL     1       5.613   4.044  21.845  0.00  0.00    -0.478 OA
ATOM     31  H   UNL     1       5.741   4.975  21.582  0.00  0.00    +0.295 HD
ENDBRANCH  28  30
ENDBRANCH  27  28
ENDBRANCH  26  27
ENDBRANCH   1  26
TORSDOF 10
ENDMDL
MODEL 8
REMARK VINA RESULT:      -6.6      2.691      3.459
REMARK  Name = 
REMARK  10 active torsions:
REMARK  status: ('A' for Active; 'I' for Inactive)
REMARK    1  A    between atoms: O_1  and  C_2
REMARK    2  A    between atoms: C_2  and  C_4
REMARK    3  A    between atoms: C_4  and  O_5
REMARK    4  A    between atoms: O_5  and  C_6
REMARK    5  A    between atoms: C_7  and  C_26
REMARK    6  A    between atoms: C_9  and  C_12
REMARK    7  A    between atoms: C_16  and  N_17
REMARK    8  A    between atoms: N_17  and  C_18
REMARK    9  A    between atoms: C_18  and  C_19
REMARK   10  A    between atoms: C_26  and  O_27
REMARK                            x       y       z     vdW  Elec       q    Type
REMARK                         _______ _______ _______ _____ _____    ______ ____
ROOT
ATOM      1  C   UNL     1       7.407  -3.397  24.268  0.00  0.00    +0.157 A 
ATOM      2  C   UNL     1       8.075  -2.183  24.683  0.00  0.00    +0.075 A 
ATOM      3 BR   UNL     1       8.360  -1.701  26.513  0.00  0.00    -0.045 Br
ATOM      4  C   UNL     1       8.510  -1.397  23.623  0.00  0.00    +0.038 A 
ATOM      5  S   UNL     1       8.072  -2.140  22.135  0.00  0.00    -0.077 S 
ATOM      6  C   UNL     1       7.333  -3.488  22.887  0.00  0.00    +0.139 A 
ENDROOT
BRANCH   4   7
ATOM      7  C   UNL     1       9.245  -0.104  23.588  0.00  0.00    -0.008 A 
ATOM      8  C   UNL     1       8.723   1.020  22.917  0.00  0.00    +0.032 A 
ATOM      9  C   UNL     1       9.345   2.279  22.941  0.00  0.00    +0.028 A 
ATOM     10  C   UNL     1      10.543   2.398  23.648  0.00  0.00    +0.023 A 
ATOM     11  C   UNL     1      11.122   1.292  24.267  0.00  0.00    +0.002 A 
ATOM     12  C   UNL     1      10.475   0.056  24.244  0.00  0.00    +0.009 A 
BRANCH   9  13
ATOM     13  N   UNL     1       8.682   3.380  22.377  0.00  0.00    -0.340 N 
ATOM     14  H   UNL     1       8.925   4.260  22.827  0.00  0.00    +0.146 HD
BRANCH  13  15
ATOM     15  C   UNL     1       7.244   3.259  22.172  0.00  0.00    +0.136 C 
BRANCH  15  16
ATOM     16  C   UNL     1       6.578   4.605  22.330  0.00  0.00    -0.030 A 
ATOM     17  C   UNL     1       5.261   4.701  22.803  0.00  0.00    +0.005 A 
ATOM     18  C   UNL     1       4.643   5.946  22.923  0.00  0.00    +0.000 A 
ATOM     19  C   UNL     1       5.334   7.107  22.576  0.00  0.00    +0.000 A 
ATOM     20  C   UNL     1       6.646   7.024  22.117  0.00  0.00    +0.000 A 
ATOM     21  C   UNL     1       7.268   5.780  22.001  0.00  0.00    +0.005 A 
ENDBRANCH  15  16
ENDBRANCH  13  15
ENDBRANCH   9  13
ENDBRANCH   4   7
BRANCH   6  22
ATOM     22  C   UNL     1       6.765  -4.511  22.014  0.00  0.00    +0.347 C 
ATOM     23  O   UNL     1       5.883  -4.336  21.181  0.00  0.00    -0.244 OA
BRANCH  22  24
ATOM     24  O   UNL     1       7.310  -5.742  22.189  0.00  0.00    -0.477 OA
ATOM     25  H   UNL     1       6.761  -6.353  22.715  0.00  0.00    +0.295 HD
ENDBRANCH  22  24
ENDBRANCH   6  22
BRANCH   1  26
ATOM     26  O   UNL     1       6.831  -4.399  24.994  0.00  0.00    -0.478 OA
BRANCH  26  27
ATOM     27  C   UNL     1       7.639  -5.002  25.993  0.00  0.00    +0.349 C 
BRANCH  27  28
ATOM     28  C   UNL     1       9.003  -5.403  25.466  0.00  0.00    +0.343 C 
ATOM     29  O   UNL     1       9.201  -5.893  24.363  0.00  0.00    -0.247 OA
BRANCH  28  30
ATOM     30  O   UNL     1      10.000  -5.168  26.350  0.00  0.00    -0.478 OA
ATOM     31  H   UNL     1      10.902  -5.199  25.978  0.00  0.00    +0.295 HD
ENDBRANCH  28  30
ENDBRANCH  27  28
ENDBRANCH  26  27
ENDBRANCH   1  26
TORSDOF 10
ENDMDL
MODEL 9
REMARK VINA RESULT:      -6.5      5.596      9.404
REMARK  Name = 
REMARK  10 active torsions:
REMARK  status: ('A' for Active; 'I' for Inactive)
REMARK    1  A    between atoms: O_1  and  C_2
REMARK    2  A    between atoms: C_2  and  C_4
REMARK    3  A    between atoms: C_4  and  O_5
REMARK    4  A    between atoms: O_5  and  C_6
REMARK    5  A    between atoms: C_7  and  C_26
REMARK    6  A    between atoms: C_9  and  C_12
REMARK    7  A    between atoms: C_16  and  N_17
REMARK    8  A    between atoms: N_17  and  C_18
REMARK    9  A    between atoms: C_18  and  C_19
REMARK   10  A    between atoms: C_26  and  O_27
REMARK                            x       y       z     vdW  Elec       q    Type
REMARK                         _______ _______ _______ _____ _____    ______ ____
ROOT
ATOM      1  C   UNL     1       8.586   4.112  24.280  0.00  0.00    +0.157 A 
ATOM      2  C   UNL     1       8.319   2.694  24.182  0.00  0.00    +0.075 A 
ATOM      3 BR   UNL     1       6.627   1.902  24.598  0.00  0.00    -0.045 Br
ATOM      4  C   UNL     1       9.407   1.952  23.738  0.00  0.00    +0.038 A 
ATOM      5  S   UNL     1      10.749   2.995  23.474  0.00  0.00    -0.077 S 
ATOM      6  C   UNL     1       9.894   4.407  23.926  0.00  0.00    +0.139 A 
ENDROOT
BRANCH   4   7
ATOM      7  C   UNL     1       9.570   0.497  23.477  0.00  0.00    -0.008 A 
ATOM      8  C   UNL     1       9.341  -0.461  24.485  0.00  0.00    +0.032 A 
ATOM      9  C   UNL     1       9.397  -1.845  24.249  0.00  0.00    +0.028 A 
ATOM     10  C   UNL     1       9.714  -2.270  22.958  0.00  0.00    +0.023 A 
ATOM     11  C   UNL     1      10.011  -1.352  21.953  0.00  0.00    +0.002 A 
ATOM     12  C   UNL     1       9.931   0.017  22.208  0.00  0.00    +0.009 A 
BRANCH   9  13
ATOM     13  N   UNL     1       9.007  -2.728  25.267  0.00  0.00    -0.340 N 
ATOM     14  H   UNL     1       9.365  -2.461  26.180  0.00  0.00    +0.146 HD
BRANCH  13  15
ATOM     15  C   UNL     1       9.180  -4.154  25.015  0.00  0.00    +0.136 C 
BRANCH  15  16
ATOM     16  C   UNL     1       7.851  -4.794  24.693  0.00  0.00    -0.030 A 
ATOM     17  C   UNL     1       7.507  -5.101  23.369  0.00  0.00    +0.005 A 
ATOM     18  C   UNL     1       6.266  -5.669  23.075  0.00  0.00    +0.000 A 
ATOM     19  C   UNL     1       5.360  -5.940  24.100  0.00  0.00    +0.000 A 
ATOM     20  C   UNL     1       5.696  -5.650  25.420  0.00  0.00    +0.000 A 
ATOM     21  C   UNL     1       6.938  -5.087  25.717  0.00  0.00    +0.005 A 
ENDBRANCH  15  16
ENDBRANCH  13  15
ENDBRANCH   9  13
ENDBRANCH   4   7
BRANCH   6  22
ATOM     22  C   UNL     1      10.616   5.674  23.865  0.00  0.00    +0.347 C 
ATOM     23  O   UNL     1      11.834   5.808  23.882  0.00  0.00    -0.244 OA
BRANCH  22  24
ATOM     24  O   UNL     1       9.808   6.760  23.777  0.00  0.00    -0.477 OA
ATOM     25  H   UNL     1       8.914   6.628  24.147  0.00  0.00    +0.295 HD
ENDBRANCH  22  24
ENDBRANCH   6  22
BRANCH   1  26
ATOM     26  O   UNL     1       7.797   5.149  24.687  0.00  0.00    -0.478 OA
BRANCH  26  27
ATOM     27  C   UNL     1       6.615   5.377  23.937  0.00  0.00    +0.349 C 
BRANCH  27  28
ATOM     28  C   UNL     1       6.884   5.460  22.447  0.00  0.00    +0.343 C 
ATOM     29  O   UNL     1       7.521   6.355  21.908  0.00  0.00    -0.247 OA
BRANCH  28  30
ATOM     30  O   UNL     1       6.340   4.433  21.754  0.00  0.00    -0.478 OA
ATOM     31  H   UNL     1       6.100   4.635  20.830  0.00  0.00    +0.295 HD
ENDBRANCH  28  30
ENDBRANCH  27  28
ENDBRANCH  26  27
ENDBRANCH   1  26
TORSDOF 10
ENDMDL
