MODEL 1
REMARK VINA RESULT:      -6.8      0.000      0.000
REMARK  Name = 
REMARK  4 active torsions:
REMARK  status: ('A' for Active; 'I' for Inactive)
REMARK    1  A    between atoms: C_6  and  C_8
REMARK    2  A    between atoms: C_15  and  N_16
REMARK    3  A    between atoms: N_16  and  C_17
REMARK    4  A    between atoms: C_17  and  C_18
REMARK                            x       y       z     vdW  Elec       q    Type
REMARK                         _______ _______ _______ _____ _____    ______ ____
ROOT
ATOM      1  C   UNL     1       7.770  -3.188  23.738  0.00  0.00    +0.085 A 
ATOM      2  C   UNL     1       8.688  -2.477  22.949  0.00  0.00    +0.127 A 
ATOM      3  C   UNL     1       9.367  -1.363  23.432  0.00  0.00    +0.305 A 
ATOM      4  N   UNL     1       9.116  -1.071  24.855  0.00  0.00    -0.038 N 
ATOM      5  N   UNL     1       9.627  -0.121  25.630  0.00  0.00    -0.162 N 
ATOM      6  H   UNL     1      10.311   0.571  25.329  0.00  0.00    +0.236 HD
ATOM      7  C   UNL     1       9.073  -0.260  26.916  0.00  0.00    +0.155 A 
ATOM      8  C   UNL     1       8.157  -1.373  26.931  0.00  0.00    +0.126 A 
ATOM      9  C   UNL     1       8.215  -1.868  25.581  0.00  0.00    +0.337 A 
ATOM     10  N   UNL     1       7.527  -2.915  25.044  0.00  0.00    -0.184 NA
ENDROOT
BRANCH   1  14
ATOM     11 BR   UNL     1       4.033  -6.968  24.477  0.00  0.00    -0.050 Br
ATOM     12  C   UNL     1       5.275  -6.048  23.388  0.00  0.00    +0.019 A 
ATOM     13  C   UNL     1       6.027  -5.005  23.935  0.00  0.00    +0.025 A 
ATOM     14  C   UNL     1       6.961  -4.290  23.158  0.00  0.00    +0.002 A 
ATOM     15  C   UNL     1       7.113  -4.682  21.815  0.00  0.00    +0.010 A 
ATOM     16  C   UNL     1       6.359  -5.730  21.271  0.00  0.00    +0.002 A 
ATOM     17  C   UNL     1       5.437  -6.414  22.057  0.00  0.00    +0.015 A 
ENDBRANCH   1  14
BRANCH   3  18
ATOM     18  N   UNL     1      10.244  -0.588  22.716  0.00  0.00    -0.285 N 
ATOM     19  H   UNL     1      11.056  -0.217  23.184  0.00  0.00    +0.152 HD
BRANCH  18  20
ATOM     20  C   UNL     1       9.776   0.259  21.622  0.00  0.00    +0.142 C 
BRANCH  20  21
ATOM     21  C   UNL     1       9.276   1.588  22.129  0.00  0.00    -0.027 A 
ATOM     22  C   UNL     1      10.057   2.309  23.041  0.00  0.00    +0.025 A 
ATOM     23  C   UNL     1       9.576   3.513  23.531  0.00  0.00    +0.111 A 
ATOM     24  N   UNL     1       8.384   4.036  23.185  0.00  0.00    -0.263 NA
ATOM     25  C   UNL     1       7.631   3.323  22.325  0.00  0.00    +0.111 A 
ATOM     26  C   UNL     1       8.023   2.109  21.784  0.00  0.00    +0.025 A 
ENDBRANCH  20  21
ENDBRANCH  18  20
ENDBRANCH   3  18
TORSDOF 4
ENDMDL
MODEL 2
REMARK VINA RESULT:      -6.8      2.948      6.965
REMARK  Name = 
REMARK  4 active torsions:
REMARK  status: ('A' for Active; 'I' for Inactive)
REMARK    1  A    between atoms: C_6  and  C_8
REMARK    2  A    between atoms: C_15  and  N_16
REMARK    3  A    between atoms: N_16  and  C_17
REMARK    4  A    between atoms: C_17  and  C_18
REMARK                            x       y       z     vdW  Elec       q    Type
REMARK                         _______ _______ _______ _____ _____    ______ ____
ROOT
ATOM      1  C   UNL     1       8.084  -1.895  23.427  0.00  0.00    +0.085 A 
ATOM      2  C   UNL     1       7.650  -2.962  22.624  0.00  0.00    +0.127 A 
ATOM      3  C   UNL     1       7.598  -4.268  23.101  0.00  0.00    +0.305 A 
ATOM      4  N   UNL     1       7.933  -4.404  24.531  0.00  0.00    -0.038 N 
ATOM      5  N   UNL     1       7.941  -5.486  25.302  0.00  0.00    -0.162 N 
ATOM      6  H   UNL     1       7.692  -6.424  24.992  0.00  0.00    +0.236 HD
ATOM      7  C   UNL     1       8.330  -5.098  26.597  0.00  0.00    +0.155 A 
ATOM      8  C   UNL     1       8.580  -3.678  26.622  0.00  0.00    +0.126 A 
ATOM      9  C   UNL     1       8.311  -3.270  25.268  0.00  0.00    +0.337 A 
ATOM     10  N   UNL     1       8.405  -2.018  24.738  0.00  0.00    -0.184 NA
ENDROOT
BRANCH   1  14
ATOM     11 BR   UNL     1       5.971   2.946  22.473  0.00  0.00    -0.050 Br
ATOM     12  C   UNL     1       7.388   1.698  22.363  0.00  0.00    +0.019 A 
ATOM     13  C   UNL     1       7.225   0.423  22.911  0.00  0.00    +0.025 A 
ATOM     14  C   UNL     1       8.257  -0.535  22.855  0.00  0.00    +0.002 A 
ATOM     15  C   UNL     1       9.450  -0.157  22.211  0.00  0.00    +0.010 A 
ATOM     16  C   UNL     1       9.609   1.121  21.659  0.00  0.00    +0.002 A 
ATOM     17  C   UNL     1       8.577   2.052  21.737  0.00  0.00    +0.015 A 
ENDBRANCH   1  14
BRANCH   3  18
ATOM     18  N   UNL     1       7.229  -5.371  22.374  0.00  0.00    -0.285 N 
ATOM     19  H   UNL     1       7.910  -5.801  21.767  0.00  0.00    +0.152 HD
BRANCH  18  20
ATOM     20  C   UNL     1       5.857  -5.532  21.900  0.00  0.00    +0.142 C 
BRANCH  20  21
ATOM     21  C   UNL     1       4.885  -5.633  23.047  0.00  0.00    -0.027 A 
ATOM     22  C   UNL     1       4.013  -4.566  23.302  0.00  0.00    +0.025 A 
ATOM     23  C   UNL     1       3.147  -4.650  24.380  0.00  0.00    +0.111 A 
ATOM     24  N   UNL     1       3.096  -5.705  25.215  0.00  0.00    -0.263 NA
ATOM     25  C   UNL     1       3.954  -6.716  24.976  0.00  0.00    +0.111 A 
ATOM     26  C   UNL     1       4.860  -6.723  23.926  0.00  0.00    +0.025 A 
ENDBRANCH  20  21
ENDBRANCH  18  20
ENDBRANCH   3  18
TORSDOF 4
ENDMDL
MODEL 3
REMARK VINA RESULT:      -6.8      3.968      8.264
REMARK  Name = 
REMARK  4 active torsions:
REMARK  status: ('A' for Active; 'I' for Inactive)
REMARK    1  A    between atoms: C_6  and  C_8
REMARK    2  A    between atoms: C_15  and  N_16
REMARK    3  A    between atoms: N_16  and  C_17
REMARK    4  A    between atoms: C_17  and  C_18
REMARK                            x       y       z     vdW  Elec       q    Type
REMARK                         _______ _______ _______ _____ _____    ______ ____
ROOT
ATOM      1  C   UNL     1       9.460   1.885  23.810  0.00  0.00    +0.085 A 
ATOM      2  C   UNL     1       8.787   1.301  24.895  0.00  0.00    +0.127 A 
ATOM      3  C   UNL     1       8.247   0.021  24.825  0.00  0.00    +0.305 A 
ATOM      4  N   UNL     1       8.538  -0.690  23.566  0.00  0.00    -0.038 N 
ATOM      5  N   UNL     1       8.214  -1.923  23.193  0.00  0.00    -0.162 N 
ATOM      6  H   UNL     1       7.698  -2.588  23.766  0.00  0.00    +0.236 HD
ATOM      7  C   UNL     1       8.722  -2.137  21.898  0.00  0.00    +0.155 A 
ATOM      8  C   UNL     1       9.404  -0.951  21.444  0.00  0.00    +0.126 A 
ATOM      9  C   UNL     1       9.262  -0.042  22.551  0.00  0.00    +0.337 A 
ATOM     10  N   UNL     1       9.718   1.238  22.646  0.00  0.00    -0.184 NA
ENDROOT
BRANCH   1  14
ATOM     11 BR   UNL     1      13.258   5.504  22.677  0.00  0.00    -0.050 Br
ATOM     12  C   UNL     1      11.578   5.027  23.403  0.00  0.00    +0.019 A 
ATOM     13  C   UNL     1      11.156   3.697  23.340  0.00  0.00    +0.025 A 
ATOM     14  C   UNL     1       9.909   3.299  23.865  0.00  0.00    +0.002 A 
ATOM     15  C   UNL     1       9.119   4.296  24.467  0.00  0.00    +0.010 A 
ATOM     16  C   UNL     1       9.547   5.628  24.531  0.00  0.00    +0.002 A 
ATOM     17  C   UNL     1      10.778   5.996  23.996  0.00  0.00    +0.015 A 
ENDBRANCH   1  14
BRANCH   3  18
ATOM     18  N   UNL     1       7.540  -0.605  25.820  0.00  0.00    -0.285 N 
ATOM     19  H   UNL     1       6.736  -0.137  26.211  0.00  0.00    +0.152 HD
BRANCH  18  20
ATOM     20  C   UNL     1       8.207  -1.489  26.772  0.00  0.00    +0.142 C 
BRANCH  20  21
ATOM     21  C   UNL     1       7.762  -2.919  26.602  0.00  0.00    -0.027 A 
ATOM     22  C   UNL     1       8.728  -3.920  26.433  0.00  0.00    +0.025 A 
ATOM     23  C   UNL     1       8.311  -5.228  26.242  0.00  0.00    +0.111 A 
ATOM     24  N   UNL     1       7.017  -5.600  26.199  0.00  0.00    -0.263 NA
ATOM     25  C   UNL     1       6.097  -4.627  26.339  0.00  0.00    +0.111 A 
ATOM     26  C   UNL     1       6.414  -3.291  26.532  0.00  0.00    +0.025 A 
ENDBRANCH  20  21
ENDBRANCH  18  20
ENDBRANCH   3  18
TORSDOF 4
ENDMDL
MODEL 4
REMARK VINA RESULT:      -6.8      3.287      7.319
REMARK  Name = 
REMARK  4 active torsions:
REMARK  status: ('A' for Active; 'I' for Inactive)
REMARK    1  A    between atoms: C_6  and  C_8
REMARK    2  A    between atoms: C_15  and  N_16
REMARK    3  A    between atoms: N_16  and  C_17
REMARK    4  A    between atoms: C_17  and  C_18
REMARK                            x       y       z     vdW  Elec       q    Type
REMARK                         _______ _______ _______ _____ _____    ______ ____
ROOT
ATOM      1  C   UNL     1       8.544  -2.119  23.486  0.00  0.00    +0.085 A 
ATOM      2  C   UNL     1       8.907  -3.100  24.422  0.00  0.00    +0.127 A 
ATOM      3  C   UNL     1       8.357  -4.378  24.400  0.00  0.00    +0.305 A 
ATOM      4  N   UNL     1       7.457  -4.630  23.260  0.00  0.00    -0.038 N 
ATOM      5  N   UNL     1       6.808  -5.738  22.918  0.00  0.00    -0.162 N 
ATOM      6  H   UNL     1       6.855  -6.620  23.426  0.00  0.00    +0.236 HD
ATOM      7  C   UNL     1       6.077  -5.474  21.746  0.00  0.00    +0.155 A 
ATOM      8  C   UNL     1       6.291  -4.108  21.339  0.00  0.00    +0.126 A 
ATOM      9  C   UNL     1       7.189  -3.599  22.343  0.00  0.00    +0.337 A 
ATOM     10  N   UNL     1       7.707  -2.344  22.443  0.00  0.00    -0.184 NA
ENDROOT
BRANCH   1  14
ATOM     11 BR   UNL     1       7.841   3.087  22.386  0.00  0.00    -0.050 Br
ATOM     12  C   UNL     1       8.824   1.668  23.159  0.00  0.00    +0.019 A 
ATOM     13  C   UNL     1       8.345   0.360  23.046  0.00  0.00    +0.025 A 
ATOM     14  C   UNL     1       9.044  -0.726  23.612  0.00  0.00    +0.002 A 
ATOM     15  C   UNL     1      10.250  -0.438  24.278  0.00  0.00    +0.010 A 
ATOM     16  C   UNL     1      10.728   0.875  24.385  0.00  0.00    +0.002 A 
ATOM     17  C   UNL     1      10.014   1.930  23.827  0.00  0.00    +0.015 A 
ENDBRANCH   1  14
BRANCH   3  18
ATOM     18  N   UNL     1       8.623  -5.379  25.300  0.00  0.00    -0.285 N 
ATOM     19  H   UNL     1       8.699  -6.326  24.962  0.00  0.00    +0.152 HD
BRANCH  18  20
ATOM     20  C   UNL     1       8.138  -5.298  26.676  0.00  0.00    +0.142 C 
BRANCH  20  21
ATOM     21  C   UNL     1       6.650  -5.066  26.724  0.00  0.00    -0.027 A 
ATOM     22  C   UNL     1       6.164  -3.846  27.212  0.00  0.00    +0.025 A 
ATOM     23  C   UNL     1       4.794  -3.653  27.288  0.00  0.00    +0.111 A 
ATOM     24  N   UNL     1       3.888  -4.581  26.924  0.00  0.00    -0.263 NA
ATOM     25  C   UNL     1       4.366  -5.759  26.477  0.00  0.00    +0.111 A 
ATOM     26  C   UNL     1       5.717  -6.048  26.369  0.00  0.00    +0.025 A 
ENDBRANCH  20  21
ENDBRANCH  18  20
ENDBRANCH   3  18
TORSDOF 4
ENDMDL
MODEL 5
REMARK VINA RESULT:      -6.6      3.469      7.636
REMARK  Name = 
REMARK  4 active torsions:
REMARK  status: ('A' for Active; 'I' for Inactive)
REMARK    1  A    between atoms: C_6  and  C_8
REMARK    2  A    between atoms: C_15  and  N_16
REMARK    3  A    between atoms: N_16  and  C_17
REMARK    4  A    between atoms: C_17  and  C_18
REMARK                            x       y       z     vdW  Elec       q    Type
REMARK                         _______ _______ _______ _____ _____    ______ ____
ROOT
ATOM      1  C   UNL     1       7.299  -2.034  22.999  0.00  0.00    +0.085 A 
ATOM      2  C   UNL     1       6.142  -2.048  23.795  0.00  0.00    +0.127 A 
ATOM      3  C   UNL     1       5.297  -3.152  23.847  0.00  0.00    +0.305 A 
ATOM      4  N   UNL     1       5.779  -4.320  23.085  0.00  0.00    -0.038 N 
ATOM      5  N   UNL     1       5.246  -5.530  22.958  0.00  0.00    -0.162 N 
ATOM      6  H   UNL     1       4.384  -5.836  23.406  0.00  0.00    +0.236 HD
ATOM      7  C   UNL     1       6.085  -6.293  22.126  0.00  0.00    +0.155 A 
ATOM      8  C   UNL     1       7.212  -5.495  21.712  0.00  0.00    +0.126 A 
ATOM      9  C   UNL     1       6.976  -4.228  22.354  0.00  0.00    +0.337 A 
ATOM     10  N   UNL     1       7.738  -3.101  22.287  0.00  0.00    -0.184 NA
ENDROOT
BRANCH   1  14
ATOM     11 BR   UNL     1       8.478   2.871  24.831  0.00  0.00    -0.050 Br
ATOM     12  C   UNL     1       8.718   1.451  23.605  0.00  0.00    +0.019 A 
ATOM     13  C   UNL     1       7.959   0.286  23.747  0.00  0.00    +0.025 A 
ATOM     14  C   UNL     1       8.110  -0.798  22.858  0.00  0.00    +0.002 A 
ATOM     15  C   UNL     1       9.043  -0.649  21.815  0.00  0.00    +0.010 A 
ATOM     16  C   UNL     1       9.798   0.522  21.674  0.00  0.00    +0.002 A 
ATOM     17  C   UNL     1       9.638   1.574  22.571  0.00  0.00    +0.015 A 
ENDBRANCH   1  14
BRANCH   3  18
ATOM     18  N   UNL     1       4.129  -3.233  24.562  0.00  0.00    -0.285 N 
ATOM     19  H   UNL     1       3.289  -2.843  24.163  0.00  0.00    +0.152 HD
BRANCH  18  20
ATOM     20  C   UNL     1       4.141  -3.197  26.022  0.00  0.00    +0.142 C 
BRANCH  20  21
ATOM     21  C   UNL     1       4.804  -4.421  26.599  0.00  0.00    -0.027 A 
ATOM     22  C   UNL     1       4.194  -5.672  26.432  0.00  0.00    +0.025 A 
ATOM     23  C   UNL     1       4.790  -6.789  26.995  0.00  0.00    +0.111 A 
ATOM     24  N   UNL     1       5.930  -6.745  27.712  0.00  0.00    -0.263 NA
ATOM     25  C   UNL     1       6.496  -5.534  27.886  0.00  0.00    +0.111 A 
ATOM     26  C   UNL     1       5.974  -4.360  27.365  0.00  0.00    +0.025 A 
ENDBRANCH  20  21
ENDBRANCH  18  20
ENDBRANCH   3  18
TORSDOF 4
ENDMDL
MODEL 6
REMARK VINA RESULT:      -6.6      3.749      8.206
REMARK  Name = 
REMARK  4 active torsions:
REMARK  status: ('A' for Active; 'I' for Inactive)
REMARK    1  A    between atoms: C_6  and  C_8
REMARK    2  A    between atoms: C_15  and  N_16
REMARK    3  A    between atoms: N_16  and  C_17
REMARK    4  A    between atoms: C_17  and  C_18
REMARK                            x       y       z     vdW  Elec       q    Type
REMARK                         _______ _______ _______ _____ _____    ______ ____
ROOT
ATOM      1  C   UNL     1      10.035   1.947  23.651  0.00  0.00    +0.085 A 
ATOM      2  C   UNL     1       9.875   1.217  24.839  0.00  0.00    +0.127 A 
ATOM      3  C   UNL     1       9.451  -0.109  24.837  0.00  0.00    +0.305 A 
ATOM      4  N   UNL     1       9.292  -0.692  23.492  0.00  0.00    -0.038 N 
ATOM      5  N   UNL     1       8.948  -1.924  23.135  0.00  0.00    -0.162 N 
ATOM      6  H   UNL     1       8.743  -2.682  23.785  0.00  0.00    +0.236 HD
ATOM      7  C   UNL     1       8.938  -1.987  21.730  0.00  0.00    +0.155 A 
ATOM      8  C   UNL     1       9.300  -0.702  21.185  0.00  0.00    +0.126 A 
ATOM      9  C   UNL     1       9.522   0.105  22.357  0.00  0.00    +0.337 A 
ATOM     10  N   UNL     1       9.878   1.418  22.412  0.00  0.00    -0.184 NA
ENDROOT
BRANCH   1  14
ATOM     11 BR   UNL     1       8.333   6.974  24.452  0.00  0.00    -0.050 Br
ATOM     12  C   UNL     1       9.686   5.724  24.021  0.00  0.00    +0.019 A 
ATOM     13  C   UNL     1       9.380   4.361  23.998  0.00  0.00    +0.025 A 
ATOM     14  C   UNL     1      10.359   3.396  23.687  0.00  0.00    +0.002 A 
ATOM     15  C   UNL     1      11.651   3.866  23.386  0.00  0.00    +0.010 A 
ATOM     16  C   UNL     1      11.954   5.234  23.407  0.00  0.00    +0.002 A 
ATOM     17  C   UNL     1      10.971   6.166  23.727  0.00  0.00    +0.015 A 
ENDBRANCH   1  14
BRANCH   3  18
ATOM     18  N   UNL     1       9.228  -0.879  25.950  0.00  0.00    -0.285 N 
ATOM     19  H   UNL     1       9.897  -1.597  26.185  0.00  0.00    +0.152 HD
BRANCH  18  20
ATOM     20  C   UNL     1       7.870  -1.198  26.381  0.00  0.00    +0.142 C 
BRANCH  20  21
ATOM     21  C   UNL     1       7.586  -2.674  26.264  0.00  0.00    -0.027 A 
ATOM     22  C   UNL     1       6.299  -3.097  25.904  0.00  0.00    +0.025 A 
ATOM     23  C   UNL     1       6.035  -4.455  25.832  0.00  0.00    +0.111 A 
ATOM     24  N   UNL     1       6.950  -5.407  26.099  0.00  0.00    -0.263 NA
ATOM     25  C   UNL     1       8.177  -4.991  26.467  0.00  0.00    +0.111 A 
ATOM     26  C   UNL     1       8.536  -3.656  26.570  0.00  0.00    +0.025 A 
ENDBRANCH  20  21
ENDBRANCH  18  20
ENDBRANCH   3  18
TORSDOF 4
ENDMDL
MODEL 7
REMARK VINA RESULT:      -6.5      1.261      1.573
REMARK  Name = 
REMARK  4 active torsions:
REMARK  status: ('A' for Active; 'I' for Inactive)
REMARK    1  A    between atoms: C_6  and  C_8
REMARK    2  A    between atoms: C_15  and  N_16
REMARK    3  A    between atoms: N_16  and  C_17
REMARK    4  A    between atoms: C_17  and  C_18
REMARK                            x       y       z     vdW  Elec       q    Type
REMARK                         _______ _______ _______ _____ _____    ______ ____
ROOT
ATOM      1  C   UNL     1       7.302  -2.819  24.371  0.00  0.00    +0.085 A 
ATOM      2  C   UNL     1       8.577  -2.289  24.115  0.00  0.00    +0.127 A 
ATOM      3  C   UNL     1       9.054  -1.163  24.780  0.00  0.00    +0.305 A 
ATOM      4  N   UNL     1       8.154  -0.656  25.833  0.00  0.00    -0.038 N 
ATOM      5  N   UNL     1       8.318   0.359  26.673  0.00  0.00    -0.162 N 
ATOM      6  H   UNL     1       9.143   0.956  26.712  0.00  0.00    +0.236 HD
ATOM      7  C   UNL     1       7.175   0.442  27.489  0.00  0.00    +0.155 A 
ATOM      8  C   UNL     1       6.243  -0.596  27.123  0.00  0.00    +0.126 A 
ATOM      9  C   UNL     1       6.915  -1.282  26.050  0.00  0.00    +0.337 A 
ATOM     10  N   UNL     1       6.467  -2.347  25.329  0.00  0.00    -0.184 NA
ENDROOT
BRANCH   1  14
ATOM     11 BR   UNL     1       3.155  -6.015  23.193  0.00  0.00    -0.050 Br
ATOM     12  C   UNL     1       4.944  -5.451  22.946  0.00  0.00    +0.019 A 
ATOM     13  C   UNL     1       5.441  -4.392  23.710  0.00  0.00    +0.025 A 
ATOM     14  C   UNL     1       6.766  -3.937  23.554  0.00  0.00    +0.002 A 
ATOM     15  C   UNL     1       7.568  -4.606  22.610  0.00  0.00    +0.010 A 
ATOM     16  C   UNL     1       7.067  -5.670  21.849  0.00  0.00    +0.002 A 
ATOM     17  C   UNL     1       5.751  -6.093  22.015  0.00  0.00    +0.015 A 
ENDBRANCH   1  14
BRANCH   3  18
ATOM     18  N   UNL     1      10.265  -0.557  24.560  0.00  0.00    -0.285 N 
ATOM     19  H   UNL     1      10.732  -0.114  25.336  0.00  0.00    +0.152 HD
BRANCH  18  20
ATOM     20  C   UNL     1      10.568   0.067  23.275  0.00  0.00    +0.142 C 
BRANCH  20  21
ATOM     21  C   UNL     1       9.624   1.203  22.977  0.00  0.00    -0.027 A 
ATOM     22  C   UNL     1       8.781   1.116  21.860  0.00  0.00    +0.025 A 
ATOM     23  C   UNL     1       7.940   2.178  21.571  0.00  0.00    +0.111 A 
ATOM     24  N   UNL     1       7.888   3.309  22.301  0.00  0.00    -0.263 NA
ATOM     25  C   UNL     1       8.719   3.392  23.358  0.00  0.00    +0.111 A 
ATOM     26  C   UNL     1       9.597   2.385  23.726  0.00  0.00    +0.025 A 
ENDBRANCH  20  21
ENDBRANCH  18  20
ENDBRANCH   3  18
TORSDOF 4
ENDMDL
MODEL 8
REMARK VINA RESULT:      -6.3      3.096      6.871
REMARK  Name = 
REMARK  4 active torsions:
REMARK  status: ('A' for Active; 'I' for Inactive)
REMARK    1  A    between atoms: C_6  and  C_8
REMARK    2  A    between atoms: C_15  and  N_16
REMARK    3  A    between atoms: N_16  and  C_17
REMARK    4  A    between atoms: C_17  and  C_18
REMARK                            x       y       z     vdW  Elec       q    Type
REMARK                         _______ _______ _______ _____ _____    ______ ____
ROOT
ATOM      1  C   UNL     1       8.475  -1.208  24.735  0.00  0.00    +0.085 A 
ATOM      2  C   UNL     1       7.130  -1.417  25.081  0.00  0.00    +0.127 A 
ATOM      3  C   UNL     1       6.636  -2.682  25.387  0.00  0.00    +0.305 A 
ATOM      4  N   UNL     1       7.662  -3.741  25.419  0.00  0.00    -0.038 N 
ATOM      5  N   UNL     1       7.543  -5.030  25.713  0.00  0.00    -0.162 N 
ATOM      6  H   UNL     1       6.674  -5.488  25.983  0.00  0.00    +0.236 HD
ATOM      7  C   UNL     1       8.813  -5.625  25.603  0.00  0.00    +0.155 A 
ATOM      8  C   UNL     1       9.781  -4.629  25.212  0.00  0.00    +0.126 A 
ATOM      9  C   UNL     1       8.996  -3.428  25.105  0.00  0.00    +0.337 A 
ATOM     10  N   UNL     1       9.418  -2.182  24.751  0.00  0.00    -0.184 NA
ENDROOT
BRANCH   1  14
ATOM     11 BR   UNL     1       7.324   3.451  22.333  0.00  0.00    -0.050 Br
ATOM     12  C   UNL     1       8.530   2.279  23.198  0.00  0.00    +0.019 A 
ATOM     13  C   UNL     1       8.081   1.028  23.630  0.00  0.00    +0.025 A 
ATOM     14  C   UNL     1       8.945   0.126  24.283  0.00  0.00    +0.002 A 
ATOM     15  C   UNL     1      10.280   0.533  24.465  0.00  0.00    +0.010 A 
ATOM     16  C   UNL     1      10.727   1.786  24.026  0.00  0.00    +0.002 A 
ATOM     17  C   UNL     1       9.851   2.662  23.393  0.00  0.00    +0.015 A 
ENDBRANCH   1  14
BRANCH   3  18
ATOM     18  N   UNL     1       5.332  -2.979  25.692  0.00  0.00    -0.285 N 
ATOM     19  H   UNL     1       5.140  -3.531  26.514  0.00  0.00    +0.152 HD
BRANCH  18  20
ATOM     20  C   UNL     1       4.339  -3.159  24.636  0.00  0.00    +0.142 C 
BRANCH  20  21
ATOM     21  C   UNL     1       4.918  -3.887  23.451  0.00  0.00    -0.027 A 
ATOM     22  C   UNL     1       5.461  -3.147  22.392  0.00  0.00    +0.025 A 
ATOM     23  C   UNL     1       5.960  -3.822  21.289  0.00  0.00    +0.111 A 
ATOM     24  N   UNL     1       5.946  -5.163  21.167  0.00  0.00    -0.263 NA
ATOM     25  C   UNL     1       5.401  -5.864  22.180  0.00  0.00    +0.111 A 
ATOM     26  C   UNL     1       4.874  -5.281  23.321  0.00  0.00    +0.025 A 
ENDBRANCH  20  21
ENDBRANCH  18  20
ENDBRANCH   3  18
TORSDOF 4
ENDMDL
MODEL 9
REMARK VINA RESULT:      -6.2      2.342      2.924
REMARK  Name = 
REMARK  4 active torsions:
REMARK  status: ('A' for Active; 'I' for Inactive)
REMARK    1  A    between atoms: C_6  and  C_8
REMARK    2  A    between atoms: C_15  and  N_16
REMARK    3  A    between atoms: N_16  and  C_17
REMARK    4  A    between atoms: C_17  and  C_18
REMARK                            x       y       z     vdW  Elec       q    Type
REMARK                         _______ _______ _______ _____ _____    ______ ____
ROOT
ATOM      1  C   UNL     1       5.907  -3.270  24.546  0.00  0.00    +0.085 A 
ATOM      2  C   UNL     1       6.830  -3.128  23.497  0.00  0.00    +0.127 A 
ATOM      3  C   UNL     1       7.209  -1.879  23.014  0.00  0.00    +0.305 A 
ATOM      4  N   UNL     1       6.643  -0.742  23.765  0.00  0.00    -0.038 N 
ATOM      5  N   UNL     1       6.830   0.562  23.600  0.00  0.00    -0.162 N 
ATOM      6  H   UNL     1       7.436   0.978  22.894  0.00  0.00    +0.236 HD
ATOM      7  C   UNL     1       6.069   1.241  24.569  0.00  0.00    +0.155 A 
ATOM      8  C   UNL     1       5.364   0.285  25.386  0.00  0.00    +0.126 A 
ATOM      9  C   UNL     1       5.763  -0.983  24.834  0.00  0.00    +0.337 A 
ATOM     10  N   UNL     1       5.375  -2.227  25.230  0.00  0.00    -0.184 NA
ENDROOT
BRANCH   1  14
ATOM     11 BR   UNL     1       5.070  -6.807  28.495  0.00  0.00    -0.050 Br
ATOM     12  C   UNL     1       5.004  -6.300  26.674  0.00  0.00    +0.019 A 
ATOM     13  C   UNL     1       5.455  -5.033  26.297  0.00  0.00    +0.025 A 
ATOM     14  C   UNL     1       5.419  -4.612  24.952  0.00  0.00    +0.002 A 
ATOM     15  C   UNL     1       4.925  -5.530  24.006  0.00  0.00    +0.010 A 
ATOM     16  C   UNL     1       4.476  -6.801  24.387  0.00  0.00    +0.002 A 
ATOM     17  C   UNL     1       4.513  -7.188  25.723  0.00  0.00    +0.015 A 
ENDBRANCH   1  14
BRANCH   3  18
ATOM     18  N   UNL     1       8.068  -1.653  21.969  0.00  0.00    -0.285 N 
ATOM     19  H   UNL     1       7.815  -1.989  21.053  0.00  0.00    +0.152 HD
BRANCH  18  20
ATOM     20  C   UNL     1       9.512  -1.604  22.183  0.00  0.00    +0.142 C 
BRANCH  20  21
ATOM     21  C   UNL     1       9.958  -0.238  22.635  0.00  0.00    -0.027 A 
ATOM     22  C   UNL     1      10.447  -0.074  23.938  0.00  0.00    +0.025 A 
ATOM     23  C   UNL     1      10.822   1.192  24.360  0.00  0.00    +0.111 A 
ATOM     24  N   UNL     1      10.735   2.291  23.587  0.00  0.00    -0.263 NA
ATOM     25  C   UNL     1      10.242   2.127  22.344  0.00  0.00    +0.111 A 
ATOM     26  C   UNL     1       9.838   0.904  21.833  0.00  0.00    +0.025 A 
ENDBRANCH  20  21
ENDBRANCH  18  20
ENDBRANCH   3  18
TORSDOF 4
ENDMDL
