MODEL 1
REMARK VINA RESULT:      -6.3      0.000      0.000
REMARK  Name = 
REMARK  6 active torsions:
REMARK  status: ('A' for Active; 'I' for Inactive)
REMARK    1  A    between atoms: C_2  and  C_3
REMARK    2  A    between atoms: C_2  and  C_4
REMARK    3  A    between atoms: C_2  and  C_7
REMARK    4  A    between atoms: C_4  and  O_5
REMARK    5  A    between atoms: C_12  and  O_13
REMARK    6  A    between atoms: O_13  and  C_14
REMARK                            x       y       z     vdW  Elec       q    Type
REMARK                         _______ _______ _______ _____ _____    ______ ____
ROOT
ATOM      1  C   UNL     1       8.831  -2.970  24.290  0.00  0.00    -0.033 A 
ATOM      2  C   UNL     1       9.193  -2.256  23.132  0.00  0.00    +0.013 A 
ATOM      3  C   UNL     1       9.432  -0.870  23.156  0.00  0.00    -0.017 A 
ATOM      4  C   UNL     1       9.335  -0.173  24.376  0.00  0.00    -0.014 A 
ATOM      5  C   UNL     1       9.559   1.214  24.392  0.00  0.00    +0.054 A 
ATOM      6  C   UNL     1       9.872   1.913  23.222  0.00  0.00    +0.121 A 
ATOM      7  C   UNL     1       9.966   1.219  22.018  0.00  0.00    +0.046 A 
ATOM      8  C   UNL     1       9.006  -0.887  25.539  0.00  0.00    +0.009 A 
ATOM      9  C   UNL     1       9.751  -0.162  21.987  0.00  0.00    +0.012 A 
ATOM     10  C   UNL     1       8.752  -2.264  25.497  0.00  0.00    +0.005 A 
ENDROOT
BRANCH   1  11
ATOM     11  C   UNL     1       8.517  -4.456  24.170  0.00  0.00    +0.124 C 
ATOM     12  C   UNL     1       7.022  -4.698  23.923  0.00  0.00    +0.024 C 
BRANCH  11  13
ATOM     13  C   UNL     1       8.968  -5.306  25.354  0.00  0.00    +0.312 C 
ATOM     14  O   UNL     1       8.238  -5.720  26.242  0.00  0.00    -0.250 OA
BRANCH  13  15
ATOM     15  O   UNL     1      10.299  -5.566  25.353  0.00  0.00    -0.480 OA
ATOM     16  H   UNL     1      10.827  -4.923  25.863  0.00  0.00    +0.295 HD
ENDBRANCH  13  15
ENDBRANCH  11  13
ENDBRANCH   1  11
BRANCH   6  17
ATOM     17  O   UNL     1      10.059   3.260  23.386  0.00  0.00    -0.495 OA
ATOM     18  C   UNL     1      11.402   3.731  23.375  0.00  0.00    +0.277 C 
ENDBRANCH   6  17
TORSDOF 4
ENDMDL
MODEL 2
REMARK VINA RESULT:      -6.1      0.902      1.795
REMARK  Name = 
REMARK  6 active torsions:
REMARK  status: ('A' for Active; 'I' for Inactive)
REMARK    1  A    between atoms: C_2  and  C_3
REMARK    2  A    between atoms: C_2  and  C_4
REMARK    3  A    between atoms: C_2  and  C_7
REMARK    4  A    between atoms: C_4  and  O_5
REMARK    5  A    between atoms: C_12  and  O_13
REMARK    6  A    between atoms: O_13  and  C_14
REMARK                            x       y       z     vdW  Elec       q    Type
REMARK                         _______ _______ _______ _____ _____    ______ ____
ROOT
ATOM      1  C   UNL     1       8.422  -3.334  24.006  0.00  0.00    -0.033 A 
ATOM      2  C   UNL     1       9.059  -2.357  24.796  0.00  0.00    +0.013 A 
ATOM      3  C   UNL     1       9.432  -1.105  24.276  0.00  0.00    -0.017 A 
ATOM      4  C   UNL     1       9.141  -0.801  22.932  0.00  0.00    -0.014 A 
ATOM      5  C   UNL     1       9.530   0.445  22.412  0.00  0.00    +0.054 A 
ATOM      6  C   UNL     1      10.203   1.384  23.202  0.00  0.00    +0.121 A 
ATOM      7  C   UNL     1      10.489   1.077  24.530  0.00  0.00    +0.046 A 
ATOM      8  C   UNL     1       8.478  -1.759  22.149  0.00  0.00    +0.009 A 
ATOM      9  C   UNL     1      10.104  -0.156  25.062  0.00  0.00    +0.012 A 
ATOM     10  C   UNL     1       8.128  -3.010  22.676  0.00  0.00    +0.005 A 
ENDROOT
BRANCH   1  11
ATOM     11  C   UNL     1       8.116  -4.693  24.622  0.00  0.00    +0.124 C 
ATOM     12  C   UNL     1       6.628  -4.832  24.969  0.00  0.00    +0.024 C 
BRANCH  11  13
ATOM     13  C   UNL     1       8.946  -5.043  25.853  0.00  0.00    +0.312 C 
ATOM     14  O   UNL     1       8.644  -4.773  27.007  0.00  0.00    -0.250 OA
BRANCH  13  15
ATOM     15  O   UNL     1      10.100  -5.690  25.557  0.00  0.00    -0.480 OA
ATOM     16  H   UNL     1       9.977  -6.488  25.009  0.00  0.00    +0.295 HD
ENDBRANCH  13  15
ENDBRANCH  11  13
ENDBRANCH   1  11
BRANCH   6  17
ATOM     17  O   UNL     1      10.524   2.551  22.562  0.00  0.00    -0.495 OA
ATOM     18  C   UNL     1      11.132   3.571  23.347  0.00  0.00    +0.277 C 
ENDBRANCH   6  17
TORSDOF 4
ENDMDL
MODEL 3
REMARK VINA RESULT:      -6.1      1.766      6.406
REMARK  Name = 
REMARK  6 active torsions:
REMARK  status: ('A' for Active; 'I' for Inactive)
REMARK    1  A    between atoms: C_2  and  C_3
REMARK    2  A    between atoms: C_2  and  C_4
REMARK    3  A    between atoms: C_2  and  C_7
REMARK    4  A    between atoms: C_4  and  O_5
REMARK    5  A    between atoms: C_12  and  O_13
REMARK    6  A    between atoms: O_13  and  C_14
REMARK                            x       y       z     vdW  Elec       q    Type
REMARK                         _______ _______ _______ _____ _____    ______ ____
ROOT
ATOM      1  C   UNL     1       9.615  -0.650  24.131  0.00  0.00    -0.033 A 
ATOM      2  C   UNL     1       9.902  -2.023  24.006  0.00  0.00    +0.013 A 
ATOM      3  C   UNL     1       9.264  -2.993  24.799  0.00  0.00    -0.017 A 
ATOM      4  C   UNL     1       8.288  -2.590  25.731  0.00  0.00    -0.014 A 
ATOM      5  C   UNL     1       7.664  -3.561  26.533  0.00  0.00    +0.054 A 
ATOM      6  C   UNL     1       7.997  -4.916  26.424  0.00  0.00    +0.121 A 
ATOM      7  C   UNL     1       8.964  -5.308  25.502  0.00  0.00    +0.046 A 
ATOM      8  C   UNL     1       7.975  -1.226  25.837  0.00  0.00    +0.009 A 
ATOM      9  C   UNL     1       9.589  -4.354  24.694  0.00  0.00    +0.012 A 
ATOM     10  C   UNL     1       8.632  -0.268  25.053  0.00  0.00    +0.005 A 
ENDROOT
BRANCH   1  11
ATOM     11  C   UNL     1      10.401   0.346  23.288  0.00  0.00    +0.124 C 
ATOM     12  C   UNL     1      10.616   1.670  24.033  0.00  0.00    +0.024 C 
BRANCH  11  13
ATOM     13  C   UNL     1       9.800   0.642  21.917  0.00  0.00    +0.312 C 
ATOM     14  O   UNL     1       9.275  -0.184  21.185  0.00  0.00    -0.250 OA
BRANCH  13  15
ATOM     15  O   UNL     1       9.911   1.943  21.550  0.00  0.00    -0.480 OA
ATOM     16  H   UNL     1       9.343   2.191  20.796  0.00  0.00    +0.295 HD
ENDBRANCH  13  15
ENDBRANCH  11  13
ENDBRANCH   1  11
BRANCH   6  17
ATOM     17  O   UNL     1       7.314  -5.747  27.271  0.00  0.00    -0.495 OA
ATOM     18  C   UNL     1       5.910  -5.863  27.067  0.00  0.00    +0.277 C 
ENDBRANCH   6  17
TORSDOF 4
ENDMDL
MODEL 4
REMARK VINA RESULT:      -5.8      2.112      2.768
REMARK  Name = 
REMARK  6 active torsions:
REMARK  status: ('A' for Active; 'I' for Inactive)
REMARK    1  A    between atoms: C_2  and  C_3
REMARK    2  A    between atoms: C_2  and  C_4
REMARK    3  A    between atoms: C_2  and  C_7
REMARK    4  A    between atoms: C_4  and  O_5
REMARK    5  A    between atoms: C_12  and  O_13
REMARK    6  A    between atoms: O_13  and  C_14
REMARK                            x       y       z     vdW  Elec       q    Type
REMARK                         _______ _______ _______ _____ _____    ______ ____
ROOT
ATOM      1  C   UNL     1       7.609  -4.144  23.435  0.00  0.00    -0.033 A 
ATOM      2  C   UNL     1       8.014  -3.198  22.473  0.00  0.00    +0.013 A 
ATOM      3  C   UNL     1       8.759  -2.057  22.818  0.00  0.00    -0.017 A 
ATOM      4  C   UNL     1       9.139  -1.860  24.160  0.00  0.00    -0.014 A 
ATOM      5  C   UNL     1       9.871  -0.710  24.503  0.00  0.00    +0.054 A 
ATOM      6  C   UNL     1      10.223   0.242  23.540  0.00  0.00    +0.121 A 
ATOM      7  C   UNL     1       9.843   0.042  22.215  0.00  0.00    +0.046 A 
ATOM      8  C   UNL     1       8.766  -2.817  25.117  0.00  0.00    +0.009 A 
ATOM      9  C   UNL     1       9.120  -1.099  21.858  0.00  0.00    +0.012 A 
ATOM     10  C   UNL     1       8.008  -3.940  24.762  0.00  0.00    +0.005 A 
ENDROOT
BRANCH   1  11
ATOM     11  C   UNL     1       6.741  -5.316  22.994  0.00  0.00    +0.124 C 
ATOM     12  C   UNL     1       7.076  -5.760  21.565  0.00  0.00    +0.024 C 
BRANCH  11  13
ATOM     13  C   UNL     1       5.238  -5.076  23.099  0.00  0.00    +0.312 C 
ATOM     14  O   UNL     1       4.607  -4.259  22.444  0.00  0.00    -0.250 OA
BRANCH  13  15
ATOM     15  O   UNL     1       4.632  -5.862  24.023  0.00  0.00    -0.480 OA
ATOM     16  H   UNL     1       3.667  -5.944  23.901  0.00  0.00    +0.295 HD
ENDBRANCH  13  15
ENDBRANCH  11  13
ENDBRANCH   1  11
BRANCH   6  17
ATOM     17  O   UNL     1      10.930   1.312  24.018  0.00  0.00    -0.495 OA
ATOM     18  C   UNL     1      10.596   2.592  23.493  0.00  0.00    +0.277 C 
ENDBRANCH   6  17
TORSDOF 4
ENDMDL
MODEL 5
REMARK VINA RESULT:      -5.8      2.507      6.965
REMARK  Name = 
REMARK  6 active torsions:
REMARK  status: ('A' for Active; 'I' for Inactive)
REMARK    1  A    between atoms: C_2  and  C_3
REMARK    2  A    between atoms: C_2  and  C_4
REMARK    3  A    between atoms: C_2  and  C_7
REMARK    4  A    between atoms: C_4  and  O_5
REMARK    5  A    between atoms: C_12  and  O_13
REMARK    6  A    between atoms: O_13  and  C_14
REMARK                            x       y       z     vdW  Elec       q    Type
REMARK                         _______ _______ _______ _____ _____    ______ ____
ROOT
ATOM      1  C   UNL     1       8.623   3.414  23.574  0.00  0.00    -0.033 A 
ATOM      2  C   UNL     1       8.971   2.552  22.516  0.00  0.00    +0.013 A 
ATOM      3  C   UNL     1       9.250   1.189  22.726  0.00  0.00    -0.017 A 
ATOM      4  C   UNL     1       9.155   0.658  24.027  0.00  0.00    -0.014 A 
ATOM      5  C   UNL     1       9.450  -0.701  24.234  0.00  0.00    +0.054 A 
ATOM      6  C   UNL     1       9.839  -1.530  23.176  0.00  0.00    +0.121 A 
ATOM      7  C   UNL     1       9.932  -0.998  21.893  0.00  0.00    +0.046 A 
ATOM      8  C   UNL     1       8.777   1.505  25.079  0.00  0.00    +0.009 A 
ATOM      9  C   UNL     1       9.637   0.350  21.670  0.00  0.00    +0.012 A 
ATOM     10  C   UNL     1       8.520   2.865  24.859  0.00  0.00    +0.005 A 
ENDROOT
BRANCH   1  11
ATOM     11  C   UNL     1       8.407   4.892  23.277  0.00  0.00    +0.124 C 
ATOM     12  C   UNL     1       8.259   5.710  24.566  0.00  0.00    +0.024 C 
BRANCH  11  13
ATOM     13  C   UNL     1       7.228   5.198  22.358  0.00  0.00    +0.312 C 
ATOM     14  O   UNL     1       6.110   4.716  22.464  0.00  0.00    -0.250 OA
BRANCH  13  15
ATOM     15  O   UNL     1       7.533   6.070  21.365  0.00  0.00    -0.480 OA
ATOM     16  H   UNL     1       7.993   5.660  20.607  0.00  0.00    +0.295 HD
ENDBRANCH  13  15
ENDBRANCH  11  13
ENDBRANCH   1  11
BRANCH   6  17
ATOM     17  O   UNL     1      10.100  -2.828  23.527  0.00  0.00    -0.495 OA
ATOM     18  C   UNL     1       9.335  -3.374  24.595  0.00  0.00    +0.277 C 
ENDBRANCH   6  17
TORSDOF 4
ENDMDL
MODEL 6
REMARK VINA RESULT:      -5.7      1.745      6.585
REMARK  Name = 
REMARK  6 active torsions:
REMARK  status: ('A' for Active; 'I' for Inactive)
REMARK    1  A    between atoms: C_2  and  C_3
REMARK    2  A    between atoms: C_2  and  C_4
REMARK    3  A    between atoms: C_2  and  C_7
REMARK    4  A    between atoms: C_4  and  O_5
REMARK    5  A    between atoms: C_12  and  O_13
REMARK    6  A    between atoms: O_13  and  C_14
REMARK                            x       y       z     vdW  Elec       q    Type
REMARK                         _______ _______ _______ _____ _____    ______ ____
ROOT
ATOM      1  C   UNL     1       9.346  -0.580  23.292  0.00  0.00    -0.033 A 
ATOM      2  C   UNL     1       9.704  -1.781  23.935  0.00  0.00    +0.013 A 
ATOM      3  C   UNL     1       8.792  -2.839  24.099  0.00  0.00    -0.017 A 
ATOM      4  C   UNL     1       7.486  -2.710  23.586  0.00  0.00    -0.014 A 
ATOM      5  C   UNL     1       6.573  -3.764  23.767  0.00  0.00    +0.054 A 
ATOM      6  C   UNL     1       6.935  -4.930  24.449  0.00  0.00    +0.121 A 
ATOM      7  C   UNL     1       8.227  -5.051  24.955  0.00  0.00    +0.046 A 
ATOM      8  C   UNL     1       7.135  -1.528  22.917  0.00  0.00    +0.009 A 
ATOM      9  C   UNL     1       9.148  -4.014  24.778  0.00  0.00    +0.012 A 
ATOM     10  C   UNL     1       8.049  -0.475  22.776  0.00  0.00    +0.005 A 
ENDROOT
BRANCH   1  11
ATOM     11  C   UNL     1      10.369   0.547  23.218  0.00  0.00    +0.124 C 
ATOM     12  C   UNL     1      11.090   0.743  24.557  0.00  0.00    +0.024 C 
BRANCH  11  13
ATOM     13  C   UNL     1       9.812   1.890  22.754  0.00  0.00    +0.312 C 
ATOM     14  O   UNL     1       9.223   2.692  23.464  0.00  0.00    -0.250 OA
BRANCH  13  15
ATOM     15  O   UNL     1      10.015   2.128  21.434  0.00  0.00    -0.480 OA
ATOM     16  H   UNL     1      10.954   2.104  21.168  0.00  0.00    +0.295 HD
ENDBRANCH  13  15
ENDBRANCH  11  13
ENDBRANCH   1  11
BRANCH   6  17
ATOM     17  O   UNL     1       5.943  -5.868  24.554  0.00  0.00    -0.495 OA
ATOM     18  C   UNL     1       5.144  -6.094  23.398  0.00  0.00    +0.277 C 
ENDBRANCH   6  17
TORSDOF 4
ENDMDL
MODEL 7
REMARK VINA RESULT:      -5.6      1.330      1.729
REMARK  Name = 
REMARK  6 active torsions:
REMARK  status: ('A' for Active; 'I' for Inactive)
REMARK    1  A    between atoms: C_2  and  C_3
REMARK    2  A    between atoms: C_2  and  C_4
REMARK    3  A    between atoms: C_2  and  C_7
REMARK    4  A    between atoms: C_4  and  O_5
REMARK    5  A    between atoms: C_12  and  O_13
REMARK    6  A    between atoms: O_13  and  C_14
REMARK                            x       y       z     vdW  Elec       q    Type
REMARK                         _______ _______ _______ _____ _____    ______ ____
ROOT
ATOM      1  C   UNL     1       8.810  -2.712  25.098  0.00  0.00    -0.033 A 
ATOM      2  C   UNL     1       9.232  -2.194  23.858  0.00  0.00    +0.013 A 
ATOM      3  C   UNL     1       9.502  -0.827  23.675  0.00  0.00    -0.017 A 
ATOM      4  C   UNL     1       9.374   0.055  24.766  0.00  0.00    -0.014 A 
ATOM      5  C   UNL     1       9.629   1.424  24.573  0.00  0.00    +0.054 A 
ATOM      6  C   UNL     1      10.003   1.925  23.322  0.00  0.00    +0.121 A 
ATOM      7  C   UNL     1      10.128   1.048  22.247  0.00  0.00    +0.046 A 
ATOM      8  C   UNL     1       8.984  -0.461  26.011  0.00  0.00    +0.009 A 
ATOM      9  C   UNL     1       9.882  -0.316  22.424  0.00  0.00    +0.012 A 
ATOM     10  C   UNL     1       8.701  -1.823  26.175  0.00  0.00    +0.005 A 
ENDROOT
BRANCH   1  11
ATOM     11  C   UNL     1       8.467  -4.193  25.198  0.00  0.00    +0.124 C 
ATOM     12  C   UNL     1       9.718  -5.047  25.435  0.00  0.00    +0.024 C 
BRANCH  11  13
ATOM     13  C   UNL     1       7.700  -4.757  24.006  0.00  0.00    +0.312 C 
ATOM     14  O   UNL     1       8.157  -5.528  23.175  0.00  0.00    -0.250 OA
BRANCH  13  15
ATOM     15  O   UNL     1       6.423  -4.306  23.926  0.00  0.00    -0.480 OA
ATOM     16  H   UNL     1       6.350  -3.374  23.646  0.00  0.00    +0.295 HD
ENDBRANCH  13  15
ENDBRANCH  11  13
ENDBRANCH   1  11
BRANCH   6  17
ATOM     17  O   UNL     1      10.214   3.277  23.281  0.00  0.00    -0.495 OA
ATOM     18  C   UNL     1       9.311   4.093  24.018  0.00  0.00    +0.277 C 
ENDBRANCH   6  17
TORSDOF 4
ENDMDL
MODEL 8
REMARK VINA RESULT:      -5.6      2.373      2.659
REMARK  Name = 
REMARK  6 active torsions:
REMARK  status: ('A' for Active; 'I' for Inactive)
REMARK    1  A    between atoms: C_2  and  C_3
REMARK    2  A    between atoms: C_2  and  C_4
REMARK    3  A    between atoms: C_2  and  C_7
REMARK    4  A    between atoms: C_4  and  O_5
REMARK    5  A    between atoms: C_12  and  O_13
REMARK    6  A    between atoms: O_13  and  C_14
REMARK                            x       y       z     vdW  Elec       q    Type
REMARK                         _______ _______ _______ _____ _____    ______ ____
ROOT
ATOM      1  C   UNL     1       7.701  -3.025  23.424  0.00  0.00    -0.033 A 
ATOM      2  C   UNL     1       8.137  -2.160  22.402  0.00  0.00    +0.013 A 
ATOM      3  C   UNL     1       8.856  -0.983  22.677  0.00  0.00    -0.017 A 
ATOM      4  C   UNL     1       9.176  -0.666  24.012  0.00  0.00    -0.014 A 
ATOM      5  C   UNL     1       9.880   0.520  24.284  0.00  0.00    +0.054 A 
ATOM      6  C   UNL     1      10.264   1.389  23.257  0.00  0.00    +0.121 A 
ATOM      7  C   UNL     1       9.944   1.070  21.939  0.00  0.00    +0.046 A 
ATOM      8  C   UNL     1       8.771  -1.541  25.032  0.00  0.00    +0.009 A 
ATOM      9  C   UNL     1       9.249  -0.108  21.653  0.00  0.00    +0.012 A 
ATOM     10  C   UNL     1       8.040  -2.701  24.744  0.00  0.00    +0.005 A 
ENDROOT
BRANCH   1  11
ATOM     11  C   UNL     1       6.865  -4.242  23.051  0.00  0.00    +0.124 C 
ATOM     12  C   UNL     1       7.735  -5.493  22.880  0.00  0.00    +0.024 C 
BRANCH  11  13
ATOM     13  C   UNL     1       5.997  -4.069  21.808  0.00  0.00    +0.312 C 
ATOM     14  O   UNL     1       6.003  -4.809  20.836  0.00  0.00    -0.250 OA
BRANCH  13  15
ATOM     15  O   UNL     1       5.196  -2.976  21.861  0.00  0.00    -0.480 OA
ATOM     16  H   UNL     1       5.440  -2.340  22.560  0.00  0.00    +0.295 HD
ENDBRANCH  13  15
ENDBRANCH  11  13
ENDBRANCH   1  11
BRANCH   6  17
ATOM     17  O   UNL     1      10.939   2.507  23.669  0.00  0.00    -0.495 OA
ATOM     18  C   UNL     1      10.224   3.737  23.646  0.00  0.00    +0.277 C 
ENDBRANCH   6  17
TORSDOF 4
ENDMDL
MODEL 9
REMARK VINA RESULT:      -5.6      2.655      4.239
REMARK  Name = 
REMARK  6 active torsions:
REMARK  status: ('A' for Active; 'I' for Inactive)
REMARK    1  A    between atoms: C_2  and  C_3
REMARK    2  A    between atoms: C_2  and  C_4
REMARK    3  A    between atoms: C_2  and  C_7
REMARK    4  A    between atoms: C_4  and  O_5
REMARK    5  A    between atoms: C_12  and  O_13
REMARK    6  A    between atoms: O_13  and  C_14
REMARK                            x       y       z     vdW  Elec       q    Type
REMARK                         _______ _______ _______ _____ _____    ______ ____
ROOT
ATOM      1  C   UNL     1       6.528  -5.517  25.870  0.00  0.00    -0.033 A 
ATOM      2  C   UNL     1       6.352  -4.876  24.629  0.00  0.00    +0.013 A 
ATOM      3  C   UNL     1       7.326  -4.017  24.088  0.00  0.00    -0.017 A 
ATOM      4  C   UNL     1       8.528  -3.807  24.792  0.00  0.00    -0.014 A 
ATOM      5  C   UNL     1       9.492  -2.936  24.255  0.00  0.00    +0.054 A 
ATOM      6  C   UNL     1       9.277  -2.273  23.042  0.00  0.00    +0.121 A 
ATOM      7  C   UNL     1       8.086  -2.484  22.352  0.00  0.00    +0.046 A 
ATOM      8  C   UNL     1       8.722  -4.469  26.014  0.00  0.00    +0.009 A 
ATOM      9  C   UNL     1       7.120  -3.351  22.870  0.00  0.00    +0.012 A 
ATOM     10  C   UNL     1       7.735  -5.308  26.549  0.00  0.00    +0.005 A 
ENDROOT
BRANCH   1  11
ATOM     11  C   UNL     1       5.396  -6.374  26.423  0.00  0.00    +0.124 C 
ATOM     12  C   UNL     1       4.041  -5.969  25.829  0.00  0.00    +0.024 C 
BRANCH  11  13
ATOM     13  C   UNL     1       5.286  -6.388  27.945  0.00  0.00    +0.312 C 
ATOM     14  O   UNL     1       4.982  -5.428  28.638  0.00  0.00    -0.250 OA
BRANCH  13  15
ATOM     15  O   UNL     1       5.577  -7.593  28.493  0.00  0.00    -0.480 OA
ATOM     16  H   UNL     1       6.487  -7.899  28.317  0.00  0.00    +0.295 HD
ENDBRANCH  13  15
ENDBRANCH  11  13
ENDBRANCH   1  11
BRANCH   6  17
ATOM     17  O   UNL     1      10.299  -1.453  22.645  0.00  0.00    -0.495 OA
ATOM     18  C   UNL     1       9.939  -0.270  21.940  0.00  0.00    +0.277 C 
ENDBRANCH   6  17
TORSDOF 4
ENDMDL
