MODEL 1
REMARK VINA RESULT:      -8.0      0.000      0.000
REMARK  Name = 
REMARK  1 active torsions:
REMARK  status: ('A' for Active; 'I' for Inactive)
REMARK    1  A    between atoms: C_2  and  C_4
REMARK                            x       y       z     vdW  Elec       q    Type
REMARK                         _______ _______ _______ _____ _____    ______ ____
ROOT
ATOM      1  C   UNL     1       6.747  -4.461  22.615  0.00  0.00    +0.261 C 
ATOM      2  O   UNL     1       7.386  -3.321  22.030  0.00  0.00    -0.479 OA
ATOM      3  C   UNL     1       8.010  -2.498  22.930  0.00  0.00    +0.127 A 
ATOM      4  C   UNL     1       8.383  -2.903  24.220  0.00  0.00    +0.029 A 
ATOM      5  C   UNL     1       9.004  -1.961  25.062  0.00  0.00    +0.048 A 
ATOM      6  C   UNL     1       9.264  -0.674  24.602  0.00  0.00    +0.124 A 
ATOM      7  C   UNL     1       8.915  -0.289  23.315  0.00  0.00    +0.042 A 
ATOM      8  F   UNL     1       9.862   0.205  25.416  0.00  0.00    -0.205 F 
ATOM      9  C   UNL     1       8.100  -4.314  24.679  0.00  0.00    +0.145 C 
ATOM     10  C   UNL     1       9.263  -4.963  25.458  0.00  0.00    +0.249 C 
ATOM     11  O   UNL     1      10.395  -5.173  25.045  0.00  0.00    -0.273 OA
ATOM     12  N   UNL     1       8.833  -5.257  26.716  0.00  0.00    -0.238 N 
ATOM     13  H   UNL     1       9.406  -5.652  27.443  0.00  0.00    +0.159 HD
ATOM     14  C   UNL     1       7.559  -4.846  26.899  0.00  0.00    +0.307 C 
ATOM     15  O   UNL     1       6.926  -4.895  27.938  0.00  0.00    -0.252 OA
ATOM     16  N   UNL     1       7.091  -4.323  25.720  0.00  0.00    -0.281 N 
ATOM     17  H   UNL     1       6.181  -3.884  25.677  0.00  0.00    +0.152 HD
ATOM     18  C   UNL     1       8.288  -1.205  22.475  0.00  0.00    +0.049 A 
ATOM     19  C   UNL     1       7.712  -5.220  23.515  0.00  0.00    +0.094 C 
ENDROOT
BRANCH   1  23
ATOM     20  N   UNL     1       6.159  -6.702  21.816  0.00  0.00    -0.326 N 
ATOM     21  H   UNL     1       6.138  -6.980  22.791  0.00  0.00    +0.145 HD
ATOM     22  H   UNL     1       5.736  -7.318  21.134  0.00  0.00    +0.145 HD
ATOM     23  C   UNL     1       6.209  -5.372  21.505  0.00  0.00    +0.251 C 
ATOM     24  O   UNL     1       5.921  -4.984  20.377  0.00  0.00    -0.272 OA
ENDBRANCH   1  23
TORSDOF 1
ENDMDL
MODEL 2
REMARK VINA RESULT:      -7.0      2.189      4.511
REMARK  Name = 
REMARK  1 active torsions:
REMARK  status: ('A' for Active; 'I' for Inactive)
REMARK    1  A    between atoms: C_2  and  C_4
REMARK                            x       y       z     vdW  Elec       q    Type
REMARK                         _______ _______ _______ _____ _____    ______ ____
ROOT
ATOM      1  C   UNL     1       9.139  -3.746  24.747  0.00  0.00    +0.261 C 
ATOM      2  O   UNL     1       9.832  -2.501  24.884  0.00  0.00    -0.479 OA
ATOM      3  C   UNL     1       9.502  -1.563  23.941  0.00  0.00    +0.127 A 
ATOM      4  C   UNL     1       8.322  -1.608  23.184  0.00  0.00    +0.029 A 
ATOM      5  C   UNL     1       8.100  -0.594  22.233  0.00  0.00    +0.048 A 
ATOM      6  C   UNL     1       9.022   0.436  22.080  0.00  0.00    +0.124 A 
ATOM      7  C   UNL     1      10.175   0.488  22.851  0.00  0.00    +0.042 A 
ATOM      8  F   UNL     1       8.789   1.395  21.174  0.00  0.00    -0.205 F 
ATOM      9  C   UNL     1       7.337  -2.734  23.390  0.00  0.00    +0.145 C 
ATOM     10  C   UNL     1       5.863  -2.278  23.413  0.00  0.00    +0.249 C 
ATOM     11  O   UNL     1       5.350  -1.496  24.200  0.00  0.00    -0.273 OA
ATOM     12  N   UNL     1       5.205  -2.881  22.384  0.00  0.00    -0.238 N 
ATOM     13  H   UNL     1       4.240  -2.725  22.147  0.00  0.00    +0.159 HD
ATOM     14  C   UNL     1       6.051  -3.635  21.646  0.00  0.00    +0.307 C 
ATOM     15  O   UNL     1       5.780  -4.229  20.619  0.00  0.00    -0.252 OA
ATOM     16  N   UNL     1       7.294  -3.598  22.227  0.00  0.00    -0.281 N 
ATOM     17  H   UNL     1       8.086  -4.034  21.775  0.00  0.00    +0.152 HD
ATOM     18  C   UNL     1      10.415  -0.514  23.787  0.00  0.00    +0.049 A 
ATOM     19  C   UNL     1       7.635  -3.522  24.662  0.00  0.00    +0.094 C 
ENDROOT
BRANCH   1  23
ATOM     20  N   UNL     1      10.318  -5.701  25.638  0.00  0.00    -0.326 N 
ATOM     21  H   UNL     1      10.912  -5.643  24.818  0.00  0.00    +0.145 HD
ATOM     22  H   UNL     1      10.628  -6.273  26.413  0.00  0.00    +0.145 HD
ATOM     23  C   UNL     1       9.485  -4.657  25.931  0.00  0.00    +0.251 C 
ATOM     24  O   UNL     1       8.999  -4.543  27.051  0.00  0.00    -0.272 OA
ENDBRANCH   1  23
TORSDOF 1
ENDMDL
MODEL 3
REMARK VINA RESULT:      -6.9      3.121      5.132
REMARK  Name = 
REMARK  1 active torsions:
REMARK  status: ('A' for Active; 'I' for Inactive)
REMARK    1  A    between atoms: C_2  and  C_4
REMARK                            x       y       z     vdW  Elec       q    Type
REMARK                         _______ _______ _______ _____ _____    ______ ____
ROOT
ATOM      1  C   UNL     1       6.138  -5.592  27.287  0.00  0.00    +0.261 C 
ATOM      2  O   UNL     1       5.576  -6.424  26.267  0.00  0.00    -0.479 OA
ATOM      3  C   UNL     1       5.703  -5.926  24.997  0.00  0.00    +0.127 A 
ATOM      4  C   UNL     1       6.642  -4.948  24.638  0.00  0.00    +0.029 A 
ATOM      5  C   UNL     1       6.667  -4.503  23.304  0.00  0.00    +0.048 A 
ATOM      6  C   UNL     1       5.797  -5.051  22.367  0.00  0.00    +0.124 A 
ATOM      7  C   UNL     1       4.888  -6.037  22.722  0.00  0.00    +0.042 A 
ATOM      8  F   UNL     1       5.841  -4.619  21.100  0.00  0.00    -0.205 F 
ATOM      9  C   UNL     1       7.582  -4.388  25.681  0.00  0.00    +0.145 C 
ATOM     10  C   UNL     1       9.035  -4.225  25.187  0.00  0.00    +0.249 C 
ATOM     11  O   UNL     1       9.778  -5.111  24.789  0.00  0.00    -0.273 OA
ATOM     12  N   UNL     1       9.369  -2.906  25.248  0.00  0.00    -0.238 N 
ATOM     13  H   UNL     1      10.247  -2.520  24.946  0.00  0.00    +0.159 HD
ATOM     14  C   UNL     1       8.320  -2.162  25.664  0.00  0.00    +0.307 C 
ATOM     15  O   UNL     1       8.282  -0.947  25.742  0.00  0.00    -0.252 OA
ATOM     16  N   UNL     1       7.274  -3.000  25.958  0.00  0.00    -0.281 N 
ATOM     17  H   UNL     1       6.368  -2.625  26.206  0.00  0.00    +0.152 HD
ATOM     18  C   UNL     1       4.842  -6.478  24.042  0.00  0.00    +0.049 A 
ATOM     19  C   UNL     1       7.579  -5.228  26.955  0.00  0.00    +0.094 C 
ENDROOT
BRANCH   1  23
ATOM     20  N   UNL     1       5.427  -7.526  28.613  0.00  0.00    -0.326 N 
ATOM     21  H   UNL     1       5.356  -8.028  27.735  0.00  0.00    +0.145 HD
ATOM     22  H   UNL     1       5.427  -8.062  29.471  0.00  0.00    +0.145 HD
ATOM     23  C   UNL     1       6.059  -6.314  28.638  0.00  0.00    +0.251 C 
ATOM     24  O   UNL     1       6.441  -5.832  29.698  0.00  0.00    -0.272 OA
ENDBRANCH   1  23
TORSDOF 1
ENDMDL
MODEL 4
REMARK VINA RESULT:      -6.6      2.870      4.026
REMARK  Name = 
REMARK  1 active torsions:
REMARK  status: ('A' for Active; 'I' for Inactive)
REMARK    1  A    between atoms: C_2  and  C_4
REMARK                            x       y       z     vdW  Elec       q    Type
REMARK                         _______ _______ _______ _____ _____    ______ ____
ROOT
ATOM      1  C   UNL     1       8.816  -3.817  24.836  0.00  0.00    +0.261 C 
ATOM      2  O   UNL     1       9.739  -3.180  23.946  0.00  0.00    -0.479 OA
ATOM      3  C   UNL     1       9.298  -1.991  23.429  0.00  0.00    +0.127 A 
ATOM      4  C   UNL     1       8.271  -1.230  24.005  0.00  0.00    +0.029 A 
ATOM      5  C   UNL     1       7.894  -0.030  23.372  0.00  0.00    +0.048 A 
ATOM      6  C   UNL     1       8.553   0.393  22.223  0.00  0.00    +0.124 A 
ATOM      7  C   UNL     1       9.586  -0.352  21.674  0.00  0.00    +0.042 A 
ATOM      8  F   UNL     1       8.184   1.541  21.640  0.00  0.00    -0.205 F 
ATOM      9  C   UNL     1       7.588  -1.714  25.263  0.00  0.00    +0.145 C 
ATOM     10  C   UNL     1       7.339  -0.603  26.305  0.00  0.00    +0.249 C 
ATOM     11  O   UNL     1       8.185   0.086  26.858  0.00  0.00    -0.273 OA
ATOM     12  N   UNL     1       5.998  -0.490  26.507  0.00  0.00    -0.238 N 
ATOM     13  H   UNL     1       5.561   0.188  27.109  0.00  0.00    +0.159 HD
ATOM     14  C   UNL     1       5.315  -1.336  25.704  0.00  0.00    +0.307 C 
ATOM     15  O   UNL     1       4.105  -1.412  25.595  0.00  0.00    -0.252 OA
ATOM     16  N   UNL     1       6.215  -2.089  24.991  0.00  0.00    -0.281 N 
ATOM     17  H   UNL     1       5.898  -2.724  24.271  0.00  0.00    +0.152 HD
ATOM     18  C   UNL     1       9.963  -1.548  22.280  0.00  0.00    +0.049 A 
ATOM     19  C   UNL     1       8.360  -2.853  25.922  0.00  0.00    +0.094 C 
ENDROOT
BRANCH   1  23
ATOM     20  N   UNL     1       8.684  -5.765  26.316  0.00  0.00    -0.326 N 
ATOM     21  H   UNL     1       7.677  -5.670  26.255  0.00  0.00    +0.145 HD
ATOM     22  H   UNL     1       9.062  -6.632  26.679  0.00  0.00    +0.145 HD
ATOM     23  C   UNL     1       9.473  -5.058  25.453  0.00  0.00    +0.251 C 
ATOM     24  O   UNL     1      10.646  -5.372  25.279  0.00  0.00    -0.272 OA
ENDBRANCH   1  23
TORSDOF 1
ENDMDL
MODEL 5
REMARK VINA RESULT:      -6.4      2.703      3.345
REMARK  Name = 
REMARK  1 active torsions:
REMARK  status: ('A' for Active; 'I' for Inactive)
REMARK    1  A    between atoms: C_2  and  C_4
REMARK                            x       y       z     vdW  Elec       q    Type
REMARK                         _______ _______ _______ _____ _____    ______ ____
ROOT
ATOM      1  C   UNL     1       6.940  -2.760  22.499  0.00  0.00    +0.261 C 
ATOM      2  O   UNL     1       8.165  -2.286  21.929  0.00  0.00    -0.479 OA
ATOM      3  C   UNL     1       8.555  -1.051  22.374  0.00  0.00    +0.127 A 
ATOM      4  C   UNL     1       8.087  -0.472  23.563  0.00  0.00    +0.029 A 
ATOM      5  C   UNL     1       8.549   0.811  23.908  0.00  0.00    +0.048 A 
ATOM      6  C   UNL     1       9.471   1.465  23.097  0.00  0.00    +0.124 A 
ATOM      7  C   UNL     1       9.949   0.876  21.936  0.00  0.00    +0.042 A 
ATOM      8  F   UNL     1       9.903   2.684  23.447  0.00  0.00    -0.205 F 
ATOM      9  C   UNL     1       7.098  -1.220  24.427  0.00  0.00    +0.145 C 
ATOM     10  C   UNL     1       7.402  -1.138  25.938  0.00  0.00    +0.249 C 
ATOM     11  O   UNL     1       8.411  -1.532  26.505  0.00  0.00    -0.273 OA
ATOM     12  N   UNL     1       6.355  -0.528  26.558  0.00  0.00    -0.238 N 
ATOM     13  H   UNL     1       6.313  -0.312  27.540  0.00  0.00    +0.159 HD
ATOM     14  C   UNL     1       5.418  -0.144  25.662  0.00  0.00    +0.307 C 
ATOM     15  O   UNL     1       4.409   0.493  25.899  0.00  0.00    -0.252 OA
ATOM     16  N   UNL     1       5.805  -0.564  24.414  0.00  0.00    -0.281 N 
ATOM     17  H   UNL     1       5.276  -0.299  23.594  0.00  0.00    +0.152 HD
ATOM     18  C   UNL     1       9.492  -0.388  21.574  0.00  0.00    +0.049 A 
ATOM     19  C   UNL     1       6.986  -2.686  24.019  0.00  0.00    +0.094 C 
ENDROOT
BRANCH   1  23
ATOM     20  N   UNL     1       7.434  -5.155  22.657  0.00  0.00    -0.326 N 
ATOM     21  H   UNL     1       7.836  -4.953  23.565  0.00  0.00    +0.145 HD
ATOM     22  H   UNL     1       7.232  -6.120  22.428  0.00  0.00    +0.145 HD
ATOM     23  C   UNL     1       6.682  -4.199  22.033  0.00  0.00    +0.251 C 
ATOM     24  O   UNL     1       5.933  -4.498  21.110  0.00  0.00    -0.272 OA
ENDBRANCH   1  23
TORSDOF 1
ENDMDL
MODEL 6
REMARK VINA RESULT:      -6.4      3.206      4.863
REMARK  Name = 
REMARK  1 active torsions:
REMARK  status: ('A' for Active; 'I' for Inactive)
REMARK    1  A    between atoms: C_2  and  C_4
REMARK                            x       y       z     vdW  Elec       q    Type
REMARK                         _______ _______ _______ _____ _____    ______ ____
ROOT
ATOM      1  C   UNL     1       7.707  -1.232  22.549  0.00  0.00    +0.261 C 
ATOM      2  O   UNL     1       7.190  -0.866  23.833  0.00  0.00    -0.479 OA
ATOM      3  C   UNL     1       6.313  -1.771  24.370  0.00  0.00    +0.127 A 
ATOM      4  C   UNL     1       6.236  -3.110  23.960  0.00  0.00    +0.029 A 
ATOM      5  C   UNL     1       5.282  -3.943  24.575  0.00  0.00    +0.048 A 
ATOM      6  C   UNL     1       4.466  -3.445  25.585  0.00  0.00    +0.124 A 
ATOM      7  C   UNL     1       4.566  -2.126  26.004  0.00  0.00    +0.042 A 
ATOM      8  F   UNL     1       3.569  -4.255  26.163  0.00  0.00    -0.205 F 
ATOM      9  C   UNL     1       7.151  -3.619  22.870  0.00  0.00    +0.145 C 
ATOM     10  C   UNL     1       7.748  -5.013  23.158  0.00  0.00    +0.249 C 
ATOM     11  O   UNL     1       8.463  -5.324  24.099  0.00  0.00    -0.273 OA
ATOM     12  N   UNL     1       7.333  -5.872  22.187  0.00  0.00    -0.238 N 
ATOM     13  H   UNL     1       7.546  -6.855  22.157  0.00  0.00    +0.159 HD
ATOM     14  C   UNL     1       6.497  -5.255  21.321  0.00  0.00    +0.307 C 
ATOM     15  O   UNL     1       5.901  -5.777  20.397  0.00  0.00    -0.252 OA
ATOM     16  N   UNL     1       6.398  -3.932  21.672  0.00  0.00    -0.281 N 
ATOM     17  H   UNL     1       5.751  -3.320  21.193  0.00  0.00    +0.152 HD
ATOM     18  C   UNL     1       5.495  -1.286  25.396  0.00  0.00    +0.049 A 
ATOM     19  C   UNL     1       8.284  -2.640  22.580  0.00  0.00    +0.094 C 
ENDROOT
BRANCH   1  23
ATOM     20  N   UNL     1       9.809  -0.735  21.392  0.00  0.00    -0.326 N 
ATOM     21  H   UNL     1       9.677  -1.611  20.899  0.00  0.00    +0.145 HD
ATOM     22  H   UNL     1      10.488  -0.079  21.027  0.00  0.00    +0.145 HD
ATOM     23  C   UNL     1       8.774  -0.218  22.119  0.00  0.00    +0.251 C 
ATOM     24  O   UNL     1       8.779   0.960  22.460  0.00  0.00    -0.272 OA
ENDBRANCH   1  23
TORSDOF 1
ENDMDL
MODEL 7
REMARK VINA RESULT:      -6.4      3.529      5.439
REMARK  Name = 
REMARK  1 active torsions:
REMARK  status: ('A' for Active; 'I' for Inactive)
REMARK    1  A    between atoms: C_2  and  C_4
REMARK                            x       y       z     vdW  Elec       q    Type
REMARK                         _______ _______ _______ _____ _____    ______ ____
ROOT
ATOM      1  C   UNL     1       5.817  -1.513  24.871  0.00  0.00    +0.261 C 
ATOM      2  O   UNL     1       5.181  -2.792  24.781  0.00  0.00    -0.479 OA
ATOM      3  C   UNL     1       5.645  -3.585  23.765  0.00  0.00    +0.127 A 
ATOM      4  C   UNL     1       6.886  -3.395  23.140  0.00  0.00    +0.029 A 
ATOM      5  C   UNL     1       7.247  -4.266  22.095  0.00  0.00    +0.048 A 
ATOM      6  C   UNL     1       6.399  -5.304  21.724  0.00  0.00    +0.124 A 
ATOM      7  C   UNL     1       5.184  -5.502  22.364  0.00  0.00    +0.042 A 
ATOM      8  F   UNL     1       6.765  -6.127  20.732  0.00  0.00    -0.205 F 
ATOM      9  C   UNL     1       7.788  -2.266  23.582  0.00  0.00    +0.145 C 
ATOM     10  C   UNL     1       9.275  -2.663  23.693  0.00  0.00    +0.249 C 
ATOM     11  O   UNL     1       9.753  -3.519  24.422  0.00  0.00    -0.273 OA
ATOM     12  N   UNL     1       9.993  -1.906  22.817  0.00  0.00    -0.238 N 
ATOM     13  H   UNL     1      10.983  -1.990  22.660  0.00  0.00    +0.159 HD
ATOM     14  C   UNL     1       9.181  -1.096  22.101  0.00  0.00    +0.307 C 
ATOM     15  O   UNL     1       9.515  -0.363  21.188  0.00  0.00    -0.252 OA
ATOM     16  N   UNL     1       7.893  -1.257  22.547  0.00  0.00    -0.281 N 
ATOM     17  H   UNL     1       7.124  -0.798  22.077  0.00  0.00    +0.152 HD
ATOM     18  C   UNL     1       4.806  -4.640  23.391  0.00  0.00    +0.049 A 
ATOM     19  C   UNL     1       7.332  -1.664  24.907  0.00  0.00    +0.094 C 
ENDROOT
BRANCH   1  23
ATOM     20  N   UNL     1       6.236  -0.636  27.120  0.00  0.00    -0.326 N 
ATOM     21  H   UNL     1       7.222  -0.691  26.895  0.00  0.00    +0.145 HD
ATOM     22  H   UNL     1       5.959  -0.088  27.925  0.00  0.00    +0.145 HD
ATOM     23  C   UNL     1       5.315  -0.778  26.120  0.00  0.00    +0.251 C 
ATOM     24  O   UNL     1       4.156  -0.412  26.282  0.00  0.00    -0.272 OA
ENDBRANCH   1  23
TORSDOF 1
ENDMDL
MODEL 8
REMARK VINA RESULT:      -6.4      2.720      5.028
REMARK  Name = 
REMARK  1 active torsions:
REMARK  status: ('A' for Active; 'I' for Inactive)
REMARK    1  A    between atoms: C_2  and  C_4
REMARK                            x       y       z     vdW  Elec       q    Type
REMARK                         _______ _______ _______ _____ _____    ______ ____
ROOT
ATOM      1  C   UNL     1       5.010  -6.544  25.621  0.00  0.00    +0.261 C 
ATOM      2  O   UNL     1       5.994  -6.076  26.550  0.00  0.00    -0.479 OA
ATOM      3  C   UNL     1       7.053  -5.426  25.972  0.00  0.00    +0.127 A 
ATOM      4  C   UNL     1       7.013  -4.873  24.684  0.00  0.00    +0.029 A 
ATOM      5  C   UNL     1       8.171  -4.242  24.192  0.00  0.00    +0.048 A 
ATOM      6  C   UNL     1       9.308  -4.148  24.987  0.00  0.00    +0.124 A 
ATOM      7  C   UNL     1       9.332  -4.674  26.270  0.00  0.00    +0.042 A 
ATOM      8  F   UNL     1      10.398  -3.538  24.503  0.00  0.00    -0.205 F 
ATOM      9  C   UNL     1       5.753  -4.980  23.856  0.00  0.00    +0.145 C 
ATOM     10  C   UNL     1       5.389  -3.683  23.103  0.00  0.00    +0.249 C 
ATOM     11  O   UNL     1       5.141  -2.594  23.598  0.00  0.00    -0.273 OA
ATOM     12  N   UNL     1       5.404  -3.939  21.766  0.00  0.00    -0.238 N 
ATOM     13  H   UNL     1       5.241  -3.255  21.047  0.00  0.00    +0.159 HD
ATOM     14  C   UNL     1       5.780  -5.215  21.522  0.00  0.00    +0.307 C 
ATOM     15  O   UNL     1       5.965  -5.717  20.429  0.00  0.00    -0.252 OA
ATOM     16  N   UNL     1       5.957  -5.858  22.721  0.00  0.00    -0.281 N 
ATOM     17  H   UNL     1       6.322  -6.801  22.751  0.00  0.00    +0.152 HD
ATOM     18  C   UNL     1       8.199  -5.313  26.767  0.00  0.00    +0.049 A 
ATOM     19  C   UNL     1       4.559  -5.421  24.698  0.00  0.00    +0.094 C 
ENDROOT
BRANCH   1  23
ATOM     20  N   UNL     1       2.961  -7.889  25.645  0.00  0.00    -0.326 N 
ATOM     21  H   UNL     1       3.294  -8.304  24.782  0.00  0.00    +0.145 HD
ATOM     22  H   UNL     1       2.209  -8.351  26.139  0.00  0.00    +0.145 HD
ATOM     23  C   UNL     1       3.818  -7.127  26.390  0.00  0.00    +0.251 C 
ATOM     24  O   UNL     1       3.568  -6.874  27.564  0.00  0.00    -0.272 OA
ENDBRANCH   1  23
TORSDOF 1
ENDMDL
MODEL 9
REMARK VINA RESULT:      -6.4      1.727      2.135
REMARK  Name = 
REMARK  1 active torsions:
REMARK  status: ('A' for Active; 'I' for Inactive)
REMARK    1  A    between atoms: C_2  and  C_4
REMARK                            x       y       z     vdW  Elec       q    Type
REMARK                         _______ _______ _______ _____ _____    ______ ____
ROOT
ATOM      1  C   UNL     1       6.285  -4.469  23.027  0.00  0.00    +0.261 C 
ATOM      2  O   UNL     1       7.519  -3.750  22.928  0.00  0.00    -0.479 OA
ATOM      3  C   UNL     1       7.857  -3.048  24.054  0.00  0.00    +0.127 A 
ATOM      4  C   UNL     1       7.325  -3.317  25.324  0.00  0.00    +0.029 A 
ATOM      5  C   UNL     1       7.737  -2.516  26.404  0.00  0.00    +0.048 A 
ATOM      6  C   UNL     1       8.674  -1.506  26.210  0.00  0.00    +0.124 A 
ATOM      7  C   UNL     1       9.217  -1.262  24.956  0.00  0.00    +0.042 A 
ATOM      8  F   UNL     1       9.059  -0.759  27.253  0.00  0.00    -0.205 F 
ATOM      9  C   UNL     1       6.321  -4.433  25.499  0.00  0.00    +0.145 C 
ATOM     10  C   UNL     1       6.559  -5.295  26.757  0.00  0.00    +0.249 C 
ATOM     11  O   UNL     1       7.554  -5.958  27.013  0.00  0.00    -0.273 OA
ATOM     12  N   UNL     1       5.471  -5.188  27.569  0.00  0.00    -0.238 N 
ATOM     13  H   UNL     1       5.383  -5.619  28.473  0.00  0.00    +0.159 HD
ATOM     14  C   UNL     1       4.563  -4.331  27.049  0.00  0.00    +0.307 C 
ATOM     15  O   UNL     1       3.528  -3.968  27.577  0.00  0.00    -0.252 OA
ATOM     16  N   UNL     1       5.013  -3.901  25.826  0.00  0.00    -0.281 N 
ATOM     17  H   UNL     1       4.511  -3.187  25.315  0.00  0.00    +0.152 HD
ATOM     18  C   UNL     1       8.809  -2.038  23.874  0.00  0.00    +0.049 A 
ATOM     19  C   UNL     1       6.266  -5.341  24.274  0.00  0.00    +0.094 C 
ENDROOT
BRANCH   1  23
ATOM     20  N   UNL     1       6.248  -6.665  21.941  0.00  0.00    -0.326 N 
ATOM     21  H   UNL     1       6.148  -7.058  22.871  0.00  0.00    +0.145 HD
ATOM     22  H   UNL     1       6.047  -7.259  21.147  0.00  0.00    +0.145 HD
ATOM     23  C   UNL     1       6.085  -5.319  21.766  0.00  0.00    +0.251 C 
ATOM     24  O   UNL     1       5.885  -4.855  20.649  0.00  0.00    -0.272 OA
ENDBRANCH   1  23
TORSDOF 1
ENDMDL
