MODEL 1
REMARK VINA RESULT:      -6.7      0.000      0.000
REMARK  Name = 
REMARK  3 active torsions:
REMARK  status: ('A' for Active; 'I' for Inactive)
REMARK    1  A    between atoms: C_4  and  C_5
REMARK    2  A    between atoms: C_5  and  C_6
REMARK    3  A    between atoms: C_6  and  C_7
REMARK                            x       y       z     vdW  Elec       q    Type
REMARK                         _______ _______ _______ _____ _____    ______ ____
ROOT
ATOM      1  C   UNL     1       9.874  -1.470  22.133  0.00  0.00    +0.041 C 
ENDROOT
BRANCH   1   2
ATOM      2  C   UNL     1       9.794  -0.063  22.687  0.00  0.00    -0.045 A 
ATOM      3  C   UNL     1       8.940   0.881  22.094  0.00  0.00    +0.029 A 
ATOM      4  C   UNL     1       8.916   2.176  22.631  0.00  0.00    +0.047 A 
ATOM      5  C   UNL     1       9.703   2.557  23.718  0.00  0.00    -0.000 A 
ATOM      6  C   UNL     1       9.423   3.926  23.981  0.00  0.00    +0.027 A 
ATOM      7  C   UNL     1       8.485   4.346  23.065  0.00  0.00    +0.083 A 
ATOM      8  C   UNL     1      10.556   1.602  24.301  0.00  0.00    +0.010 A 
ATOM      9  N   UNL     1       8.183   3.282  22.260  0.00  0.00    -0.361 N 
ATOM     10  H   UNL     1       7.521   3.295  21.499  0.00  0.00    +0.165 HD
ATOM     11  C   UNL     1      10.594   0.305  23.778  0.00  0.00    +0.004 A 
ENDBRANCH   1   2
BRANCH   1  12
ATOM     12  C   UNL     1       8.642  -2.296  22.516  0.00  0.00    +0.060 C 
BRANCH  12  20
ATOM     13  N   UNL     1      10.157  -5.636  25.614  0.00  0.00    -0.343 N 
ATOM     14  H   UNL     1      10.770  -5.545  26.415  0.00  0.00    +0.144 HD
ATOM     15  H   UNL     1      10.673  -5.809  24.755  0.00  0.00    +0.144 HD
ATOM     16  C   UNL     1       9.408  -4.480  25.406  0.00  0.00    +0.116 A 
ATOM     17  C   UNL     1       8.646  -3.945  26.434  0.00  0.00    +0.043 A 
ATOM     18  C   UNL     1       7.893  -2.805  26.184  0.00  0.00    +0.005 A 
ATOM     19  C   UNL     1       7.909  -2.250  24.909  0.00  0.00    +0.023 A 
ATOM     20  C   UNL     1       8.675  -2.861  23.920  0.00  0.00    +0.044 A 
ATOM     21  N   UNL     1       9.429  -3.961  24.167  0.00  0.00    -0.237 NA
ENDBRANCH  12  20
ENDBRANCH   1  12
TORSDOF 3
ENDMDL
MODEL 2
REMARK VINA RESULT:      -6.6      2.294      2.931
REMARK  Name = 
REMARK  3 active torsions:
REMARK  status: ('A' for Active; 'I' for Inactive)
REMARK    1  A    between atoms: C_4  and  C_5
REMARK    2  A    between atoms: C_5  and  C_6
REMARK    3  A    between atoms: C_6  and  C_7
REMARK                            x       y       z     vdW  Elec       q    Type
REMARK                         _______ _______ _______ _____ _____    ______ ____
ROOT
ATOM      1  C   UNL     1       9.374  -3.169  24.168  0.00  0.00    +0.041 C 
ENDROOT
BRANCH   1   2
ATOM      2  C   UNL     1       9.595  -1.805  23.548  0.00  0.00    -0.045 A 
ATOM      3  C   UNL     1       9.962  -0.715  24.355  0.00  0.00    +0.029 A 
ATOM      4  C   UNL     1      10.134   0.532  23.738  0.00  0.00    +0.047 A 
ATOM      5  C   UNL     1       9.955   0.727  22.368  0.00  0.00    -0.000 A 
ATOM      6  C   UNL     1      10.209   2.101  22.102  0.00  0.00    +0.027 A 
ATOM      7  C   UNL     1      10.534   2.706  23.295  0.00  0.00    +0.083 A 
ATOM      8  C   UNL     1       9.586  -0.372  21.572  0.00  0.00    +0.010 A 
ATOM      9  N   UNL     1      10.491   1.750  24.273  0.00  0.00    -0.361 N 
ATOM     10  H   UNL     1      10.689   1.905  25.250  0.00  0.00    +0.165 HD
ATOM     11  C   UNL     1       9.408  -1.625  22.171  0.00  0.00    +0.004 A 
ENDBRANCH   1   2
BRANCH   1  12
ATOM     12  C   UNL     1       8.222  -3.917  23.486  0.00  0.00    +0.060 C 
BRANCH  12  20
ATOM     13  N   UNL     1       7.425  -6.078  27.698  0.00  0.00    -0.343 N 
ATOM     14  H   UNL     1       6.832  -5.796  28.468  0.00  0.00    +0.144 HD
ATOM     15  H   UNL     1       8.359  -5.682  27.769  0.00  0.00    +0.144 HD
ATOM     16  C   UNL     1       6.907  -5.667  26.472  0.00  0.00    +0.116 A 
ATOM     17  C   UNL     1       5.607  -5.995  26.116  0.00  0.00    +0.043 A 
ATOM     18  C   UNL     1       5.132  -5.588  24.876  0.00  0.00    +0.005 A 
ATOM     19  C   UNL     1       5.978  -4.888  24.023  0.00  0.00    +0.023 A 
ATOM     20  C   UNL     1       7.281  -4.622  24.439  0.00  0.00    +0.044 A 
ATOM     21  N   UNL     1       7.741  -4.997  25.658  0.00  0.00    -0.237 NA
ENDBRANCH  12  20
ENDBRANCH   1  12
TORSDOF 3
ENDMDL
MODEL 3
REMARK VINA RESULT:      -6.6      2.652      7.175
REMARK  Name = 
REMARK  3 active torsions:
REMARK  status: ('A' for Active; 'I' for Inactive)
REMARK    1  A    between atoms: C_4  and  C_5
REMARK    2  A    between atoms: C_5  and  C_6
REMARK    3  A    between atoms: C_6  and  C_7
REMARK                            x       y       z     vdW  Elec       q    Type
REMARK                         _______ _______ _______ _____ _____    ______ ____
ROOT
ATOM      1  C   UNL     1       9.492  -3.196  24.327  0.00  0.00    +0.041 C 
ENDROOT
BRANCH   1   2
ATOM      2  C   UNL     1       8.225  -4.024  24.391  0.00  0.00    -0.045 A 
ATOM      3  C   UNL     1       7.853  -4.654  25.590  0.00  0.00    +0.029 A 
ATOM      4  C   UNL     1       6.684  -5.426  25.593  0.00  0.00    +0.047 A 
ATOM      5  C   UNL     1       5.886  -5.591  24.461  0.00  0.00    -0.000 A 
ATOM      6  C   UNL     1       4.799  -6.431  24.831  0.00  0.00    +0.027 A 
ATOM      7  C   UNL     1       4.951  -6.754  26.160  0.00  0.00    +0.083 A 
ATOM      8  C   UNL     1       6.270  -4.957  23.265  0.00  0.00    +0.010 A 
ATOM      9  N   UNL     1       6.088  -6.139  26.611  0.00  0.00    -0.361 N 
ATOM     10  H   UNL     1       6.448  -6.194  27.552  0.00  0.00    +0.165 HD
ATOM     11  C   UNL     1       7.436  -4.183  23.244  0.00  0.00    +0.004 A 
ENDBRANCH   1   2
BRANCH   1  12
ATOM     12  C   UNL     1       9.528  -2.320  23.070  0.00  0.00    +0.060 C 
BRANCH  12  20
ATOM     13  N   UNL     1       9.895   2.192  21.471  0.00  0.00    -0.343 N 
ATOM     14  H   UNL     1       9.346   3.009  21.709  0.00  0.00    +0.144 HD
ATOM     15  H   UNL     1       9.484   1.665  20.705  0.00  0.00    +0.144 HD
ATOM     16  C   UNL     1      10.003   1.315  22.548  0.00  0.00    +0.116 A 
ATOM     17  C   UNL     1      10.468   1.765  23.775  0.00  0.00    +0.043 A 
ATOM     18  C   UNL     1      10.586   0.857  24.819  0.00  0.00    +0.005 A 
ATOM     19  C   UNL     1      10.256  -0.475  24.597  0.00  0.00    +0.023 A 
ATOM     20  C   UNL     1       9.825  -0.859  23.330  0.00  0.00    +0.044 A 
ATOM     21  N   UNL     1       9.687   0.029  22.314  0.00  0.00    -0.237 NA
ENDBRANCH  12  20
ENDBRANCH   1  12
TORSDOF 3
ENDMDL
MODEL 4
REMARK VINA RESULT:      -6.5      2.418      3.282
REMARK  Name = 
REMARK  3 active torsions:
REMARK  status: ('A' for Active; 'I' for Inactive)
REMARK    1  A    between atoms: C_4  and  C_5
REMARK    2  A    between atoms: C_5  and  C_6
REMARK    3  A    between atoms: C_6  and  C_7
REMARK                            x       y       z     vdW  Elec       q    Type
REMARK                         _______ _______ _______ _____ _____    ______ ____
ROOT
ATOM      1  C   UNL     1       9.550  -3.269  24.273  0.00  0.00    +0.041 C 
ENDROOT
BRANCH   1   2
ATOM      2  C   UNL     1       9.689  -1.912  23.615  0.00  0.00    -0.045 A 
ATOM      3  C   UNL     1      10.033  -0.787  24.383  0.00  0.00    +0.029 A 
ATOM      4  C   UNL     1      10.129   0.451  23.731  0.00  0.00    +0.047 A 
ATOM      5  C   UNL     1       9.897   0.604  22.364  0.00  0.00    -0.000 A 
ATOM      6  C   UNL     1      10.080   1.981  22.058  0.00  0.00    +0.027 A 
ATOM      7  C   UNL     1      10.416   2.629  23.225  0.00  0.00    +0.083 A 
ATOM      8  C   UNL     1       9.552  -0.531  21.606  0.00  0.00    +0.010 A 
ATOM      9  N   UNL     1      10.448   1.696  24.226  0.00  0.00    -0.361 N 
ATOM     10  H   UNL     1      10.670   1.884  25.192  0.00  0.00    +0.165 HD
ATOM     11  C   UNL     1       9.450  -1.774  22.241  0.00  0.00    +0.004 A 
ENDBRANCH   1   2
BRANCH   1  12
ATOM     12  C   UNL     1       8.253  -3.371  25.083  0.00  0.00    +0.060 C 
BRANCH  12  20
ATOM     13  N   UNL     1       6.345  -6.573  22.058  0.00  0.00    -0.343 N 
ATOM     14  H   UNL     1       5.620  -7.262  22.218  0.00  0.00    +0.144 HD
ATOM     15  H   UNL     1       7.269  -6.931  22.284  0.00  0.00    +0.144 HD
ATOM     16  C   UNL     1       6.153  -5.435  22.839  0.00  0.00    +0.116 A 
ATOM     17  C   UNL     1       4.943  -4.758  22.805  0.00  0.00    +0.043 A 
ATOM     18  C   UNL     1       4.796  -3.614  23.579  0.00  0.00    +0.005 A 
ATOM     19  C   UNL     1       5.870  -3.172  24.343  0.00  0.00    +0.023 A 
ATOM     20  C   UNL     1       7.064  -3.888  24.303  0.00  0.00    +0.044 A 
ATOM     21  N   UNL     1       7.204  -5.018  23.566  0.00  0.00    -0.237 NA
ENDBRANCH  12  20
ENDBRANCH   1  12
TORSDOF 3
ENDMDL
MODEL 5
REMARK VINA RESULT:      -6.4      1.311      6.759
REMARK  Name = 
REMARK  3 active torsions:
REMARK  status: ('A' for Active; 'I' for Inactive)
REMARK    1  A    between atoms: C_4  and  C_5
REMARK    2  A    between atoms: C_5  and  C_6
REMARK    3  A    between atoms: C_6  and  C_7
REMARK                            x       y       z     vdW  Elec       q    Type
REMARK                         _______ _______ _______ _____ _____    ______ ____
ROOT
ATOM      1  C   UNL     1      10.220  -0.755  22.143  0.00  0.00    +0.041 C 
ENDROOT
BRANCH   1   2
ATOM      2  C   UNL     1       9.403  -1.859  22.781  0.00  0.00    -0.045 A 
ATOM      3  C   UNL     1       9.910  -2.565  23.884  0.00  0.00    +0.029 A 
ATOM      4  C   UNL     1       9.125  -3.592  24.426  0.00  0.00    +0.047 A 
ATOM      5  C   UNL     1       7.874  -3.935  23.914  0.00  0.00    -0.000 A 
ATOM      6  C   UNL     1       7.376  -5.010  24.702  0.00  0.00    +0.027 A 
ATOM      7  C   UNL     1       8.318  -5.295  25.665  0.00  0.00    +0.083 A 
ATOM      8  C   UNL     1       7.378  -3.221  22.807  0.00  0.00    +0.010 A 
ATOM      9  N   UNL     1       9.365  -4.431  25.492  0.00  0.00    -0.361 N 
ATOM     10  H   UNL     1      10.200  -4.404  26.058  0.00  0.00    +0.165 HD
ATOM     11  C   UNL     1       8.149  -2.194  22.252  0.00  0.00    +0.004 A 
ENDBRANCH   1   2
BRANCH   1  12
ATOM     12  C   UNL     1       9.341   0.193  21.321  0.00  0.00    +0.060 C 
BRANCH  12  20
ATOM     13  N   UNL     1       6.390   3.934  21.910  0.00  0.00    -0.343 N 
ATOM     14  H   UNL     1       5.834   4.199  22.713  0.00  0.00    +0.144 HD
ATOM     15  H   UNL     1       5.895   3.292  21.297  0.00  0.00    +0.144 HD
ATOM     16  C   UNL     1       7.570   3.297  22.289  0.00  0.00    +0.116 A 
ATOM     17  C   UNL     1       8.433   3.901  23.191  0.00  0.00    +0.043 A 
ATOM     18  C   UNL     1       9.612   3.247  23.528  0.00  0.00    +0.005 A 
ATOM     19  C   UNL     1       9.899   2.023  22.935  0.00  0.00    +0.023 A 
ATOM     20  C   UNL     1       8.998   1.494  22.015  0.00  0.00    +0.044 A 
ATOM     21  N   UNL     1       7.835   2.118  21.701  0.00  0.00    -0.237 NA
ENDBRANCH  12  20
ENDBRANCH   1  12
TORSDOF 3
ENDMDL
MODEL 6
REMARK VINA RESULT:      -6.2      2.705      3.818
REMARK  Name = 
REMARK  3 active torsions:
REMARK  status: ('A' for Active; 'I' for Inactive)
REMARK    1  A    between atoms: C_4  and  C_5
REMARK    2  A    between atoms: C_5  and  C_6
REMARK    3  A    between atoms: C_6  and  C_7
REMARK                            x       y       z     vdW  Elec       q    Type
REMARK                         _______ _______ _______ _____ _____    ______ ____
ROOT
ATOM      1  C   UNL     1       8.410  -2.877  26.080  0.00  0.00    +0.041 C 
ENDROOT
BRANCH   1   2
ATOM      2  C   UNL     1       8.763  -2.072  24.846  0.00  0.00    -0.045 A 
ATOM      3  C   UNL     1       8.049  -0.902  24.539  0.00  0.00    +0.029 A 
ATOM      4  C   UNL     1       8.400  -0.204  23.375  0.00  0.00    +0.047 A 
ATOM      5  C   UNL     1       9.419  -0.625  22.521  0.00  0.00    -0.000 A 
ATOM      6  C   UNL     1       9.490   0.315  21.455  0.00  0.00    +0.027 A 
ATOM      7  C   UNL     1       8.530   1.276  21.679  0.00  0.00    +0.083 A 
ATOM      8  C   UNL     1      10.125  -1.799  22.839  0.00  0.00    +0.010 A 
ATOM      9  N   UNL     1       7.883   0.956  22.841  0.00  0.00    -0.361 N 
ATOM     10  H   UNL     1       7.131   1.486  23.256  0.00  0.00    +0.165 HD
ATOM     11  C   UNL     1       9.787  -2.511  23.996  0.00  0.00    +0.004 A 
ENDBRANCH   1   2
BRANCH   1  12
ATOM     12  C   UNL     1       8.519  -4.383  25.820  0.00  0.00    +0.060 C 
BRANCH  12  20
ATOM     13  N   UNL     1       5.070  -7.207  27.602  0.00  0.00    -0.343 N 
ATOM     14  H   UNL     1       4.105  -6.991  27.820  0.00  0.00    +0.144 HD
ATOM     15  H   UNL     1       5.691  -7.011  28.383  0.00  0.00    +0.144 HD
ATOM     16  C   UNL     1       5.534  -6.458  26.523  0.00  0.00    +0.116 A 
ATOM     17  C   UNL     1       4.843  -6.459  25.321  0.00  0.00    +0.043 A 
ATOM     18  C   UNL     1       5.348  -5.719  24.259  0.00  0.00    +0.005 A 
ATOM     19  C   UNL     1       6.538  -5.020  24.428  0.00  0.00    +0.023 A 
ATOM     20  C   UNL     1       7.191  -5.091  25.656  0.00  0.00    +0.044 A 
ATOM     21  N   UNL     1       6.689  -5.794  26.702  0.00  0.00    -0.237 NA
ENDBRANCH  12  20
ENDBRANCH   1  12
TORSDOF 3
ENDMDL
MODEL 7
REMARK VINA RESULT:      -6.2      2.298      6.517
REMARK  Name = 
REMARK  3 active torsions:
REMARK  status: ('A' for Active; 'I' for Inactive)
REMARK    1  A    between atoms: C_4  and  C_5
REMARK    2  A    between atoms: C_5  and  C_6
REMARK    3  A    between atoms: C_6  and  C_7
REMARK                            x       y       z     vdW  Elec       q    Type
REMARK                         _______ _______ _______ _____ _____    ______ ____
ROOT
ATOM      1  C   UNL     1      10.211  -1.037  23.315  0.00  0.00    +0.041 C 
ENDROOT
BRANCH   1   2
ATOM      2  C   UNL     1       9.294  -2.242  23.345  0.00  0.00    -0.045 A 
ATOM      3  C   UNL     1       8.253  -2.360  22.409  0.00  0.00    +0.029 A 
ATOM      4  C   UNL     1       7.419  -3.484  22.490  0.00  0.00    +0.047 A 
ATOM      5  C   UNL     1       7.582  -4.476  23.456  0.00  0.00    -0.000 A 
ATOM      6  C   UNL     1       6.566  -5.447  23.239  0.00  0.00    +0.027 A 
ATOM      7  C   UNL     1       5.816  -5.035  22.160  0.00  0.00    +0.083 A 
ATOM      8  C   UNL     1       8.627  -4.346  24.389  0.00  0.00    +0.010 A 
ATOM      9  N   UNL     1       6.342  -3.853  21.714  0.00  0.00    -0.361 N 
ATOM     10  H   UNL     1       5.998  -3.320  20.930  0.00  0.00    +0.165 HD
ATOM     11  C   UNL     1       9.469  -3.229  24.324  0.00  0.00    +0.004 A 
ENDBRANCH   1   2
BRANCH   1  12
ATOM     12  C   UNL     1      10.109  -0.221  24.609  0.00  0.00    +0.060 C 
BRANCH  12  20
ATOM     13  N   UNL     1      11.451   4.088  22.971  0.00  0.00    -0.343 N 
ATOM     14  H   UNL     1      11.056   4.648  22.226  0.00  0.00    +0.144 HD
ATOM     15  H   UNL     1      12.153   3.437  22.630  0.00  0.00    +0.144 HD
ATOM     16  C   UNL     1      10.476   3.326  23.612  0.00  0.00    +0.116 A 
ATOM     17  C   UNL     1       9.339   3.932  24.126  0.00  0.00    +0.043 A 
ATOM     18  C   UNL     1       8.400   3.145  24.780  0.00  0.00    +0.005 A 
ATOM     19  C   UNL     1       8.639   1.782  24.918  0.00  0.00    +0.023 A 
ATOM     20  C   UNL     1       9.818   1.250  24.402  0.00  0.00    +0.044 A 
ATOM     21  N   UNL     1      10.726   2.012  23.743  0.00  0.00    -0.237 NA
ENDBRANCH  12  20
ENDBRANCH   1  12
TORSDOF 3
ENDMDL
MODEL 8
REMARK VINA RESULT:      -6.1      2.253      7.126
REMARK  Name = 
REMARK  3 active torsions:
REMARK  status: ('A' for Active; 'I' for Inactive)
REMARK    1  A    between atoms: C_4  and  C_5
REMARK    2  A    between atoms: C_5  and  C_6
REMARK    3  A    between atoms: C_6  and  C_7
REMARK                            x       y       z     vdW  Elec       q    Type
REMARK                         _______ _______ _______ _____ _____    ______ ____
ROOT
ATOM      1  C   UNL     1      10.636   1.021  24.631  0.00  0.00    +0.041 C 
ENDROOT
BRANCH   1   2
ATOM      2  C   UNL     1       9.956  -0.332  24.626  0.00  0.00    -0.045 A 
ATOM      3  C   UNL     1       9.147  -0.720  25.707  0.00  0.00    +0.029 A 
ATOM      4  C   UNL     1       8.556  -1.990  25.664  0.00  0.00    +0.047 A 
ATOM      5  C   UNL     1       8.741  -2.874  24.601  0.00  0.00    -0.000 A 
ATOM      6  C   UNL     1       8.003  -4.052  24.899  0.00  0.00    +0.027 A 
ATOM      7  C   UNL     1       7.390  -3.867  26.118  0.00  0.00    +0.083 A 
ATOM      8  C   UNL     1       9.555  -2.474  23.525  0.00  0.00    +0.010 A 
ATOM      9  N   UNL     1       7.726  -2.618  26.568  0.00  0.00    -0.361 N 
ATOM     10  H   UNL     1       7.417  -2.208  27.436  0.00  0.00    +0.165 HD
ATOM     11  C   UNL     1      10.155  -1.209  23.551  0.00  0.00    +0.004 A 
ENDBRANCH   1   2
BRANCH   1  12
ATOM     12  C   UNL     1      10.273   1.838  23.386  0.00  0.00    +0.060 C 
BRANCH  12  20
ATOM     13  N   UNL     1      13.254   5.599  23.249  0.00  0.00    -0.343 N 
ATOM     14  H   UNL     1      13.271   6.387  22.615  0.00  0.00    +0.144 HD
ATOM     15  H   UNL     1      13.793   4.812  22.897  0.00  0.00    +0.144 HD
ATOM     16  C   UNL     1      11.956   5.135  23.457  0.00  0.00    +0.116 A 
ATOM     17  C   UNL     1      10.959   6.005  23.873  0.00  0.00    +0.043 A 
ATOM     18  C   UNL     1       9.683   5.502  24.093  0.00  0.00    +0.005 A 
ATOM     19  C   UNL     1       9.451   4.144  23.911  0.00  0.00    +0.023 A 
ATOM     20  C   UNL     1      10.509   3.327  23.521  0.00  0.00    +0.044 A 
ATOM     21  N   UNL     1      11.751   3.818  23.283  0.00  0.00    -0.237 NA
ENDBRANCH  12  20
ENDBRANCH   1  12
TORSDOF 3
ENDMDL
MODEL 9
REMARK VINA RESULT:      -6.1      2.367      6.635
REMARK  Name = 
REMARK  3 active torsions:
REMARK  status: ('A' for Active; 'I' for Inactive)
REMARK    1  A    between atoms: C_4  and  C_5
REMARK    2  A    between atoms: C_5  and  C_6
REMARK    3  A    between atoms: C_6  and  C_7
REMARK                            x       y       z     vdW  Elec       q    Type
REMARK                         _______ _______ _______ _____ _____    ______ ____
ROOT
ATOM      1  C   UNL     1       7.883  -1.444  25.250  0.00  0.00    +0.041 C 
ENDROOT
BRANCH   1   2
ATOM      2  C   UNL     1       7.735  -2.712  24.436  0.00  0.00    -0.045 A 
ATOM      3  C   UNL     1       6.905  -2.731  23.304  0.00  0.00    +0.029 A 
ATOM      4  C   UNL     1       6.786  -3.935  22.595  0.00  0.00    +0.047 A 
ATOM      5  C   UNL     1       7.452  -5.101  22.971  0.00  0.00    -0.000 A 
ATOM      6  C   UNL     1       7.096  -6.111  22.035  0.00  0.00    +0.027 A 
ATOM      7  C   UNL     1       6.234  -5.549  21.120  0.00  0.00    +0.083 A 
ATOM      8  C   UNL     1       8.280  -5.069  24.109  0.00  0.00    +0.010 A 
ATOM      9  N   UNL     1       6.058  -4.236  21.465  0.00  0.00    -0.361 N 
ATOM     10  H   UNL     1       5.479  -3.575  20.969  0.00  0.00    +0.165 HD
ATOM     11  C   UNL     1       8.409  -3.876  24.829  0.00  0.00    +0.004 A 
ENDBRANCH   1   2
BRANCH   1  12
ATOM     12  C   UNL     1       9.319  -0.912  25.208  0.00  0.00    +0.060 C 
BRANCH  12  20
ATOM     13  N   UNL     1       9.932   3.634  23.789  0.00  0.00    -0.343 N 
ATOM     14  H   UNL     1      10.753   4.087  23.408  0.00  0.00    +0.144 HD
ATOM     15  H   UNL     1       9.913   3.667  24.805  0.00  0.00    +0.144 HD
ATOM     16  C   UNL     1       9.875   2.289  23.430  0.00  0.00    +0.116 A 
ATOM     17  C   UNL     1       9.957   1.915  22.097  0.00  0.00    +0.043 A 
ATOM     18  C   UNL     1       9.873   0.566  21.775  0.00  0.00    +0.005 A 
ATOM     19  C   UNL     1       9.688  -0.362  22.794  0.00  0.00    +0.023 A 
ATOM     20  C   UNL     1       9.586   0.092  24.106  0.00  0.00    +0.044 A 
ATOM     21  N   UNL     1       9.690   1.406  24.427  0.00  0.00    -0.237 NA
ENDBRANCH  12  20
ENDBRANCH   1  12
TORSDOF 3
ENDMDL
