MODEL 1
REMARK VINA RESULT:      -5.5      0.000      0.000
REMARK  Name = 
REMARK  7 active torsions:
REMARK  status: ('A' for Active; 'I' for Inactive)
REMARK    1  A    between atoms: N_1  and  CA_2
REMARK    2  A    between atoms: CA_2  and  C_4
REMARK    3  A    between atoms: CA_2  and  C_13
REMARK    4  A    between atoms: C_4  and  C_5
REMARK    5  A    between atoms: C_7  and  O_8
REMARK    6  A    between atoms: C_9  and  O_10
REMARK    7  A    between atoms: C_13  and  O_14
REMARK                            x       y       z     vdW  Elec       q    Type
REMARK                         _______ _______ _______ _____ _____    ______ ____
ROOT
ATOM      1  C   UNL     1       9.933  -1.559  23.392  0.00  0.00    -0.042 A 
ATOM      2  C   UNL     1       9.574  -1.475  22.035  0.00  0.00    +0.007 A 
ATOM      3  C   UNL     1       9.528  -0.239  21.388  0.00  0.00    +0.049 A 
ATOM      4  C   UNL     1       9.869   0.906  22.091  0.00  0.00    +0.158 A 
ATOM      5  C   UNL     1      10.267   0.833  23.421  0.00  0.00    +0.158 A 
ATOM      6  C   UNL     1      10.303  -0.391  24.078  0.00  0.00    +0.053 A 
ENDROOT
BRANCH   4   7
ATOM      7  O   UNL     1       9.800   2.117  21.464  0.00  0.00    -0.503 OA
ATOM      8  H   UNL     1       8.884   2.160  21.122  0.00  0.00    +0.292 HD
ENDBRANCH   4   7
BRANCH   5   9
ATOM      9  O   UNL     1      10.599   2.000  24.053  0.00  0.00    -0.503 OA
ATOM     10  H   UNL     1       9.803   2.560  24.089  0.00  0.00    +0.292 HD
ENDBRANCH   5   9
BRANCH   1  11
ATOM     11  C   UNL     1       9.856  -2.882  24.128  0.00  0.00    +0.065 C 
BRANCH  11  12
ATOM     12  CA  UNL     1       8.489  -3.586  24.023  0.00  0.00    +0.165 C 
BRANCH  12  13
ATOM     13  N   UNL     1       7.336  -2.759  24.508  0.00  0.00    -0.318 NA
ATOM     14  H1  UNL     1       6.546  -3.386  24.697  0.00  0.00    +0.119 HD
ATOM     15  H2  UNL     1       7.585  -2.394  25.432  0.00  0.00    +0.119 HD
ENDBRANCH  12  13
BRANCH  12  16
ATOM     16  C   UNL     1       8.491  -4.928  24.775  0.00  0.00    +0.322 C 
ATOM     17  OXT UNL     1       7.589  -5.337  25.488  0.00  0.00    -0.249 OA
BRANCH  16  18
ATOM     18  O   UNL     1       9.641  -5.618  24.559  0.00  0.00    -0.480 OA
ATOM     19  H   UNL     1       9.950  -5.912  25.452  0.00  0.00    +0.295 HD
ENDBRANCH  16  18
ENDBRANCH  12  16
ENDBRANCH  11  12
ENDBRANCH   1  11
TORSDOF 7
ENDMDL
MODEL 2
REMARK VINA RESULT:      -5.4      4.002      5.860
REMARK  Name = 
REMARK  7 active torsions:
REMARK  status: ('A' for Active; 'I' for Inactive)
REMARK    1  A    between atoms: N_1  and  CA_2
REMARK    2  A    between atoms: CA_2  and  C_4
REMARK    3  A    between atoms: CA_2  and  C_13
REMARK    4  A    between atoms: C_4  and  C_5
REMARK    5  A    between atoms: C_7  and  O_8
REMARK    6  A    between atoms: C_9  and  O_10
REMARK    7  A    between atoms: C_13  and  O_14
REMARK                            x       y       z     vdW  Elec       q    Type
REMARK                         _______ _______ _______ _____ _____    ______ ____
ROOT
ATOM      1  C   UNL     1      10.335   3.942  23.567  0.00  0.00    -0.042 A 
ATOM      2  C   UNL     1       9.828   5.111  24.161  0.00  0.00    +0.007 A 
ATOM      3  C   UNL     1      10.676   6.174  24.474  0.00  0.00    +0.049 A 
ATOM      4  C   UNL     1      12.024   6.078  24.167  0.00  0.00    +0.158 A 
ATOM      5  C   UNL     1      12.533   4.945  23.540  0.00  0.00    +0.158 A 
ATOM      6  C   UNL     1      11.698   3.876  23.236  0.00  0.00    +0.053 A 
ENDROOT
BRANCH   4   7
ATOM      7  O   UNL     1      12.857   7.108  24.495  0.00  0.00    -0.503 OA
ATOM      8  H   UNL     1      13.229   6.850  25.364  0.00  0.00    +0.292 HD
ENDBRANCH   4   7
BRANCH   5   9
ATOM      9  O   UNL     1      13.870   4.919  23.257  0.00  0.00    -0.503 OA
ATOM     10  H   UNL     1      14.055   5.627  22.614  0.00  0.00    +0.292 HD
ENDBRANCH   5   9
BRANCH   1  11
ATOM     11  C   UNL     1       9.439   2.739  23.347  0.00  0.00    +0.065 C 
BRANCH  11  12
ATOM     12  CA  UNL     1       9.970   1.738  22.302  0.00  0.00    +0.165 C 
BRANCH  12  13
ATOM     13  N   UNL     1       9.061   1.544  21.125  0.00  0.00    -0.318 NA
ATOM     14  H1  UNL     1       9.631   1.567  20.271  0.00  0.00    +0.119 HD
ATOM     15  H2  UNL     1       8.711   0.582  21.160  0.00  0.00    +0.119 HD
ENDBRANCH  12  13
BRANCH  12  16
ATOM     16  C   UNL     1      10.262   0.368  22.938  0.00  0.00    +0.322 C 
ATOM     17  OXT UNL     1       9.900  -0.708  22.489  0.00  0.00    -0.249 OA
BRANCH  16  18
ATOM     18  O   UNL     1      10.976   0.493  24.086  0.00  0.00    -0.480 OA
ATOM     19  H   UNL     1      11.564   1.278  23.953  0.00  0.00    +0.295 HD
ENDBRANCH  16  18
ENDBRANCH  12  16
ENDBRANCH  11  12
ENDBRANCH   1  11
TORSDOF 7
ENDMDL
MODEL 3
REMARK VINA RESULT:      -5.3      2.138      5.802
REMARK  Name = 
REMARK  7 active torsions:
REMARK  status: ('A' for Active; 'I' for Inactive)
REMARK    1  A    between atoms: N_1  and  CA_2
REMARK    2  A    between atoms: CA_2  and  C_4
REMARK    3  A    between atoms: CA_2  and  C_13
REMARK    4  A    between atoms: C_4  and  C_5
REMARK    5  A    between atoms: C_7  and  O_8
REMARK    6  A    between atoms: C_9  and  O_10
REMARK    7  A    between atoms: C_13  and  O_14
REMARK                            x       y       z     vdW  Elec       q    Type
REMARK                         _______ _______ _______ _____ _____    ______ ____
ROOT
ATOM      1  C   UNL     1       8.675  -2.248  25.015  0.00  0.00    -0.042 A 
ATOM      2  C   UNL     1       7.779  -2.412  26.085  0.00  0.00    +0.007 A 
ATOM      3  C   UNL     1       7.632  -3.656  26.703  0.00  0.00    +0.049 A 
ATOM      4  C   UNL     1       8.401  -4.723  26.268  0.00  0.00    +0.158 A 
ATOM      5  C   UNL     1       9.323  -4.564  25.239  0.00  0.00    +0.158 A 
ATOM      6  C   UNL     1       9.468  -3.334  24.609  0.00  0.00    +0.053 A 
ENDROOT
BRANCH   4   7
ATOM      7  O   UNL     1       8.239  -5.944  26.857  0.00  0.00    -0.503 OA
ATOM      8  H   UNL     1       7.308  -6.180  26.670  0.00  0.00    +0.292 HD
ENDBRANCH   4   7
BRANCH   5   9
ATOM      9  O   UNL     1      10.057  -5.656  24.866  0.00  0.00    -0.503 OA
ATOM     10  H   UNL     1       9.455  -6.419  24.811  0.00  0.00    +0.292 HD
ENDBRANCH   5   9
BRANCH   1  11
ATOM     11  C   UNL     1       8.740  -0.935  24.260  0.00  0.00    +0.065 C 
BRANCH  11  12
ATOM     12  CA  UNL     1      10.110  -0.642  23.615  0.00  0.00    +0.165 C 
BRANCH  12  13
ATOM     13  N   UNL     1      10.839   0.516  24.228  0.00  0.00    -0.318 NA
ATOM     14  H1  UNL     1      10.352   1.380  23.963  0.00  0.00    +0.119 HD
ATOM     15  H2  UNL     1      10.707   0.462  25.242  0.00  0.00    +0.119 HD
ENDBRANCH  12  13
BRANCH  12  16
ATOM     16  C   UNL     1       9.976  -0.403  22.102  0.00  0.00    +0.322 C 
ATOM     17  OXT UNL     1       9.741   0.674  21.578  0.00  0.00    -0.249 OA
BRANCH  16  18
ATOM     18  O   UNL     1      10.142  -1.553  21.399  0.00  0.00    -0.480 OA
ATOM     19  H   UNL     1      10.403  -2.239  22.063  0.00  0.00    +0.295 HD
ENDBRANCH  16  18
ENDBRANCH  12  16
ENDBRANCH  11  12
ENDBRANCH   1  11
TORSDOF 7
ENDMDL
MODEL 4
REMARK VINA RESULT:      -5.3      1.688      1.919
REMARK  Name = 
REMARK  7 active torsions:
REMARK  status: ('A' for Active; 'I' for Inactive)
REMARK    1  A    between atoms: N_1  and  CA_2
REMARK    2  A    between atoms: CA_2  and  C_4
REMARK    3  A    between atoms: CA_2  and  C_13
REMARK    4  A    between atoms: C_4  and  C_5
REMARK    5  A    between atoms: C_7  and  O_8
REMARK    6  A    between atoms: C_9  and  O_10
REMARK    7  A    between atoms: C_13  and  O_14
REMARK                            x       y       z     vdW  Elec       q    Type
REMARK                         _______ _______ _______ _____ _____    ______ ____
ROOT
ATOM      1  C   UNL     1       9.167  -2.450  23.705  0.00  0.00    -0.042 A 
ATOM      2  C   UNL     1       9.130  -2.055  22.356  0.00  0.00    +0.007 A 
ATOM      3  C   UNL     1       9.503  -0.763  21.984  0.00  0.00    +0.049 A 
ATOM      4  C   UNL     1       9.941   0.122  22.956  0.00  0.00    +0.158 A 
ATOM      5  C   UNL     1      10.024  -0.267  24.289  0.00  0.00    +0.158 A 
ATOM      6  C   UNL     1       9.642  -1.548  24.672  0.00  0.00    +0.053 A 
ENDROOT
BRANCH   4   7
ATOM      7  O   UNL     1      10.283   1.393  22.594  0.00  0.00    -0.503 OA
ATOM      8  H   UNL     1      11.202   1.497  22.915  0.00  0.00    +0.292 HD
ENDBRANCH   4   7
BRANCH   5   9
ATOM      9  O   UNL     1      10.474   0.653  25.195  0.00  0.00    -0.503 OA
ATOM     10  H   UNL     1      10.262   1.540  24.854  0.00  0.00    +0.292 HD
ENDBRANCH   5   9
BRANCH   1  11
ATOM     11  C   UNL     1       8.638  -3.806  24.126  0.00  0.00    +0.065 C 
BRANCH  11  12
ATOM     12  CA  UNL     1       9.261  -4.353  25.426  0.00  0.00    +0.165 C 
BRANCH  12  13
ATOM     13  N   UNL     1       9.971  -5.663  25.260  0.00  0.00    -0.318 NA
ATOM     14  H1  UNL     1      10.618  -5.581  24.467  0.00  0.00    +0.119 HD
ATOM     15  H2  UNL     1      10.589  -5.784  26.068  0.00  0.00    +0.119 HD
ENDBRANCH  12  13
BRANCH  12  16
ATOM     16  C   UNL     1       8.205  -4.495  26.535  0.00  0.00    +0.322 C 
ATOM     17  OXT UNL     1       7.374  -3.650  26.828  0.00  0.00    -0.249 OA
BRANCH  16  18
ATOM     18  O   UNL     1       8.309  -5.689  27.173  0.00  0.00    -0.480 OA
ATOM     19  H   UNL     1       8.926  -5.536  27.932  0.00  0.00    +0.295 HD
ENDBRANCH  16  18
ENDBRANCH  12  16
ENDBRANCH  11  12
ENDBRANCH   1  11
TORSDOF 7
ENDMDL
MODEL 5
REMARK VINA RESULT:      -5.1      1.079      1.901
REMARK  Name = 
REMARK  7 active torsions:
REMARK  status: ('A' for Active; 'I' for Inactive)
REMARK    1  A    between atoms: N_1  and  CA_2
REMARK    2  A    between atoms: CA_2  and  C_4
REMARK    3  A    between atoms: CA_2  and  C_13
REMARK    4  A    between atoms: C_4  and  C_5
REMARK    5  A    between atoms: C_7  and  O_8
REMARK    6  A    between atoms: C_9  and  O_10
REMARK    7  A    between atoms: C_13  and  O_14
REMARK                            x       y       z     vdW  Elec       q    Type
REMARK                         _______ _______ _______ _____ _____    ______ ____
ROOT
ATOM      1  C   UNL     1       9.981  -0.981  23.530  0.00  0.00    -0.042 A 
ATOM      2  C   UNL     1      10.557  -0.050  24.411  0.00  0.00    +0.007 A 
ATOM      3  C   UNL     1      10.602   1.306  24.081  0.00  0.00    +0.049 A 
ATOM      4  C   UNL     1      10.047   1.731  22.885  0.00  0.00    +0.158 A 
ATOM      5  C   UNL     1       9.436   0.827  22.022  0.00  0.00    +0.158 A 
ATOM      6  C   UNL     1       9.397  -0.527  22.336  0.00  0.00    +0.053 A 
ENDROOT
BRANCH   4   7
ATOM      7  O   UNL     1      10.114   3.053  22.552  0.00  0.00    -0.503 OA
ATOM      8  H   UNL     1      11.029   3.174  22.228  0.00  0.00    +0.292 HD
ENDBRANCH   4   7
BRANCH   5   9
ATOM      9  O   UNL     1       8.899   1.314  20.863  0.00  0.00    -0.503 OA
ATOM     10  H   UNL     1       9.587   1.829  20.406  0.00  0.00    +0.292 HD
ENDBRANCH   5   9
BRANCH   1  11
ATOM     11  C   UNL     1      10.048  -2.466  23.827  0.00  0.00    +0.065 C 
BRANCH  11  12
ATOM     12  CA  UNL     1       8.775  -3.038  24.482  0.00  0.00    +0.165 C 
BRANCH  12  13
ATOM     13  N   UNL     1       8.583  -2.623  25.910  0.00  0.00    -0.318 NA
ATOM     14  H1  UNL     1       8.499  -1.600  25.940  0.00  0.00    +0.119 HD
ATOM     15  H2  UNL     1       7.660  -2.952  26.206  0.00  0.00    +0.119 HD
ENDBRANCH  12  13
BRANCH  12  16
ATOM     16  C   UNL     1       8.747  -4.574  24.401  0.00  0.00    +0.322 C 
ATOM     17  OXT UNL     1       7.785  -5.243  24.057  0.00  0.00    -0.249 OA
BRANCH  16  18
ATOM     18  O   UNL     1       9.936  -5.115  24.773  0.00  0.00    -0.480 OA
ATOM     19  H   UNL     1       9.766  -5.571  25.635  0.00  0.00    +0.295 HD
ENDBRANCH  16  18
ENDBRANCH  12  16
ENDBRANCH  11  12
ENDBRANCH   1  11
TORSDOF 7
ENDMDL
MODEL 6
REMARK VINA RESULT:      -5.0      2.161      3.147
REMARK  Name = 
REMARK  7 active torsions:
REMARK  status: ('A' for Active; 'I' for Inactive)
REMARK    1  A    between atoms: N_1  and  CA_2
REMARK    2  A    between atoms: CA_2  and  C_4
REMARK    3  A    between atoms: CA_2  and  C_13
REMARK    4  A    between atoms: C_4  and  C_5
REMARK    5  A    between atoms: C_7  and  O_8
REMARK    6  A    between atoms: C_9  and  O_10
REMARK    7  A    between atoms: C_13  and  O_14
REMARK                            x       y       z     vdW  Elec       q    Type
REMARK                         _______ _______ _______ _____ _____    ______ ____
ROOT
ATOM      1  C   UNL     1       8.424  -2.692  24.791  0.00  0.00    -0.042 A 
ATOM      2  C   UNL     1       8.661  -1.603  25.649  0.00  0.00    +0.007 A 
ATOM      3  C   UNL     1       9.481  -0.547  25.246  0.00  0.00    +0.049 A 
ATOM      4  C   UNL     1      10.037  -0.568  23.977  0.00  0.00    +0.158 A 
ATOM      5  C   UNL     1       9.777  -1.617  23.102  0.00  0.00    +0.158 A 
ATOM      6  C   UNL     1       8.973  -2.680  23.498  0.00  0.00    +0.053 A 
ENDROOT
BRANCH   4   7
ATOM      7  O   UNL     1      10.857   0.453  23.593  0.00  0.00    -0.503 OA
ATOM      8  H   UNL     1      10.252   1.113  23.197  0.00  0.00    +0.292 HD
ENDBRANCH   4   7
BRANCH   5   9
ATOM      9  O   UNL     1      10.350  -1.570  21.861  0.00  0.00    -0.503 OA
ATOM     10  H   UNL     1      10.597  -2.477  21.609  0.00  0.00    +0.292 HD
ENDBRANCH   5   9
BRANCH   1  11
ATOM     11  C   UNL     1       7.644  -3.897  25.275  0.00  0.00    +0.065 C 
BRANCH  11  12
ATOM     12  CA  UNL     1       8.154  -4.490  26.604  0.00  0.00    +0.165 C 
BRANCH  12  13
ATOM     13  N   UNL     1       9.540  -5.058  26.527  0.00  0.00    -0.318 NA
ATOM     14  H1  UNL     1       9.534  -5.984  26.970  0.00  0.00    +0.119 HD
ATOM     15  H2  UNL     1       9.737  -5.260  25.542  0.00  0.00    +0.119 HD
ENDBRANCH  12  13
BRANCH  12  16
ATOM     16  C   UNL     1       7.200  -5.573  27.136  0.00  0.00    +0.322 C 
ATOM     17  OXT UNL     1       7.204  -6.017  28.273  0.00  0.00    -0.249 OA
BRANCH  16  18
ATOM     18  O   UNL     1       6.340  -5.997  26.173  0.00  0.00    -0.480 OA
ATOM     19  H   UNL     1       5.565  -6.381  26.655  0.00  0.00    +0.295 HD
ENDBRANCH  16  18
ENDBRANCH  12  16
ENDBRANCH  11  12
ENDBRANCH   1  11
TORSDOF 7
ENDMDL
MODEL 7
REMARK VINA RESULT:      -5.0      1.990      6.052
REMARK  Name = 
REMARK  7 active torsions:
REMARK  status: ('A' for Active; 'I' for Inactive)
REMARK    1  A    between atoms: N_1  and  CA_2
REMARK    2  A    between atoms: CA_2  and  C_4
REMARK    3  A    between atoms: CA_2  and  C_13
REMARK    4  A    between atoms: C_4  and  C_5
REMARK    5  A    between atoms: C_7  and  O_8
REMARK    6  A    between atoms: C_9  and  O_10
REMARK    7  A    between atoms: C_13  and  O_14
REMARK                            x       y       z     vdW  Elec       q    Type
REMARK                         _______ _______ _______ _____ _____    ______ ____
ROOT
ATOM      1  C   UNL     1       8.165  -3.805  23.938  0.00  0.00    -0.042 A 
ATOM      2  C   UNL     1       9.269  -3.861  24.807  0.00  0.00    +0.007 A 
ATOM      3  C   UNL     1       9.192  -4.569  26.007  0.00  0.00    +0.049 A 
ATOM      4  C   UNL     1       8.022  -5.242  26.322  0.00  0.00    +0.158 A 
ATOM      5  C   UNL     1       6.937  -5.230  25.452  0.00  0.00    +0.158 A 
ATOM      6  C   UNL     1       6.999  -4.518  24.261  0.00  0.00    +0.053 A 
ENDROOT
BRANCH   4   7
ATOM      7  O   UNL     1       7.940  -5.913  27.508  0.00  0.00    -0.503 OA
ATOM      8  H   UNL     1       8.872  -6.062  27.767  0.00  0.00    +0.292 HD
ENDBRANCH   4   7
BRANCH   5   9
ATOM      9  O   UNL     1       5.817  -5.924  25.820  0.00  0.00    -0.503 OA
ATOM     10  H   UNL     1       5.243  -6.006  25.038  0.00  0.00    +0.292 HD
ENDBRANCH   5   9
BRANCH   1  11
ATOM     11  C   UNL     1       8.204  -2.931  22.700  0.00  0.00    +0.065 C 
BRANCH  11  12
ATOM     12  CA  UNL     1       8.357  -1.425  22.993  0.00  0.00    +0.165 C 
BRANCH  12  13
ATOM     13  N   UNL     1       7.070  -0.657  22.930  0.00  0.00    -0.318 NA
ATOM     14  H1  UNL     1       7.285   0.341  23.040  0.00  0.00    +0.119 HD
ATOM     15  H2  UNL     1       6.715  -0.726  21.972  0.00  0.00    +0.119 HD
ENDBRANCH  12  13
BRANCH  12  16
ATOM     16  C   UNL     1       9.375  -0.771  22.044  0.00  0.00    +0.322 C 
ATOM     17  OXT UNL     1       9.429   0.420  21.782  0.00  0.00    -0.249 OA
BRANCH  16  18
ATOM     18  O   UNL     1      10.220  -1.690  21.509  0.00  0.00    -0.480 OA
ATOM     19  H   UNL     1      10.321  -1.441  20.556  0.00  0.00    +0.295 HD
ENDBRANCH  16  18
ENDBRANCH  12  16
ENDBRANCH  11  12
ENDBRANCH   1  11
TORSDOF 7
ENDMDL
MODEL 8
REMARK VINA RESULT:      -5.0      2.067      5.522
REMARK  Name = 
REMARK  7 active torsions:
REMARK  status: ('A' for Active; 'I' for Inactive)
REMARK    1  A    between atoms: N_1  and  CA_2
REMARK    2  A    between atoms: CA_2  and  C_4
REMARK    3  A    between atoms: CA_2  and  C_13
REMARK    4  A    between atoms: C_4  and  C_5
REMARK    5  A    between atoms: C_7  and  O_8
REMARK    6  A    between atoms: C_9  and  O_10
REMARK    7  A    between atoms: C_13  and  O_14
REMARK                            x       y       z     vdW  Elec       q    Type
REMARK                         _______ _______ _______ _____ _____    ______ ____
ROOT
ATOM      1  C   UNL     1       9.346  -1.373  22.932  0.00  0.00    -0.042 A 
ATOM      2  C   UNL     1       7.968  -1.504  22.686  0.00  0.00    +0.007 A 
ATOM      3  C   UNL     1       7.272  -2.631  23.127  0.00  0.00    +0.049 A 
ATOM      4  C   UNL     1       7.948  -3.609  23.838  0.00  0.00    +0.158 A 
ATOM      5  C   UNL     1       9.302  -3.473  24.126  0.00  0.00    +0.158 A 
ATOM      6  C   UNL     1      10.007  -2.361  23.680  0.00  0.00    +0.053 A 
ENDROOT
BRANCH   4   7
ATOM      7  O   UNL     1       7.272  -4.722  24.248  0.00  0.00    -0.503 OA
ATOM      8  H   UNL     1       7.899  -5.457  24.093  0.00  0.00    +0.292 HD
ENDBRANCH   4   7
BRANCH   5   9
ATOM      9  O   UNL     1       9.906  -4.471  24.841  0.00  0.00    -0.503 OA
ATOM     10  H   UNL     1      10.762  -4.667  24.420  0.00  0.00    +0.292 HD
ENDBRANCH   5   9
BRANCH   1  11
ATOM     11  C   UNL     1      10.128  -0.217  22.342  0.00  0.00    +0.065 C 
BRANCH  11  12
ATOM     12  CA  UNL     1       9.524   1.171  22.638  0.00  0.00    +0.165 C 
BRANCH  12  13
ATOM     13  N   UNL     1       9.465   2.078  21.445  0.00  0.00    -0.318 NA
ATOM     14  H1  UNL     1       9.947   2.953  21.681  0.00  0.00    +0.119 HD
ATOM     15  H2  UNL     1      10.050   1.666  20.713  0.00  0.00    +0.119 HD
ENDBRANCH  12  13
BRANCH  12  16
ATOM     16  C   UNL     1      10.287   1.882  23.768  0.00  0.00    +0.322 C 
ATOM     17  OXT UNL     1      11.020   2.848  23.624  0.00  0.00    -0.249 OA
BRANCH  16  18
ATOM     18  O   UNL     1      10.055   1.297  24.971  0.00  0.00    -0.480 OA
ATOM     19  H   UNL     1      10.886   0.807  25.197  0.00  0.00    +0.295 HD
ENDBRANCH  16  18
ENDBRANCH  12  16
ENDBRANCH  11  12
ENDBRANCH   1  11
TORSDOF 7
ENDMDL
MODEL 9
REMARK VINA RESULT:      -4.9      1.994      5.938
REMARK  Name = 
REMARK  7 active torsions:
REMARK  status: ('A' for Active; 'I' for Inactive)
REMARK    1  A    between atoms: N_1  and  CA_2
REMARK    2  A    between atoms: CA_2  and  C_4
REMARK    3  A    between atoms: CA_2  and  C_13
REMARK    4  A    between atoms: C_4  and  C_5
REMARK    5  A    between atoms: C_7  and  O_8
REMARK    6  A    between atoms: C_9  and  O_10
REMARK    7  A    between atoms: C_13  and  O_14
REMARK                            x       y       z     vdW  Elec       q    Type
REMARK                         _______ _______ _______ _____ _____    ______ ____
ROOT
ATOM      1  C   UNL     1       8.808  -3.677  24.596  0.00  0.00    -0.042 A 
ATOM      2  C   UNL     1       7.626  -3.829  23.850  0.00  0.00    +0.007 A 
ATOM      3  C   UNL     1       6.603  -4.663  24.302  0.00  0.00    +0.049 A 
ATOM      4  C   UNL     1       6.751  -5.321  25.513  0.00  0.00    +0.158 A 
ATOM      5  C   UNL     1       7.896  -5.147  26.283  0.00  0.00    +0.158 A 
ATOM      6  C   UNL     1       8.926  -4.329  25.835  0.00  0.00    +0.053 A 
ENDROOT
BRANCH   4   7
ATOM      7  O   UNL     1       5.760  -6.156  25.943  0.00  0.00    -0.503 OA
ATOM      8  H   UNL     1       4.944  -5.784  25.551  0.00  0.00    +0.292 HD
ENDBRANCH   4   7
BRANCH   5   9
ATOM      9  O   UNL     1       7.974  -5.818  27.472  0.00  0.00    -0.503 OA
ATOM     10  H   UNL     1       7.501  -5.295  28.144  0.00  0.00    +0.292 HD
ENDBRANCH   5   9
BRANCH   1  11
ATOM     11  C   UNL     1       9.970  -2.877  24.043  0.00  0.00    +0.065 C 
BRANCH  11  12
ATOM     12  CA  UNL     1       9.553  -1.643  23.217  0.00  0.00    +0.165 C 
BRANCH  12  13
ATOM     13  N   UNL     1      10.037  -1.666  21.798  0.00  0.00    -0.318 NA
ATOM     14  H1  UNL     1      10.554  -0.798  21.620  0.00  0.00    +0.119 HD
ATOM     15  H2  UNL     1      10.752  -2.396  21.727  0.00  0.00    +0.119 HD
ENDBRANCH  12  13
BRANCH  12  16
ATOM     16  C   UNL     1      10.022  -0.339  23.883  0.00  0.00    +0.322 C 
ATOM     17  OXT UNL     1      10.525   0.608  23.300  0.00  0.00    -0.249 OA
BRANCH  16  18
ATOM     18  O   UNL     1       9.819  -0.364  25.226  0.00  0.00    -0.480 OA
ATOM     19  H   UNL     1      10.467  -1.021  25.584  0.00  0.00    +0.295 HD
ENDBRANCH  16  18
ENDBRANCH  12  16
ENDBRANCH  11  12
ENDBRANCH   1  11
TORSDOF 7
ENDMDL
