MODEL 1
REMARK VINA RESULT:      -8.1      0.000      0.000
REMARK  Name = 
REMARK  9 active torsions:
REMARK  status: ('A' for Active; 'I' for Inactive)
REMARK    1  A    between atoms: C_2  and  C_3
REMARK    2  A    between atoms: C_2  and  C_4
REMARK    3  A    between atoms: C_2  and  C_15
REMARK    4  A    between atoms: C_5  and  C_6
REMARK    5  A    between atoms: C_7  and  C_8
REMARK    6  A    between atoms: C_17  and  O_18
REMARK    7  A    between atoms: O_18  and  C_19
REMARK    8  A    between atoms: C_21  and  C_23
REMARK    9  A    between atoms: C_26  and  C_27
REMARK                            x       y       z     vdW  Elec       q    Type
REMARK                         _______ _______ _______ _____ _____    ______ ____
ROOT
ATOM      1  C   UNL     1       8.451  -5.193  25.396  0.00  0.00    +0.091 C 
ATOM      2  C   UNL     1       9.490  -4.624  26.369  0.00  0.00    +0.026 C 
ENDROOT
BRANCH   1   3
ATOM      3  C   UNL     1       8.228  -4.234  24.238  0.00  0.00    -0.029 A 
ATOM      4  C   UNL     1       8.882  -2.988  24.211  0.00  0.00    +0.013 A 
ATOM      5  C   UNL     1       8.626  -2.030  23.208  0.00  0.00    -0.014 A 
ATOM      6  C   UNL     1       7.695  -2.378  22.206  0.00  0.00    +0.054 A 
ATOM      7  C   UNL     1       7.065  -3.624  22.187  0.00  0.00    +0.121 A 
ATOM      8  C   UNL     1       7.331  -4.540  23.204  0.00  0.00    +0.050 A 
BRANCH   5   9
ATOM      9  C   UNL     1       9.275  -0.693  23.215  0.00  0.00    -0.018 A 
ATOM     10  C   UNL     1       9.345   0.098  22.052  0.00  0.00    +0.009 A 
ATOM     11  C   UNL     1       9.897   1.384  22.066  0.00  0.00    +0.004 A 
ATOM     12  C   UNL     1      10.419   1.919  23.244  0.00  0.00    -0.050 A 
ATOM     13  C   UNL     1      10.986   3.307  23.252  0.00  0.00    +0.044 C 
ATOM     14  C   UNL     1      10.392   1.140  24.402  0.00  0.00    +0.004 A 
ATOM     15  C   UNL     1       9.823  -0.140  24.386  0.00  0.00    +0.009 A 
ENDBRANCH   5   9
BRANCH   7  16
ATOM     16  O   UNL     1       6.164  -4.055  21.251  0.00  0.00    -0.495 OA
ATOM     17  C   UNL     1       6.120  -5.454  20.996  0.00  0.00    +0.277 C 
ENDBRANCH   7  16
ENDBRANCH   1   3
BRANCH   1  18
ATOM     18  C   UNL     1       7.199  -5.506  26.116  0.00  0.00    -0.089 C 
ATOM     19  C   UNL     1       6.196  -5.804  26.708  0.00  0.00    -0.060 C 
BRANCH  19  20
ATOM     20  C   UNL     1       5.039  -6.201  27.455  0.00  0.00    +0.085 A 
ATOM     21  C   UNL     1       5.129  -6.911  28.647  0.00  0.00    +0.137 A 
ATOM     22  N   UNL     1       6.361  -7.232  29.230  0.00  0.00    -0.342 N 
ATOM     23  H   UNL     1       6.983  -7.680  28.567  0.00  0.00    +0.144 HD
ATOM     24  H   UNL     1       6.171  -7.817  30.040  0.00  0.00    +0.144 HD
ATOM     25  N   UNL     1       4.053  -7.292  29.356  0.00  0.00    -0.199 NA
ATOM     26  C   UNL     1       2.859  -6.979  28.855  0.00  0.00    +0.215 A 
ATOM     27  N   UNL     1       1.740  -7.354  29.571  0.00  0.00    -0.327 N 
ATOM     28  H   UNL     1       1.980  -7.457  30.546  0.00  0.00    +0.145 HD
ATOM     29  H   UNL     1       0.976  -6.731  29.345  0.00  0.00    +0.145 HD
ATOM     30  N   UNL     1       2.658  -6.289  27.732  0.00  0.00    -0.219 NA
ATOM     31  C   UNL     1       3.752  -5.909  27.030  0.00  0.00    +0.060 A 
ATOM     32  C   UNL     1       3.455  -5.133  25.780  0.00  0.00    +0.067 C 
ENDBRANCH  19  20
ENDBRANCH   1  18
TORSDOF 5
ENDMDL
MODEL 2
REMARK VINA RESULT:      -7.7      2.599      4.241
REMARK  Name = 
REMARK  9 active torsions:
REMARK  status: ('A' for Active; 'I' for Inactive)
REMARK    1  A    between atoms: C_2  and  C_3
REMARK    2  A    between atoms: C_2  and  C_4
REMARK    3  A    between atoms: C_2  and  C_15
REMARK    4  A    between atoms: C_5  and  C_6
REMARK    5  A    between atoms: C_7  and  C_8
REMARK    6  A    between atoms: C_17  and  O_18
REMARK    7  A    between atoms: O_18  and  C_19
REMARK    8  A    between atoms: C_21  and  C_23
REMARK    9  A    between atoms: C_26  and  C_27
REMARK                            x       y       z     vdW  Elec       q    Type
REMARK                         _______ _______ _______ _____ _____    ______ ____
ROOT
ATOM      1  C   UNL     1       8.564  -1.831  22.939  0.00  0.00    +0.091 C 
ATOM      2  C   UNL     1      10.096  -1.891  22.972  0.00  0.00    +0.026 C 
ENDROOT
BRANCH   1   3
ATOM      3  C   UNL     1       8.081  -0.439  23.314  0.00  0.00    -0.029 A 
ATOM      4  C   UNL     1       8.963   0.657  23.265  0.00  0.00    +0.013 A 
ATOM      5  C   UNL     1       8.583   1.943  23.701  0.00  0.00    -0.014 A 
ATOM      6  C   UNL     1       7.263   2.101  24.174  0.00  0.00    +0.054 A 
ATOM      7  C   UNL     1       6.357   1.039  24.193  0.00  0.00    +0.121 A 
ATOM      8  C   UNL     1       6.772  -0.222  23.769  0.00  0.00    +0.050 A 
BRANCH   5   9
ATOM      9  C   UNL     1       9.535   3.086  23.701  0.00  0.00    -0.018 A 
ATOM     10  C   UNL     1       9.151   4.364  24.148  0.00  0.00    +0.009 A 
ATOM     11  C   UNL     1      10.059   5.428  24.212  0.00  0.00    +0.004 A 
ATOM     12  C   UNL     1      11.383   5.254  23.810  0.00  0.00    -0.050 A 
ATOM     13  C   UNL     1      12.353   6.393  23.905  0.00  0.00    +0.044 C 
ATOM     14  C   UNL     1      11.779   4.004  23.331  0.00  0.00    +0.004 A 
ATOM     15  C   UNL     1      10.870   2.938  23.286  0.00  0.00    +0.009 A 
ENDBRANCH   5   9
BRANCH   7  16
ATOM     16  O   UNL     1       5.056   1.099  24.617  0.00  0.00    -0.495 OA
ATOM     17  C   UNL     1       4.603   2.348  25.127  0.00  0.00    +0.277 C 
ENDBRANCH   7  16
ENDBRANCH   1   3
BRANCH   1  18
ATOM     18  C   UNL     1       7.994  -2.878  23.810  0.00  0.00    -0.089 C 
ATOM     19  C   UNL     1       7.531  -3.700  24.555  0.00  0.00    -0.060 C 
BRANCH  19  20
ATOM     20  C   UNL     1       6.945  -4.629  25.476  0.00  0.00    +0.085 A 
ATOM     21  C   UNL     1       7.674  -5.227  26.498  0.00  0.00    +0.137 A 
ATOM     22  N   UNL     1       9.020  -4.915  26.732  0.00  0.00    -0.342 N 
ATOM     23  H   UNL     1       9.573  -4.987  25.886  0.00  0.00    +0.144 HD
ATOM     24  H   UNL     1       9.352  -5.534  27.467  0.00  0.00    +0.144 HD
ATOM     25  N   UNL     1       7.139  -6.100  27.367  0.00  0.00    -0.199 NA
ATOM     26  C   UNL     1       5.852  -6.402  27.201  0.00  0.00    +0.215 A 
ATOM     27  N   UNL     1       5.278  -7.292  28.088  0.00  0.00    -0.327 N 
ATOM     28  H   UNL     1       5.793  -7.284  28.956  0.00  0.00    +0.145 HD
ATOM     29  H   UNL     1       4.283  -7.120  28.136  0.00  0.00    +0.145 HD
ATOM     30  N   UNL     1       5.056  -5.877  26.269  0.00  0.00    -0.219 NA
ATOM     31  C   UNL     1       5.610  -4.996  25.403  0.00  0.00    +0.060 A 
ATOM     32  C   UNL     1       4.659  -4.440  24.382  0.00  0.00    +0.067 C 
ENDBRANCH  19  20
ENDBRANCH   1  18
TORSDOF 5
ENDMDL
MODEL 3
REMARK VINA RESULT:      -7.4      2.649      4.437
REMARK  Name = 
REMARK  9 active torsions:
REMARK  status: ('A' for Active; 'I' for Inactive)
REMARK    1  A    between atoms: C_2  and  C_3
REMARK    2  A    between atoms: C_2  and  C_4
REMARK    3  A    between atoms: C_2  and  C_15
REMARK    4  A    between atoms: C_5  and  C_6
REMARK    5  A    between atoms: C_7  and  C_8
REMARK    6  A    between atoms: C_17  and  O_18
REMARK    7  A    between atoms: O_18  and  C_19
REMARK    8  A    between atoms: C_21  and  C_23
REMARK    9  A    between atoms: C_26  and  C_27
REMARK                            x       y       z     vdW  Elec       q    Type
REMARK                         _______ _______ _______ _____ _____    ______ ____
ROOT
ATOM      1  C   UNL     1       7.787  -1.757  22.842  0.00  0.00    +0.091 C 
ATOM      2  C   UNL     1       9.293  -1.913  22.599  0.00  0.00    +0.026 C 
ENDROOT
BRANCH   1   3
ATOM      3  C   UNL     1       7.475  -0.358  23.349  0.00  0.00    -0.029 A 
ATOM      4  C   UNL     1       8.434   0.666  23.247  0.00  0.00    +0.013 A 
ATOM      5  C   UNL     1       8.222   1.948  23.794  0.00  0.00    -0.014 A 
ATOM      6  C   UNL     1       6.987   2.178  24.437  0.00  0.00    +0.054 A 
ATOM      7  C   UNL     1       6.002   1.192  24.514  0.00  0.00    +0.121 A 
ATOM      8  C   UNL     1       6.254  -0.068  23.975  0.00  0.00    +0.050 A 
BRANCH   5   9
ATOM      9  C   UNL     1       9.261   3.010  23.735  0.00  0.00    -0.018 A 
ATOM     10  C   UNL     1       8.968   4.346  24.066  0.00  0.00    +0.009 A 
ATOM     11  C   UNL     1       9.956   5.338  24.076  0.00  0.00    +0.004 A 
ATOM     12  C   UNL     1      11.272   5.031  23.733  0.00  0.00    -0.050 A 
ATOM     13  C   UNL     1      12.327   6.096  23.769  0.00  0.00    +0.044 C 
ATOM     14  C   UNL     1      11.580   3.719  23.367  0.00  0.00    +0.004 A 
ATOM     15  C   UNL     1      10.591   2.727  23.377  0.00  0.00    +0.009 A 
ENDBRANCH   5   9
BRANCH   7  16
ATOM     16  O   UNL     1       4.773   1.328  25.101  0.00  0.00    -0.495 OA
ATOM     17  C   UNL     1       4.576   0.660  26.342  0.00  0.00    +0.277 C 
ENDBRANCH   7  16
ENDBRANCH   1   3
BRANCH   1  18
ATOM     18  C   UNL     1       7.309  -2.809  23.763  0.00  0.00    -0.089 C 
ATOM     19  C   UNL     1       6.957  -3.656  24.539  0.00  0.00    -0.060 C 
BRANCH  19  20
ATOM     20  C   UNL     1       6.565  -4.629  25.516  0.00  0.00    +0.085 A 
ATOM     21  C   UNL     1       5.293  -5.190  25.541  0.00  0.00    +0.137 A 
ATOM     22  N   UNL     1       4.327  -4.885  24.573  0.00  0.00    -0.342 N 
ATOM     23  H   UNL     1       4.212  -3.884  24.462  0.00  0.00    +0.144 HD
ATOM     24  H   UNL     1       3.464  -5.347  24.849  0.00  0.00    +0.144 HD
ATOM     25  N   UNL     1       4.911  -6.100  26.452  0.00  0.00    -0.199 NA
ATOM     26  C   UNL     1       5.809  -6.444  27.374  0.00  0.00    +0.215 A 
ATOM     27  N   UNL     1       5.440  -7.384  28.315  0.00  0.00    -0.327 N 
ATOM     28  H   UNL     1       4.699  -7.961  27.946  0.00  0.00    +0.145 HD
ATOM     29  H   UNL     1       6.268  -7.854  28.658  0.00  0.00    +0.145 HD
ATOM     30  N   UNL     1       7.059  -5.983  27.433  0.00  0.00    -0.219 NA
ATOM     31  C   UNL     1       7.430  -5.068  26.506  0.00  0.00    +0.060 A 
ATOM     32  C   UNL     1       8.850  -4.594  26.627  0.00  0.00    +0.067 C 
ENDBRANCH  19  20
ENDBRANCH   1  18
TORSDOF 5
ENDMDL
MODEL 4
REMARK VINA RESULT:      -7.1      2.321      3.510
REMARK  Name = 
REMARK  9 active torsions:
REMARK  status: ('A' for Active; 'I' for Inactive)
REMARK    1  A    between atoms: C_2  and  C_3
REMARK    2  A    between atoms: C_2  and  C_4
REMARK    3  A    between atoms: C_2  and  C_15
REMARK    4  A    between atoms: C_5  and  C_6
REMARK    5  A    between atoms: C_7  and  C_8
REMARK    6  A    between atoms: C_17  and  O_18
REMARK    7  A    between atoms: O_18  and  C_19
REMARK    8  A    between atoms: C_21  and  C_23
REMARK    9  A    between atoms: C_26  and  C_27
REMARK                            x       y       z     vdW  Elec       q    Type
REMARK                         _______ _______ _______ _____ _____    ______ ____
ROOT
ATOM      1  C   UNL     1       5.770  -4.638  22.019  0.00  0.00    +0.091 C 
ATOM      2  C   UNL     1       6.473  -5.683  21.143  0.00  0.00    +0.026 C 
ENDROOT
BRANCH   1   3
ATOM      3  C   UNL     1       6.793  -3.732  22.685  0.00  0.00    -0.029 A 
ATOM      4  C   UNL     1       6.694  -2.334  22.558  0.00  0.00    +0.013 A 
ATOM      5  C   UNL     1       7.676  -1.464  23.075  0.00  0.00    -0.014 A 
ATOM      6  C   UNL     1       8.766  -2.051  23.752  0.00  0.00    +0.054 A 
ATOM      7  C   UNL     1       8.865  -3.432  23.928  0.00  0.00    +0.121 A 
ATOM      8  C   UNL     1       7.884  -4.262  23.390  0.00  0.00    +0.050 A 
BRANCH   5   9
ATOM      9  C   UNL     1       7.597   0.009  22.889  0.00  0.00    -0.018 A 
ATOM     10  C   UNL     1       8.486   0.694  22.039  0.00  0.00    +0.009 A 
ATOM     11  C   UNL     1       8.377   2.070  21.810  0.00  0.00    +0.004 A 
ATOM     12  C   UNL     1       7.382   2.817  22.441  0.00  0.00    -0.050 A 
ATOM     13  C   UNL     1       7.259   4.286  22.170  0.00  0.00    +0.044 C 
ATOM     14  C   UNL     1       6.510   2.166  23.315  0.00  0.00    +0.004 A 
ATOM     15  C   UNL     1       6.613   0.785  23.527  0.00  0.00    +0.009 A 
ENDBRANCH   5   9
BRANCH   7  16
ATOM     16  O   UNL     1       9.874  -4.089  24.581  0.00  0.00    -0.495 OA
ATOM     17  C   UNL     1       9.502  -5.209  25.376  0.00  0.00    +0.277 C 
ENDBRANCH   7  16
ENDBRANCH   1   3
BRANCH   1  18
ATOM     18  C   UNL     1       4.888  -5.305  22.997  0.00  0.00    -0.089 C 
ATOM     19  C   UNL     1       4.206  -5.853  23.822  0.00  0.00    -0.060 C 
BRANCH  19  20
ATOM     20  C   UNL     1       3.433  -6.478  24.856  0.00  0.00    +0.085 A 
ATOM     21  C   UNL     1       2.520  -7.492  24.593  0.00  0.00    +0.137 A 
ATOM     22  N   UNL     1       2.337  -8.014  23.306  0.00  0.00    -0.342 N 
ATOM     23  H   UNL     1       2.175  -7.281  22.625  0.00  0.00    +0.144 HD
ATOM     24  H   UNL     1       1.567  -8.677  23.353  0.00  0.00    +0.144 HD
ATOM     25  N   UNL     1       1.787  -8.085  25.551  0.00  0.00    -0.199 NA
ATOM     26  C   UNL     1       1.952  -7.641  26.796  0.00  0.00    +0.215 A 
ATOM     27  N   UNL     1       1.215  -8.242  27.798  0.00  0.00    -0.327 N 
ATOM     28  H   UNL     1       0.958  -9.176  27.516  0.00  0.00    +0.145 HD
ATOM     29  H   UNL     1       1.704  -8.140  28.678  0.00  0.00    +0.145 HD
ATOM     30  N   UNL     1       2.810  -6.689  27.162  0.00  0.00    -0.219 NA
ATOM     31  C   UNL     1       3.544  -6.104  26.186  0.00  0.00    +0.060 A 
ATOM     32  C   UNL     1       4.492  -5.043  26.665  0.00  0.00    +0.067 C 
ENDBRANCH  19  20
ENDBRANCH   1  18
TORSDOF 5
ENDMDL
MODEL 5
REMARK VINA RESULT:      -6.8      2.838      4.266
REMARK  Name = 
REMARK  9 active torsions:
REMARK  status: ('A' for Active; 'I' for Inactive)
REMARK    1  A    between atoms: C_2  and  C_3
REMARK    2  A    between atoms: C_2  and  C_4
REMARK    3  A    between atoms: C_2  and  C_15
REMARK    4  A    between atoms: C_5  and  C_6
REMARK    5  A    between atoms: C_7  and  C_8
REMARK    6  A    between atoms: C_17  and  O_18
REMARK    7  A    between atoms: O_18  and  C_19
REMARK    8  A    between atoms: C_21  and  C_23
REMARK    9  A    between atoms: C_26  and  C_27
REMARK                            x       y       z     vdW  Elec       q    Type
REMARK                         _______ _______ _______ _____ _____    ______ ____
ROOT
ATOM      1  C   UNL     1       5.866  -1.299  26.344  0.00  0.00    +0.091 C 
ATOM      2  C   UNL     1       5.039  -0.009  26.305  0.00  0.00    +0.026 C 
ENDROOT
BRANCH   1   3
ATOM      3  C   UNL     1       7.222  -1.078  25.692  0.00  0.00    -0.029 A 
ATOM      4  C   UNL     1       7.697   0.226  25.465  0.00  0.00    +0.013 A 
ATOM      5  C   UNL     1       8.901   0.475  24.773  0.00  0.00    -0.014 A 
ATOM      6  C   UNL     1       9.634  -0.646  24.331  0.00  0.00    +0.054 A 
ATOM      7  C   UNL     1       9.205  -1.952  24.581  0.00  0.00    +0.121 A 
ATOM      8  C   UNL     1       8.002  -2.159  25.253  0.00  0.00    +0.050 A 
BRANCH   5   9
ATOM      9  C   UNL     1       9.371   1.856  24.485  0.00  0.00    -0.018 A 
ATOM     10  C   UNL     1      10.567   2.095  23.782  0.00  0.00    +0.009 A 
ATOM     11  C   UNL     1      10.983   3.390  23.451  0.00  0.00    +0.004 A 
ATOM     12  C   UNL     1      10.224   4.497  23.830  0.00  0.00    -0.050 A 
ATOM     13  C   UNL     1      10.666   5.878  23.449  0.00  0.00    +0.044 C 
ATOM     14  C   UNL     1       9.051   4.286  24.558  0.00  0.00    +0.004 A 
ATOM     15  C   UNL     1       8.631   2.987  24.871  0.00  0.00    +0.009 A 
ENDBRANCH   5   9
BRANCH   7  16
ATOM     16  O   UNL     1       9.854  -3.097  24.205  0.00  0.00    -0.495 OA
ATOM     17  C   UNL     1       9.237  -4.331  24.555  0.00  0.00    +0.277 C 
ENDBRANCH   7  16
ENDBRANCH   1   3
BRANCH   1  18
ATOM     18  C   UNL     1       5.114  -2.405  25.716  0.00  0.00    -0.089 C 
ATOM     19  C   UNL     1       4.523  -3.295  25.166  0.00  0.00    -0.060 C 
BRANCH  19  20
ATOM     20  C   UNL     1       3.875  -4.367  24.469  0.00  0.00    +0.085 A 
ATOM     21  C   UNL     1       2.758  -5.019  24.978  0.00  0.00    +0.137 A 
ATOM     22  N   UNL     1       2.153  -4.631  26.181  0.00  0.00    -0.342 N 
ATOM     23  H   UNL     1       2.829  -4.561  26.932  0.00  0.00    +0.144 HD
ATOM     24  H   UNL     1       1.416  -5.302  26.381  0.00  0.00    +0.144 HD
ATOM     25  N   UNL     1       2.141  -6.026  24.337  0.00  0.00    -0.199 NA
ATOM     26  C   UNL     1       2.664  -6.409  23.173  0.00  0.00    +0.215 A 
ATOM     27  N   UNL     1       2.042  -7.437  22.493  0.00  0.00    -0.327 N 
ATOM     28  H   UNL     1       1.072  -7.488  22.768  0.00  0.00    +0.145 HD
ATOM     29  H   UNL     1       2.240  -7.351  21.505  0.00  0.00    +0.145 HD
ATOM     30  N   UNL     1       3.719  -5.844  22.585  0.00  0.00    -0.219 NA
ATOM     31  C   UNL     1       4.327  -4.828  23.242  0.00  0.00    +0.060 A 
ATOM     32  C   UNL     1       5.506  -4.235  22.525  0.00  0.00    +0.067 C 
ENDBRANCH  19  20
ENDBRANCH   1  18
TORSDOF 5
ENDMDL
MODEL 6
REMARK VINA RESULT:      -6.8      4.768      7.825
REMARK  Name = 
REMARK  9 active torsions:
REMARK  status: ('A' for Active; 'I' for Inactive)
REMARK    1  A    between atoms: C_2  and  C_3
REMARK    2  A    between atoms: C_2  and  C_4
REMARK    3  A    between atoms: C_2  and  C_15
REMARK    4  A    between atoms: C_5  and  C_6
REMARK    5  A    between atoms: C_7  and  C_8
REMARK    6  A    between atoms: C_17  and  O_18
REMARK    7  A    between atoms: O_18  and  C_19
REMARK    8  A    between atoms: C_21  and  C_23
REMARK    9  A    between atoms: C_26  and  C_27
REMARK                            x       y       z     vdW  Elec       q    Type
REMARK                         _______ _______ _______ _____ _____    ______ ____
ROOT
ATOM      1  C   UNL     1       7.431  -5.275  23.099  0.00  0.00    +0.091 C 
ATOM      2  C   UNL     1       7.071  -5.605  21.646  0.00  0.00    +0.026 C 
ENDROOT
BRANCH   1   3
ATOM      3  C   UNL     1       6.210  -5.425  23.993  0.00  0.00    -0.029 A 
ATOM      4  C   UNL     1       5.942  -4.474  24.995  0.00  0.00    +0.013 A 
ATOM      5  C   UNL     1       4.879  -4.630  25.909  0.00  0.00    -0.014 A 
ATOM      6  C   UNL     1       4.071  -5.777  25.769  0.00  0.00    +0.054 A 
ATOM      7  C   UNL     1       4.291  -6.714  24.758  0.00  0.00    +0.121 A 
ATOM      8  C   UNL     1       5.360  -6.535  23.882  0.00  0.00    +0.050 A 
BRANCH   5   9
ATOM      9  C   UNL     1       4.633  -3.652  27.002  0.00  0.00    -0.018 A 
ATOM     10  C   UNL     1       4.973  -2.293  26.864  0.00  0.00    +0.009 A 
ATOM     11  C   UNL     1       4.685  -1.355  27.863  0.00  0.00    +0.004 A 
ATOM     12  C   UNL     1       4.062  -1.749  29.047  0.00  0.00    -0.050 A 
ATOM     13  C   UNL     1       3.737  -0.732  30.100  0.00  0.00    +0.044 C 
ATOM     14  C   UNL     1       3.747  -3.098  29.221  0.00  0.00    +0.004 A 
ATOM     15  C   UNL     1       4.021  -4.029  28.211  0.00  0.00    +0.009 A 
ENDBRANCH   5   9
BRANCH   7  16
ATOM     16  O   UNL     1       3.553  -7.846  24.535  0.00  0.00    -0.495 OA
ATOM     17  C   UNL     1       2.286  -7.924  25.177  0.00  0.00    +0.277 C 
ENDBRANCH   7  16
ENDBRANCH   1   3
BRANCH   1  18
ATOM     18  C   UNL     1       8.025  -3.925  23.181  0.00  0.00    -0.089 C 
ATOM     19  C   UNL     1       8.491  -2.822  23.290  0.00  0.00    -0.060 C 
BRANCH  19  20
ATOM     20  C   UNL     1       9.052  -1.518  23.488  0.00  0.00    +0.085 A 
ATOM     21  C   UNL     1       9.594  -0.773  22.447  0.00  0.00    +0.137 A 
ATOM     22  N   UNL     1       9.572  -1.224  21.120  0.00  0.00    -0.342 N 
ATOM     23  H   UNL     1       9.939  -2.164  21.039  0.00  0.00    +0.144 HD
ATOM     24  H   UNL     1      10.095  -0.553  20.563  0.00  0.00    +0.144 HD
ATOM     25  N   UNL     1      10.125   0.448  22.618  0.00  0.00    -0.199 NA
ATOM     26  C   UNL     1      10.138   0.930  23.861  0.00  0.00    +0.215 A 
ATOM     27  N   UNL     1      10.673   2.188  24.059  0.00  0.00    -0.327 N 
ATOM     28  H   UNL     1      10.617   2.719  23.203  0.00  0.00    +0.145 HD
ATOM     29  H   UNL     1      10.262   2.598  24.888  0.00  0.00    +0.145 HD
ATOM     30  N   UNL     1       9.633   0.311  24.927  0.00  0.00    -0.219 NA
ATOM     31  C   UNL     1       9.097  -0.919  24.737  0.00  0.00    +0.060 A 
ATOM     32  C   UNL     1       8.543  -1.559  25.977  0.00  0.00    +0.067 C 
ENDBRANCH  19  20
ENDBRANCH   1  18
TORSDOF 5
ENDMDL
MODEL 7
REMARK VINA RESULT:      -6.8      5.102      8.242
REMARK  Name = 
REMARK  9 active torsions:
REMARK  status: ('A' for Active; 'I' for Inactive)
REMARK    1  A    between atoms: C_2  and  C_3
REMARK    2  A    between atoms: C_2  and  C_4
REMARK    3  A    between atoms: C_2  and  C_15
REMARK    4  A    between atoms: C_5  and  C_6
REMARK    5  A    between atoms: C_7  and  C_8
REMARK    6  A    between atoms: C_17  and  O_18
REMARK    7  A    between atoms: O_18  and  C_19
REMARK    8  A    between atoms: C_21  and  C_23
REMARK    9  A    between atoms: C_26  and  C_27
REMARK                            x       y       z     vdW  Elec       q    Type
REMARK                         _______ _______ _______ _____ _____    ______ ____
ROOT
ATOM      1  C   UNL     1       8.328  -4.339  24.350  0.00  0.00    +0.091 C 
ATOM      2  C   UNL     1       7.665  -4.933  23.102  0.00  0.00    +0.026 C 
ENDROOT
BRANCH   1   3
ATOM      3  C   UNL     1       7.375  -4.393  25.533  0.00  0.00    -0.029 A 
ATOM      4  C   UNL     1       6.353  -3.436  25.668  0.00  0.00    +0.013 A 
ATOM      5  C   UNL     1       5.513  -3.391  26.800  0.00  0.00    -0.014 A 
ATOM      6  C   UNL     1       5.721  -4.368  27.796  0.00  0.00    +0.054 A 
ATOM      7  C   UNL     1       6.701  -5.355  27.667  0.00  0.00    +0.121 A 
ATOM      8  C   UNL     1       7.523  -5.358  26.541  0.00  0.00    +0.050 A 
BRANCH   5   9
ATOM      9  C   UNL     1       4.471  -2.343  26.965  0.00  0.00    -0.018 A 
ATOM     10  C   UNL     1       3.101  -2.642  26.851  0.00  0.00    +0.009 A 
ATOM     11  C   UNL     1       2.113  -1.674  27.069  0.00  0.00    +0.004 A 
ATOM     12  C   UNL     1       2.464  -0.363  27.391  0.00  0.00    -0.050 A 
ATOM     13  C   UNL     1       1.398   0.659  27.646  0.00  0.00    +0.044 C 
ATOM     14  C   UNL     1       3.818  -0.035  27.476  0.00  0.00    +0.004 A 
ATOM     15  C   UNL     1       4.802  -1.012  27.274  0.00  0.00    +0.009 A 
ENDBRANCH   5   9
BRANCH   7  16
ATOM     16  O   UNL     1       6.965  -6.349  28.570  0.00  0.00    -0.495 OA
ATOM     17  C   UNL     1       6.095  -6.447  29.692  0.00  0.00    +0.277 C 
ENDBRANCH   7  16
ENDBRANCH   1   3
BRANCH   1  18
ATOM     18  C   UNL     1       8.800  -2.967  24.071  0.00  0.00    -0.089 C 
ATOM     19  C   UNL     1       9.143  -1.834  23.859  0.00  0.00    -0.060 C 
BRANCH  19  20
ATOM     20  C   UNL     1       9.514  -0.464  23.661  0.00  0.00    +0.085 A 
ATOM     21  C   UNL     1       9.732   0.409  24.721  0.00  0.00    +0.137 A 
ATOM     22  N   UNL     1       9.662  -0.009  26.056  0.00  0.00    -0.342 N 
ATOM     23  H   UNL     1       8.799  -0.504  26.248  0.00  0.00    +0.144 HD
ATOM     24  H   UNL     1       9.774   0.816  26.640  0.00  0.00    +0.144 HD
ATOM     25  N   UNL     1      10.077   1.696  24.551  0.00  0.00    -0.199 NA
ATOM     26  C   UNL     1      10.186   2.130  23.296  0.00  0.00    +0.215 A 
ATOM     27  N   UNL     1      10.548   3.448  23.098  0.00  0.00    -0.327 N 
ATOM     28  H   UNL     1      11.056   3.784  23.903  0.00  0.00    +0.145 HD
ATOM     29  H   UNL     1      10.995   3.539  22.195  0.00  0.00    +0.145 HD
ATOM     30  N   UNL     1      10.017   1.378  22.209  0.00  0.00    -0.219 NA
ATOM     31  C   UNL     1       9.672   0.081  22.397  0.00  0.00    +0.060 A 
ATOM     32  C   UNL     1       9.501  -0.710  21.133  0.00  0.00    +0.067 C 
ENDBRANCH  19  20
ENDBRANCH   1  18
TORSDOF 5
ENDMDL
MODEL 8
REMARK VINA RESULT:      -6.7      4.964      8.572
REMARK  Name = 
REMARK  9 active torsions:
REMARK  status: ('A' for Active; 'I' for Inactive)
REMARK    1  A    between atoms: C_2  and  C_3
REMARK    2  A    between atoms: C_2  and  C_4
REMARK    3  A    between atoms: C_2  and  C_15
REMARK    4  A    between atoms: C_5  and  C_6
REMARK    5  A    between atoms: C_7  and  C_8
REMARK    6  A    between atoms: C_17  and  O_18
REMARK    7  A    between atoms: O_18  and  C_19
REMARK    8  A    between atoms: C_21  and  C_23
REMARK    9  A    between atoms: C_26  and  C_27
REMARK                            x       y       z     vdW  Elec       q    Type
REMARK                         _______ _______ _______ _____ _____    ______ ____
ROOT
ATOM      1  C   UNL     1       9.053  -1.939  24.261  0.00  0.00    +0.091 C 
ATOM      2  C   UNL     1      10.286  -2.093  23.364  0.00  0.00    +0.026 C 
ENDROOT
BRANCH   1   3
ATOM      3  C   UNL     1       8.155  -3.161  24.140  0.00  0.00    -0.029 A 
ATOM      4  C   UNL     1       7.438  -3.629  25.257  0.00  0.00    +0.013 A 
ATOM      5  C   UNL     1       6.675  -4.814  25.213  0.00  0.00    -0.014 A 
ATOM      6  C   UNL     1       6.637  -5.511  23.987  0.00  0.00    +0.054 A 
ATOM      7  C   UNL     1       7.304  -5.044  22.853  0.00  0.00    +0.121 A 
ATOM      8  C   UNL     1       8.062  -3.878  22.938  0.00  0.00    +0.050 A 
BRANCH   5   9
ATOM      9  C   UNL     1       5.966  -5.337  26.411  0.00  0.00    -0.018 A 
ATOM     10  C   UNL     1       6.633  -5.536  27.634  0.00  0.00    +0.009 A 
ATOM     11  C   UNL     1       5.958  -5.966  28.782  0.00  0.00    +0.004 A 
ATOM     12  C   UNL     1       4.590  -6.233  28.742  0.00  0.00    -0.050 A 
ATOM     13  C   UNL     1       3.872  -6.670  29.983  0.00  0.00    +0.044 C 
ATOM     14  C   UNL     1       3.913  -6.076  27.531  0.00  0.00    +0.004 A 
ATOM     15  C   UNL     1       4.590  -5.628  26.389  0.00  0.00    +0.009 A 
ENDBRANCH   5   9
BRANCH   7  16
ATOM     16  O   UNL     1       7.312  -5.642  21.621  0.00  0.00    -0.495 OA
ATOM     17  C   UNL     1       6.091  -5.628  20.892  0.00  0.00    +0.277 C 
ENDBRANCH   7  16
ENDBRANCH   1   3
BRANCH   1  18
ATOM     18  C   UNL     1       8.343  -0.685  23.939  0.00  0.00    -0.089 C 
ATOM     19  C   UNL     1       7.805   0.355  23.667  0.00  0.00    -0.060 C 
BRANCH  19  20
ATOM     20  C   UNL     1       7.215   1.607  23.294  0.00  0.00    +0.085 A 
ATOM     21  C   UNL     1       7.760   2.425  22.311  0.00  0.00    +0.137 A 
ATOM     22  N   UNL     1       8.892   2.051  21.576  0.00  0.00    -0.342 N 
ATOM     23  H   UNL     1       9.652   1.762  22.181  0.00  0.00    +0.144 HD
ATOM     24  H   UNL     1       9.145   2.839  20.985  0.00  0.00    +0.144 HD
ATOM     25  N   UNL     1       7.219   3.602  21.953  0.00  0.00    -0.199 NA
ATOM     26  C   UNL     1       6.121   3.983  22.605  0.00  0.00    +0.215 A 
ATOM     27  N   UNL     1       5.544   5.185  22.248  0.00  0.00    -0.327 N 
ATOM     28  H   UNL     1       5.794   5.412  21.297  0.00  0.00    +0.145 HD
ATOM     29  H   UNL     1       4.559   5.162  22.476  0.00  0.00    +0.145 HD
ATOM     30  N   UNL     1       5.506   3.271  23.550  0.00  0.00    -0.219 NA
ATOM     31  C   UNL     1       6.062   2.086  23.897  0.00  0.00    +0.060 A 
ATOM     32  C   UNL     1       5.318   1.334  24.963  0.00  0.00    +0.067 C 
ENDBRANCH  19  20
ENDBRANCH   1  18
TORSDOF 5
ENDMDL
MODEL 9
REMARK VINA RESULT:      -6.7      4.309      6.464
REMARK  Name = 
REMARK  9 active torsions:
REMARK  status: ('A' for Active; 'I' for Inactive)
REMARK    1  A    between atoms: C_2  and  C_3
REMARK    2  A    between atoms: C_2  and  C_4
REMARK    3  A    between atoms: C_2  and  C_15
REMARK    4  A    between atoms: C_5  and  C_6
REMARK    5  A    between atoms: C_7  and  C_8
REMARK    6  A    between atoms: C_17  and  O_18
REMARK    7  A    between atoms: O_18  and  C_19
REMARK    8  A    between atoms: C_21  and  C_23
REMARK    9  A    between atoms: C_26  and  C_27
REMARK                            x       y       z     vdW  Elec       q    Type
REMARK                         _______ _______ _______ _____ _____    ______ ____
ROOT
ATOM      1  C   UNL     1       9.116  -0.733  22.043  0.00  0.00    +0.091 C 
ATOM      2  C   UNL     1      10.382  -1.438  22.544  0.00  0.00    +0.026 C 
ENDROOT
BRANCH   1   3
ATOM      3  C   UNL     1       9.098   0.715  22.508  0.00  0.00    -0.029 A 
ATOM      4  C   UNL     1       7.892   1.439  22.529  0.00  0.00    +0.013 A 
ATOM      5  C   UNL     1       7.847   2.810  22.856  0.00  0.00    -0.014 A 
ATOM      6  C   UNL     1       9.069   3.433  23.188  0.00  0.00    +0.054 A 
ATOM      7  C   UNL     1      10.272   2.726  23.216  0.00  0.00    +0.121 A 
ATOM      8  C   UNL     1      10.280   1.376  22.871  0.00  0.00    +0.050 A 
BRANCH   5   9
ATOM      9  C   UNL     1       6.579   3.586  22.821  0.00  0.00    -0.018 A 
ATOM     10  C   UNL     1       6.577   4.994  22.828  0.00  0.00    +0.009 A 
ATOM     11  C   UNL     1       5.390   5.730  22.730  0.00  0.00    +0.004 A 
ATOM     12  C   UNL     1       4.159   5.082  22.642  0.00  0.00    -0.050 A 
ATOM     13  C   UNL     1       2.897   5.881  22.513  0.00  0.00    +0.044 C 
ATOM     14  C   UNL     1       4.134   3.686  22.667  0.00  0.00    +0.004 A 
ATOM     15  C   UNL     1       5.325   2.954  22.747  0.00  0.00    +0.009 A 
ENDBRANCH   5   9
BRANCH   7  16
ATOM     16  O   UNL     1      11.499   3.241  23.539  0.00  0.00    -0.495 OA
ATOM     17  C   UNL     1      11.661   4.648  23.412  0.00  0.00    +0.277 C 
ENDBRANCH   7  16
ENDBRANCH   1   3
BRANCH   1  18
ATOM     18  C   UNL     1       7.916  -1.478  22.475  0.00  0.00    -0.089 C 
ATOM     19  C   UNL     1       6.950  -2.118  22.797  0.00  0.00    -0.060 C 
BRANCH  19  20
ATOM     20  C   UNL     1       5.838  -2.940  23.173  0.00  0.00    +0.085 A 
ATOM     21  C   UNL     1       5.435  -4.038  22.421  0.00  0.00    +0.137 A 
ATOM     22  N   UNL     1       6.128  -4.450  21.276  0.00  0.00    -0.342 N 
ATOM     23  H   UNL     1       6.275  -3.682  20.631  0.00  0.00    +0.144 HD
ATOM     24  H   UNL     1       5.600  -5.212  20.858  0.00  0.00    +0.144 HD
ATOM     25  N   UNL     1       4.393  -4.815  22.759  0.00  0.00    -0.199 NA
ATOM     26  C   UNL     1       3.723  -4.479  23.860  0.00  0.00    +0.215 A 
ATOM     27  N   UNL     1       2.653  -5.269  24.232  0.00  0.00    -0.327 N 
ATOM     28  H   UNL     1       2.769  -6.197  23.852  0.00  0.00    +0.145 HD
ATOM     29  H   UNL     1       2.511  -5.190  25.230  0.00  0.00    +0.145 HD
ATOM     30  N   UNL     1       4.031  -3.460  24.663  0.00  0.00    -0.219 NA
ATOM     31  C   UNL     1       5.086  -2.687  24.310  0.00  0.00    +0.060 A 
ATOM     32  C   UNL     1       5.382  -1.560  25.257  0.00  0.00    +0.067 C 
ENDBRANCH  19  20
ENDBRANCH   1  18
TORSDOF 5
ENDMDL
