MODEL 1
REMARK VINA RESULT:      -5.8      0.000      0.000
REMARK  Name = 
REMARK  17 active torsions:
REMARK  status: ('A' for Active; 'I' for Inactive)
REMARK    1  A    between atoms: C_2  and  C_3
REMARK    2  A    between atoms: C_2  and  C_4
REMARK    3  A    between atoms: C_2  and  C_15
REMARK    4  A    between atoms: C_4  and  C_5
REMARK    5  A    between atoms: C_5  and  C_6
REMARK    6  A    between atoms: C_6  and  N_8
REMARK    7  A    between atoms: C_6  and  C_9
REMARK    8  A    between atoms: C_9  and  C_11
REMARK    9  A    between atoms: C_9  and  C_12
REMARK   10  A    between atoms: C_12  and  O_13
REMARK   11  A    between atoms: C_15  and  C_16
REMARK   12  A    between atoms: C_16  and  C_18
REMARK   13  A    between atoms: C_16  and  C_19
REMARK   14  A    between atoms: C_19  and  C_21
REMARK   15  A    between atoms: C_19  and  O_28
REMARK   16  A    between atoms: C_21  and  C_22
REMARK   17  A    between atoms: O_28  and  C_29
REMARK                            x       y       z     vdW  Elec       q    Type
REMARK                         _______ _______ _______ _____ _____    ______ ____
ROOT
ATOM      1  C   UNL     1       8.777  -1.804  25.584  0.00  0.00    -0.014 C 
ATOM      2  C   UNL     1       8.967  -0.603  26.510  0.00  0.00    +0.007 C 
ENDROOT
BRANCH   1   3
ATOM      3  C   UNL     1       7.948  -2.938  26.270  0.00  0.00    +0.009 C 
BRANCH   3   4
ATOM      4  C   UNL     1       8.615  -4.308  26.477  0.00  0.00    +0.015 C 
ATOM      5  C   UNL     1       9.685  -4.542  25.394  0.00  0.00    +0.010 C 
BRANCH   4   6
ATOM      6  C   UNL     1       7.596  -5.500  26.458  0.00  0.00    +0.125 C 
BRANCH   6   7
ATOM      7  O   UNL     1       7.406  -5.921  27.820  0.00  0.00    -0.379 OA
ATOM      8  C   UNL     1       6.092  -5.741  28.327  0.00  0.00    +0.194 C 
ENDBRANCH   6   7
BRANCH   6   9
ATOM      9  C   UNL     1       6.241  -5.267  25.724  0.00  0.00    +0.067 C 
BRANCH   9  10
ATOM     10  C   UNL     1       6.190  -4.994  24.234  0.00  0.00    -0.045 A 
ATOM     11  C   UNL     1       5.287  -4.017  23.771  0.00  0.00    +0.004 A 
ATOM     12  C   UNL     1       5.220  -3.674  22.419  0.00  0.00    +0.000 A 
ATOM     13  C   UNL     1       6.048  -4.312  21.501  0.00  0.00    +0.000 A 
ATOM     14  C   UNL     1       6.942  -5.285  21.938  0.00  0.00    +0.000 A 
ATOM     15  C   UNL     1       7.016  -5.617  23.292  0.00  0.00    +0.004 A 
ENDBRANCH   9  10
ENDBRANCH   6   9
ENDBRANCH   4   6
ENDBRANCH   3   4
ENDBRANCH   1   3
BRANCH   1  16
ATOM     16  C   UNL     1       7.975  -1.435  24.322  0.00  0.00    +0.005 C 
BRANCH  16  17
ATOM     17  C   UNL     1       8.367  -1.968  22.936  0.00  0.00    +0.019 C 
BRANCH  17  18
ATOM     18  C   UNL     1       8.791  -0.777  22.015  0.00  0.00    +0.064 C 
BRANCH  18  19
ATOM     19  N   UNL     1      10.122  -0.974  21.433  0.00  0.00    -0.326 NA
ATOM     20  H   UNL     1      10.417  -0.111  20.958  0.00  0.00    +0.118 HD
ATOM     21  H   UNL     1      10.818  -1.145  22.157  0.00  0.00    +0.118 HD
ENDBRANCH  18  19
BRANCH  18  22
ATOM     22  C   UNL     1       8.631   0.623  22.683  0.00  0.00    +0.111 C 
ATOM     23  C   UNL     1       7.533   1.484  22.068  0.00  0.00    +0.021 C 
BRANCH  22  24
ATOM     24  C   UNL     1       9.939   1.401  22.721  0.00  0.00    +0.309 C 
ATOM     25  O   UNL     1      10.764   1.330  23.621  0.00  0.00    -0.251 OA
BRANCH  24  26
ATOM     26  O   UNL     1      10.127   2.189  21.641  0.00  0.00    -0.480 OA
ATOM     27  H   UNL     1      11.054   2.444  21.475  0.00  0.00    +0.295 HD
ENDBRANCH  24  26
ENDBRANCH  22  24
ENDBRANCH  18  22
ENDBRANCH  17  18
ENDBRANCH  16  17
ENDBRANCH   1  16
TORSDOF 13
ENDMDL
MODEL 2
REMARK VINA RESULT:      -5.7      3.007      7.182
REMARK  Name = 
REMARK  17 active torsions:
REMARK  status: ('A' for Active; 'I' for Inactive)
REMARK    1  A    between atoms: C_2  and  C_3
REMARK    2  A    between atoms: C_2  and  C_4
REMARK    3  A    between atoms: C_2  and  C_15
REMARK    4  A    between atoms: C_4  and  C_5
REMARK    5  A    between atoms: C_5  and  C_6
REMARK    6  A    between atoms: C_6  and  N_8
REMARK    7  A    between atoms: C_6  and  C_9
REMARK    8  A    between atoms: C_9  and  C_11
REMARK    9  A    between atoms: C_9  and  C_12
REMARK   10  A    between atoms: C_12  and  O_13
REMARK   11  A    between atoms: C_15  and  C_16
REMARK   12  A    between atoms: C_16  and  C_18
REMARK   13  A    between atoms: C_16  and  C_19
REMARK   14  A    between atoms: C_19  and  C_21
REMARK   15  A    between atoms: C_19  and  O_28
REMARK   16  A    between atoms: C_21  and  C_22
REMARK   17  A    between atoms: O_28  and  C_29
REMARK                            x       y       z     vdW  Elec       q    Type
REMARK                         _______ _______ _______ _____ _____    ______ ____
ROOT
ATOM      1  C   UNL     1       6.722  -4.878  22.892  0.00  0.00    -0.014 C 
ATOM      2  C   UNL     1       7.429  -5.611  21.752  0.00  0.00    +0.007 C 
ENDROOT
BRANCH   1   3
ATOM      3  C   UNL     1       7.277  -3.429  23.081  0.00  0.00    +0.009 C 
BRANCH   3   4
ATOM      4  C   UNL     1       7.958  -3.074  24.413  0.00  0.00    +0.015 C 
ATOM      5  C   UNL     1       7.301  -1.823  25.025  0.00  0.00    +0.010 C 
BRANCH   4   6
ATOM      6  C   UNL     1       9.500  -2.827  24.272  0.00  0.00    +0.125 C 
BRANCH   6   7
ATOM      7  O   UNL     1      10.147  -4.109  24.362  0.00  0.00    -0.379 OA
ATOM      8  C   UNL     1       9.703  -4.933  25.429  0.00  0.00    +0.194 C 
ENDBRANCH   6   7
BRANCH   6   9
ATOM      9  C   UNL     1       9.981  -2.017  23.030  0.00  0.00    +0.067 C 
BRANCH   9  10
ATOM     10  C   UNL     1      10.132  -0.509  23.085  0.00  0.00    -0.045 A 
ATOM     11  C   UNL     1       9.864   0.225  21.914  0.00  0.00    +0.004 A 
ATOM     12  C   UNL     1       9.930   1.620  21.902  0.00  0.00    +0.000 A 
ATOM     13  C   UNL     1      10.280   2.307  23.060  0.00  0.00    +0.000 A 
ATOM     14  C   UNL     1      10.556   1.599  24.225  0.00  0.00    +0.000 A 
ATOM     15  C   UNL     1      10.476   0.205  24.239  0.00  0.00    +0.004 A 
ENDBRANCH   9  10
ENDBRANCH   6   9
ENDBRANCH   4   6
ENDBRANCH   3   4
ENDBRANCH   1   3
BRANCH   1  16
ATOM     16  C   UNL     1       5.219  -4.694  22.612  0.00  0.00    +0.005 C 
BRANCH  16  17
ATOM     17  C   UNL     1       4.150  -5.195  23.595  0.00  0.00    +0.019 C 
BRANCH  17  18
ATOM     18  C   UNL     1       4.783  -6.239  24.573  0.00  0.00    +0.064 C 
BRANCH  18  19
ATOM     19  N   UNL     1       4.160  -7.559  24.452  0.00  0.00    -0.326 NA
ATOM     20  H   UNL     1       3.159  -7.485  24.676  0.00  0.00    +0.118 HD
ATOM     21  H   UNL     1       4.206  -7.902  23.494  0.00  0.00    +0.118 HD
ENDBRANCH  18  19
BRANCH  18  22
ATOM     22  C   UNL     1       4.863  -5.748  26.052  0.00  0.00    +0.111 C 
ATOM     23  C   UNL     1       6.276  -5.420  26.521  0.00  0.00    +0.021 C 
BRANCH  22  24
ATOM     24  C   UNL     1       4.207  -6.720  27.022  0.00  0.00    +0.309 C 
ATOM     25  O   UNL     1       2.999  -6.844  27.171  0.00  0.00    -0.251 OA
BRANCH  24  26
ATOM     26  O   UNL     1       5.092  -7.467  27.715  0.00  0.00    -0.480 OA
ATOM     27  H   UNL     1       4.894  -8.422  27.737  0.00  0.00    +0.295 HD
ENDBRANCH  24  26
ENDBRANCH  22  24
ENDBRANCH  18  22
ENDBRANCH  17  18
ENDBRANCH  16  17
ENDBRANCH   1  16
TORSDOF 13
ENDMDL
MODEL 3
REMARK VINA RESULT:      -5.6      3.241      6.848
REMARK  Name = 
REMARK  17 active torsions:
REMARK  status: ('A' for Active; 'I' for Inactive)
REMARK    1  A    between atoms: C_2  and  C_3
REMARK    2  A    between atoms: C_2  and  C_4
REMARK    3  A    between atoms: C_2  and  C_15
REMARK    4  A    between atoms: C_4  and  C_5
REMARK    5  A    between atoms: C_5  and  C_6
REMARK    6  A    between atoms: C_6  and  N_8
REMARK    7  A    between atoms: C_6  and  C_9
REMARK    8  A    between atoms: C_9  and  C_11
REMARK    9  A    between atoms: C_9  and  C_12
REMARK   10  A    between atoms: C_12  and  O_13
REMARK   11  A    between atoms: C_15  and  C_16
REMARK   12  A    between atoms: C_16  and  C_18
REMARK   13  A    between atoms: C_16  and  C_19
REMARK   14  A    between atoms: C_19  and  C_21
REMARK   15  A    between atoms: C_19  and  O_28
REMARK   16  A    between atoms: C_21  and  C_22
REMARK   17  A    between atoms: O_28  and  C_29
REMARK                            x       y       z     vdW  Elec       q    Type
REMARK                         _______ _______ _______ _____ _____    ______ ____
ROOT
ATOM      1  C   UNL     1       7.147  -3.866  22.104  0.00  0.00    -0.014 C 
ATOM      2  C   UNL     1       5.936  -3.681  21.190  0.00  0.00    +0.007 C 
ENDROOT
BRANCH   1   3
ATOM      3  C   UNL     1       7.305  -2.673  23.103  0.00  0.00    +0.009 C 
BRANCH   3   4
ATOM      4  C   UNL     1       7.986  -2.938  24.456  0.00  0.00    +0.015 C 
ATOM      5  C   UNL     1       7.472  -1.939  25.509  0.00  0.00    +0.010 C 
BRANCH   4   6
ATOM      6  C   UNL     1       9.550  -2.852  24.387  0.00  0.00    +0.125 C 
BRANCH   6   7
ATOM      7  O   UNL     1      10.056  -4.194  24.501  0.00  0.00    -0.379 OA
ATOM      8  C   UNL     1       9.626  -4.904  25.652  0.00  0.00    +0.194 C 
ENDBRANCH   6   7
BRANCH   6   9
ATOM      9  C   UNL     1      10.169  -2.096  23.173  0.00  0.00    +0.067 C 
BRANCH   9  10
ATOM     10  C   UNL     1      10.150  -0.581  23.097  0.00  0.00    -0.045 A 
ATOM     11  C   UNL     1      10.553   0.142  24.236  0.00  0.00    +0.004 A 
ATOM     12  C   UNL     1      10.612   1.538  24.225  0.00  0.00    +0.000 A 
ATOM     13  C   UNL     1      10.256   2.237  23.076  0.00  0.00    +0.000 A 
ATOM     14  C   UNL     1       9.848   1.539  21.943  0.00  0.00    +0.000 A 
ATOM     15  C   UNL     1       9.803   0.144  21.952  0.00  0.00    +0.004 A 
ENDBRANCH   9  10
ENDBRANCH   6   9
ENDBRANCH   4   6
ENDBRANCH   3   4
ENDBRANCH   1   3
BRANCH   1  16
ATOM     16  C   UNL     1       7.009  -5.114  22.995  0.00  0.00    +0.005 C 
BRANCH  16  17
ATOM     17  C   UNL     1       5.918  -6.166  22.743  0.00  0.00    +0.019 C 
BRANCH  17  18
ATOM     18  C   UNL     1       4.867  -6.121  23.901  0.00  0.00    +0.064 C 
BRANCH  18  19
ATOM     19  N   UNL     1       4.217  -7.418  24.108  0.00  0.00    -0.326 NA
ATOM     20  H   UNL     1       3.521  -7.334  24.861  0.00  0.00    +0.118 HD
ATOM     21  H   UNL     1       3.697  -7.706  23.280  0.00  0.00    +0.118 HD
ENDBRANCH  18  19
BRANCH  18  22
ATOM     22  C   UNL     1       3.844  -4.950  23.777  0.00  0.00    +0.111 C 
ATOM     23  C   UNL     1       4.063  -3.825  24.783  0.00  0.00    +0.021 C 
BRANCH  22  24
ATOM     24  C   UNL     1       2.401  -5.432  23.843  0.00  0.00    +0.309 C 
ATOM     25  O   UNL     1       1.741  -5.509  24.870  0.00  0.00    -0.251 OA
BRANCH  24  26
ATOM     26  O   UNL     1       1.890  -5.764  22.639  0.00  0.00    -0.480 OA
ATOM     27  H   UNL     1       1.733  -6.718  22.509  0.00  0.00    +0.295 HD
ENDBRANCH  24  26
ENDBRANCH  22  24
ENDBRANCH  18  22
ENDBRANCH  17  18
ENDBRANCH  16  17
ENDBRANCH   1  16
TORSDOF 13
ENDMDL
MODEL 4
REMARK VINA RESULT:      -5.6      2.515      6.619
REMARK  Name = 
REMARK  17 active torsions:
REMARK  status: ('A' for Active; 'I' for Inactive)
REMARK    1  A    between atoms: C_2  and  C_3
REMARK    2  A    between atoms: C_2  and  C_4
REMARK    3  A    between atoms: C_2  and  C_15
REMARK    4  A    between atoms: C_4  and  C_5
REMARK    5  A    between atoms: C_5  and  C_6
REMARK    6  A    between atoms: C_6  and  N_8
REMARK    7  A    between atoms: C_6  and  C_9
REMARK    8  A    between atoms: C_9  and  C_11
REMARK    9  A    between atoms: C_9  and  C_12
REMARK   10  A    between atoms: C_12  and  O_13
REMARK   11  A    between atoms: C_15  and  C_16
REMARK   12  A    between atoms: C_16  and  C_18
REMARK   13  A    between atoms: C_16  and  C_19
REMARK   14  A    between atoms: C_19  and  C_21
REMARK   15  A    between atoms: C_19  and  O_28
REMARK   16  A    between atoms: C_21  and  C_22
REMARK   17  A    between atoms: O_28  and  C_29
REMARK                            x       y       z     vdW  Elec       q    Type
REMARK                         _______ _______ _______ _____ _____    ______ ____
ROOT
ATOM      1  C   UNL     1       8.641  -3.878  26.150  0.00  0.00    -0.014 C 
ATOM      2  C   UNL     1       9.581  -4.531  25.138  0.00  0.00    +0.007 C 
ENDROOT
BRANCH   1   3
ATOM      3  C   UNL     1       8.315  -2.397  25.766  0.00  0.00    +0.009 C 
BRANCH   3   4
ATOM      4  C   UNL     1       9.122  -1.742  24.632  0.00  0.00    +0.015 C 
ATOM      5  C   UNL     1       9.781  -0.445  25.135  0.00  0.00    +0.010 C 
BRANCH   4   6
ATOM      6  C   UNL     1       8.255  -1.420  23.365  0.00  0.00    +0.125 C 
BRANCH   6   7
ATOM      7  O   UNL     1       8.804  -0.235  22.763  0.00  0.00    -0.379 OA
ATOM      8  C   UNL     1       9.392  -0.426  21.485  0.00  0.00    +0.194 C 
ENDBRANCH   6   7
BRANCH   6   9
ATOM      9  C   UNL     1       8.059  -2.566  22.326  0.00  0.00    +0.067 C 
BRANCH   9  10
ATOM     10  C   UNL     1       7.015  -3.645  22.533  0.00  0.00    -0.045 A 
ATOM     11  C   UNL     1       5.721  -3.248  22.920  0.00  0.00    +0.004 A 
ATOM     12  C   UNL     1       4.693  -4.180  23.078  0.00  0.00    +0.000 A 
ATOM     13  C   UNL     1       4.945  -5.531  22.866  0.00  0.00    +0.000 A 
ATOM     14  C   UNL     1       6.220  -5.945  22.492  0.00  0.00    +0.000 A 
ATOM     15  C   UNL     1       7.242  -5.010  22.320  0.00  0.00    +0.004 A 
ENDBRANCH   9  10
ENDBRANCH   6   9
ENDBRANCH   4   6
ENDBRANCH   3   4
ENDBRANCH   1   3
BRANCH   1  16
ATOM     16  C   UNL     1       7.273  -4.583  26.203  0.00  0.00    +0.005 C 
BRANCH  16  17
ATOM     17  C   UNL     1       5.987  -3.819  26.551  0.00  0.00    +0.019 C 
BRANCH  17  18
ATOM     18  C   UNL     1       5.002  -4.767  27.312  0.00  0.00    +0.064 C 
BRANCH  18  19
ATOM     19  N   UNL     1       4.882  -4.416  28.730  0.00  0.00    -0.326 NA
ATOM     20  H   UNL     1       4.229  -3.628  28.832  0.00  0.00    +0.118 HD
ATOM     21  H   UNL     1       4.479  -5.183  29.267  0.00  0.00    +0.118 HD
ENDBRANCH  18  19
BRANCH  18  22
ATOM     22  C   UNL     1       5.292  -6.284  27.093  0.00  0.00    +0.111 C 
ATOM     23  C   UNL     1       4.320  -6.971  26.140  0.00  0.00    +0.021 C 
BRANCH  22  24
ATOM     24  C   UNL     1       5.367  -7.056  28.404  0.00  0.00    +0.309 C 
ATOM     25  O   UNL     1       6.399  -7.283  29.018  0.00  0.00    -0.251 OA
BRANCH  24  26
ATOM     26  O   UNL     1       4.162  -7.468  28.853  0.00  0.00    -0.480 OA
ATOM     27  H   UNL     1       3.397  -7.029  28.436  0.00  0.00    +0.295 HD
ENDBRANCH  24  26
ENDBRANCH  22  24
ENDBRANCH  18  22
ENDBRANCH  17  18
ENDBRANCH  16  17
ENDBRANCH   1  16
TORSDOF 13
ENDMDL
MODEL 5
REMARK VINA RESULT:      -5.4      3.183      5.405
REMARK  Name = 
REMARK  17 active torsions:
REMARK  status: ('A' for Active; 'I' for Inactive)
REMARK    1  A    between atoms: C_2  and  C_3
REMARK    2  A    between atoms: C_2  and  C_4
REMARK    3  A    between atoms: C_2  and  C_15
REMARK    4  A    between atoms: C_4  and  C_5
REMARK    5  A    between atoms: C_5  and  C_6
REMARK    6  A    between atoms: C_6  and  N_8
REMARK    7  A    between atoms: C_6  and  C_9
REMARK    8  A    between atoms: C_9  and  C_11
REMARK    9  A    between atoms: C_9  and  C_12
REMARK   10  A    between atoms: C_12  and  O_13
REMARK   11  A    between atoms: C_15  and  C_16
REMARK   12  A    between atoms: C_16  and  C_18
REMARK   13  A    between atoms: C_16  and  C_19
REMARK   14  A    between atoms: C_19  and  C_21
REMARK   15  A    between atoms: C_19  and  O_28
REMARK   16  A    between atoms: C_21  and  C_22
REMARK   17  A    between atoms: O_28  and  C_29
REMARK                            x       y       z     vdW  Elec       q    Type
REMARK                         _______ _______ _______ _____ _____    ______ ____
ROOT
ATOM      1  C   UNL     1       6.615  -1.161  24.241  0.00  0.00    -0.014 C 
ATOM      2  C   UNL     1       5.476  -1.350  25.242  0.00  0.00    +0.007 C 
ENDROOT
BRANCH   1   3
ATOM      3  C   UNL     1       6.476  -2.126  23.018  0.00  0.00    +0.009 C 
BRANCH   3   4
ATOM      4  C   UNL     1       7.686  -2.992  22.629  0.00  0.00    +0.015 C 
ATOM      5  C   UNL     1       7.232  -4.436  22.349  0.00  0.00    +0.010 C 
BRANCH   4   6
ATOM      6  C   UNL     1       8.809  -3.009  23.723  0.00  0.00    +0.125 C 
BRANCH   6   7
ATOM      7  O   UNL     1       9.047  -4.385  24.069  0.00  0.00    -0.379 OA
ATOM      8  C   UNL     1       9.323  -4.621  25.441  0.00  0.00    +0.194 C 
ENDBRANCH   6   7
BRANCH   6   9
ATOM      9  C   UNL     1      10.133  -2.253  23.397  0.00  0.00    +0.067 C 
BRANCH   9  10
ATOM     10  C   UNL     1      10.169  -0.741  23.291  0.00  0.00    -0.045 A 
ATOM     11  C   UNL     1       9.891  -0.159  22.039  0.00  0.00    +0.004 A 
ATOM     12  C   UNL     1       9.854   1.228  21.876  0.00  0.00    +0.000 A 
ATOM     13  C   UNL     1      10.108   2.059  22.962  0.00  0.00    +0.000 A 
ATOM     14  C   UNL     1      10.393   1.503  24.205  0.00  0.00    +0.000 A 
ATOM     15  C   UNL     1      10.416   0.117  24.369  0.00  0.00    +0.004 A 
ENDBRANCH   9  10
ENDBRANCH   6   9
ENDBRANCH   4   6
ENDBRANCH   3   4
ENDBRANCH   1   3
BRANCH   1  16
ATOM     16  C   UNL     1       6.616   0.254  23.631  0.00  0.00    +0.005 C 
BRANCH  16  17
ATOM     17  C   UNL     1       6.681   1.509  24.514  0.00  0.00    +0.019 C 
BRANCH  17  18
ATOM     18  C   UNL     1       5.526   2.489  24.121  0.00  0.00    +0.064 C 
BRANCH  18  19
ATOM     19  N   UNL     1       4.211   1.987  24.531  0.00  0.00    -0.326 NA
ATOM     20  H   UNL     1       3.594   2.782  24.741  0.00  0.00    +0.118 HD
ATOM     21  H   UNL     1       3.760   1.475  23.775  0.00  0.00    +0.118 HD
ENDBRANCH  18  19
BRANCH  18  22
ATOM     22  C   UNL     1       5.558   2.932  22.626  0.00  0.00    +0.111 C 
ATOM     23  C   UNL     1       6.814   3.702  22.233  0.00  0.00    +0.021 C 
BRANCH  22  24
ATOM     24  C   UNL     1       4.319   3.723  22.229  0.00  0.00    +0.309 C 
ATOM     25  O   UNL     1       3.236   3.226  21.952  0.00  0.00    -0.251 OA
BRANCH  24  26
ATOM     26  O   UNL     1       4.515   5.059  22.221  0.00  0.00    -0.480 OA
ATOM     27  H   UNL     1       3.932   5.555  21.616  0.00  0.00    +0.295 HD
ENDBRANCH  24  26
ENDBRANCH  22  24
ENDBRANCH  18  22
ENDBRANCH  17  18
ENDBRANCH  16  17
ENDBRANCH   1  16
TORSDOF 13
ENDMDL
MODEL 6
REMARK VINA RESULT:      -5.4      1.443      2.266
REMARK  Name = 
REMARK  17 active torsions:
REMARK  status: ('A' for Active; 'I' for Inactive)
REMARK    1  A    between atoms: C_2  and  C_3
REMARK    2  A    between atoms: C_2  and  C_4
REMARK    3  A    between atoms: C_2  and  C_15
REMARK    4  A    between atoms: C_4  and  C_5
REMARK    5  A    between atoms: C_5  and  C_6
REMARK    6  A    between atoms: C_6  and  N_8
REMARK    7  A    between atoms: C_6  and  C_9
REMARK    8  A    between atoms: C_9  and  C_11
REMARK    9  A    between atoms: C_9  and  C_12
REMARK   10  A    between atoms: C_12  and  O_13
REMARK   11  A    between atoms: C_15  and  C_16
REMARK   12  A    between atoms: C_16  and  C_18
REMARK   13  A    between atoms: C_16  and  C_19
REMARK   14  A    between atoms: C_19  and  C_21
REMARK   15  A    between atoms: C_19  and  O_28
REMARK   16  A    between atoms: C_21  and  C_22
REMARK   17  A    between atoms: O_28  and  C_29
REMARK                            x       y       z     vdW  Elec       q    Type
REMARK                         _______ _______ _______ _____ _____    ______ ____
ROOT
ATOM      1  C   UNL     1       7.493  -1.583  24.364  0.00  0.00    -0.014 C 
ATOM      2  C   UNL     1       6.278  -1.915  23.497  0.00  0.00    +0.007 C 
ENDROOT
BRANCH   1   3
ATOM      3  C   UNL     1       7.203  -1.825  25.882  0.00  0.00    +0.009 C 
BRANCH   3   4
ATOM      4  C   UNL     1       6.255  -2.971  26.271  0.00  0.00    +0.015 C 
ATOM      5  C   UNL     1       5.209  -2.469  27.283  0.00  0.00    +0.010 C 
BRANCH   4   6
ATOM      6  C   UNL     1       7.002  -4.211  26.876  0.00  0.00    +0.125 C 
BRANCH   6   7
ATOM      7  O   UNL     1       6.343  -4.544  28.111  0.00  0.00    -0.379 OA
ATOM      8  C   UNL     1       6.183  -5.934  28.350  0.00  0.00    +0.194 C 
ENDBRANCH   6   7
BRANCH   6   9
ATOM      9  C   UNL     1       7.179  -5.455  25.954  0.00  0.00    +0.067 C 
BRANCH   9  10
ATOM     10  C   UNL     1       6.638  -5.468  24.537  0.00  0.00    -0.045 A 
ATOM     11  C   UNL     1       7.563  -5.435  23.476  0.00  0.00    +0.004 A 
ATOM     12  C   UNL     1       7.143  -5.497  22.146  0.00  0.00    +0.000 A 
ATOM     13  C   UNL     1       5.785  -5.580  21.852  0.00  0.00    +0.000 A 
ATOM     14  C   UNL     1       4.856  -5.606  22.886  0.00  0.00    +0.000 A 
ATOM     15  C   UNL     1       5.279  -5.557  24.216  0.00  0.00    +0.004 A 
ENDBRANCH   9  10
ENDBRANCH   6   9
ENDBRANCH   4   6
ENDBRANCH   3   4
ENDBRANCH   1   3
BRANCH   1  16
ATOM     16  C   UNL     1       8.695  -2.490  24.040  0.00  0.00    +0.005 C 
BRANCH  16  17
ATOM     17  C   UNL     1       9.997  -1.921  23.457  0.00  0.00    +0.019 C 
BRANCH  17  18
ATOM     18  C   UNL     1       9.694  -0.589  22.694  0.00  0.00    +0.064 C 
BRANCH  18  19
ATOM     19  N   UNL     1       9.796  -0.749  21.241  0.00  0.00    -0.326 NA
ATOM     20  H   UNL     1       9.425   0.091  20.778  0.00  0.00    +0.118 HD
ATOM     21  H   UNL     1      10.769  -0.823  20.946  0.00  0.00    +0.118 HD
ENDBRANCH  18  19
BRANCH  18  22
ATOM     22  C   UNL     1      10.503   0.636  23.220  0.00  0.00    +0.111 C 
ATOM     23  C   UNL     1      10.746   0.619  24.725  0.00  0.00    +0.021 C 
BRANCH  22  24
ATOM     24  C   UNL     1       9.877   1.963  22.811  0.00  0.00    +0.309 C 
ATOM     25  O   UNL     1       9.304   2.726  23.576  0.00  0.00    -0.251 OA
BRANCH  24  26
ATOM     26  O   UNL     1      10.024   2.244  21.499  0.00  0.00    -0.480 OA
ATOM     27  H   UNL     1       9.751   1.529  20.894  0.00  0.00    +0.295 HD
ENDBRANCH  24  26
ENDBRANCH  22  24
ENDBRANCH  18  22
ENDBRANCH  17  18
ENDBRANCH  16  17
ENDBRANCH   1  16
TORSDOF 13
ENDMDL
MODEL 7
REMARK VINA RESULT:      -5.4      1.452      2.175
REMARK  Name = 
REMARK  17 active torsions:
REMARK  status: ('A' for Active; 'I' for Inactive)
REMARK    1  A    between atoms: C_2  and  C_3
REMARK    2  A    between atoms: C_2  and  C_4
REMARK    3  A    between atoms: C_2  and  C_15
REMARK    4  A    between atoms: C_4  and  C_5
REMARK    5  A    between atoms: C_5  and  C_6
REMARK    6  A    between atoms: C_6  and  N_8
REMARK    7  A    between atoms: C_6  and  C_9
REMARK    8  A    between atoms: C_9  and  C_11
REMARK    9  A    between atoms: C_9  and  C_12
REMARK   10  A    between atoms: C_12  and  O_13
REMARK   11  A    between atoms: C_15  and  C_16
REMARK   12  A    between atoms: C_16  and  C_18
REMARK   13  A    between atoms: C_16  and  C_19
REMARK   14  A    between atoms: C_19  and  C_21
REMARK   15  A    between atoms: C_19  and  O_28
REMARK   16  A    between atoms: C_21  and  C_22
REMARK   17  A    between atoms: O_28  and  C_29
REMARK                            x       y       z     vdW  Elec       q    Type
REMARK                         _______ _______ _______ _____ _____    ______ ____
ROOT
ATOM      1  C   UNL     1       8.280  -3.781  25.974  0.00  0.00    -0.014 C 
ATOM      2  C   UNL     1       7.249  -2.691  26.266  0.00  0.00    +0.007 C 
ENDROOT
BRANCH   1   3
ATOM      3  C   UNL     1       7.692  -5.210  26.212  0.00  0.00    +0.009 C 
BRANCH   3   4
ATOM      4  C   UNL     1       6.295  -5.331  26.843  0.00  0.00    +0.015 C 
ATOM      5  C   UNL     1       6.415  -5.806  28.303  0.00  0.00    +0.010 C 
BRANCH   4   6
ATOM      6  C   UNL     1       5.347  -6.306  26.062  0.00  0.00    +0.125 C 
BRANCH   6   7
ATOM      7  O   UNL     1       4.518  -6.966  27.035  0.00  0.00    -0.379 OA
ATOM      8  C   UNL     1       3.123  -6.753  26.881  0.00  0.00    +0.194 C 
ENDBRANCH   6   7
BRANCH   6   9
ATOM      9  C   UNL     1       4.509  -5.701  24.895  0.00  0.00    +0.067 C 
BRANCH   9  10
ATOM     10  C   UNL     1       5.178  -5.061  23.695  0.00  0.00    -0.045 A 
ATOM     11  C   UNL     1       4.999  -3.678  23.497  0.00  0.00    +0.004 A 
ATOM     12  C   UNL     1       5.626  -3.009  22.444  0.00  0.00    +0.000 A 
ATOM     13  C   UNL     1       6.436  -3.715  21.560  0.00  0.00    +0.000 A 
ATOM     14  C   UNL     1       6.620  -5.083  21.734  0.00  0.00    +0.000 A 
ATOM     15  C   UNL     1       6.002  -5.748  22.795  0.00  0.00    +0.004 A 
ENDBRANCH   9  10
ENDBRANCH   6   9
ENDBRANCH   4   6
ENDBRANCH   3   4
ENDBRANCH   1   3
BRANCH   1  16
ATOM     16  C   UNL     1       8.722  -3.774  24.499  0.00  0.00    +0.005 C 
BRANCH  16  17
ATOM     17  C   UNL     1       9.868  -2.877  24.008  0.00  0.00    +0.019 C 
BRANCH  17  18
ATOM     18  C   UNL     1       9.314  -1.822  22.994  0.00  0.00    +0.064 C 
BRANCH  18  19
ATOM     19  N   UNL     1      10.204  -1.640  21.844  0.00  0.00    -0.326 NA
ATOM     20  H   UNL     1       9.655  -1.700  20.976  0.00  0.00    +0.118 HD
ATOM     21  H   UNL     1      10.622  -0.711  21.845  0.00  0.00    +0.118 HD
ENDBRANCH  18  19
BRANCH  18  22
ATOM     22  C   UNL     1       8.903  -0.470  23.654  0.00  0.00    +0.111 C 
ATOM     23  C   UNL     1       7.607   0.119  23.109  0.00  0.00    +0.021 C 
BRANCH  22  24
ATOM     24  C   UNL     1      10.015   0.569  23.587  0.00  0.00    +0.309 C 
ATOM     25  O   UNL     1      10.196   1.332  22.648  0.00  0.00    -0.251 OA
BRANCH  24  26
ATOM     26  O   UNL     1      10.798   0.590  24.686  0.00  0.00    -0.480 OA
ATOM     27  H   UNL     1      11.279  -0.240  24.863  0.00  0.00    +0.295 HD
ENDBRANCH  24  26
ENDBRANCH  22  24
ENDBRANCH  18  22
ENDBRANCH  17  18
ENDBRANCH  16  17
ENDBRANCH   1  16
TORSDOF 13
ENDMDL
MODEL 8
REMARK VINA RESULT:      -5.4      2.810      7.033
REMARK  Name = 
REMARK  17 active torsions:
REMARK  status: ('A' for Active; 'I' for Inactive)
REMARK    1  A    between atoms: C_2  and  C_3
REMARK    2  A    between atoms: C_2  and  C_4
REMARK    3  A    between atoms: C_2  and  C_15
REMARK    4  A    between atoms: C_4  and  C_5
REMARK    5  A    between atoms: C_5  and  C_6
REMARK    6  A    between atoms: C_6  and  N_8
REMARK    7  A    between atoms: C_6  and  C_9
REMARK    8  A    between atoms: C_9  and  C_11
REMARK    9  A    between atoms: C_9  and  C_12
REMARK   10  A    between atoms: C_12  and  O_13
REMARK   11  A    between atoms: C_15  and  C_16
REMARK   12  A    between atoms: C_16  and  C_18
REMARK   13  A    between atoms: C_16  and  C_19
REMARK   14  A    between atoms: C_19  and  C_21
REMARK   15  A    between atoms: C_19  and  O_28
REMARK   16  A    between atoms: C_21  and  C_22
REMARK   17  A    between atoms: O_28  and  C_29
REMARK                            x       y       z     vdW  Elec       q    Type
REMARK                         _______ _______ _______ _____ _____    ______ ____
ROOT
ATOM      1  C   UNL     1       6.746   1.157  25.131  0.00  0.00    -0.014 C 
ATOM      2  C   UNL     1       7.743   0.784  26.229  0.00  0.00    +0.007 C 
ENDROOT
BRANCH   1   3
ATOM      3  C   UNL     1       7.127   2.506  24.438  0.00  0.00    +0.009 C 
BRANCH   3   4
ATOM      4  C   UNL     1       8.280   3.332  25.032  0.00  0.00    +0.015 C 
ATOM      5  C   UNL     1       7.719   4.461  25.916  0.00  0.00    +0.010 C 
BRANCH   4   6
ATOM      6  C   UNL     1       9.220   3.953  23.941  0.00  0.00    +0.125 C 
BRANCH   6   7
ATOM      7  O   UNL     1       9.647   5.238  24.427  0.00  0.00    -0.379 OA
ATOM      8  C   UNL     1      10.769   5.792  23.756  0.00  0.00    +0.194 C 
ENDBRANCH   6   7
BRANCH   6   9
ATOM      9  C   UNL     1      10.420   3.083  23.456  0.00  0.00    +0.067 C 
BRANCH   9  10
ATOM     10  C   UNL     1      10.243   1.615  23.121  0.00  0.00    -0.045 A 
ATOM     11  C   UNL     1       9.690   1.285  21.869  0.00  0.00    +0.004 A 
ATOM     12  C   UNL     1       9.545  -0.045  21.468  0.00  0.00    +0.000 A 
ATOM     13  C   UNL     1       9.938  -1.071  22.321  0.00  0.00    +0.000 A 
ATOM     14  C   UNL     1      10.480  -0.765  23.565  0.00  0.00    +0.000 A 
ATOM     15  C   UNL     1      10.637   0.565  23.958  0.00  0.00    +0.004 A 
ENDBRANCH   9  10
ENDBRANCH   6   9
ENDBRANCH   4   6
ENDBRANCH   3   4
ENDBRANCH   1   3
BRANCH   1  16
ATOM     16  C   UNL     1       6.728   0.118  23.995  0.00  0.00    +0.005 C 
BRANCH  16  17
ATOM     17  C   UNL     1       6.098  -1.270  24.184  0.00  0.00    +0.019 C 
BRANCH  17  18
ATOM     18  C   UNL     1       7.073  -2.368  23.644  0.00  0.00    +0.064 C 
BRANCH  18  19
ATOM     19  N   UNL     1       6.578  -2.991  22.414  0.00  0.00    -0.326 NA
ATOM     20  H   UNL     1       5.870  -3.697  22.650  0.00  0.00    +0.118 HD
ATOM     21  H   UNL     1       6.106  -2.311  21.820  0.00  0.00    +0.118 HD
ENDBRANCH  18  19
BRANCH  18  22
ATOM     22  C   UNL     1       7.496  -3.417  24.718  0.00  0.00    +0.111 C 
ATOM     23  C   UNL     1       7.819  -2.815  26.081  0.00  0.00    +0.021 C 
BRANCH  22  24
ATOM     24  C   UNL     1       8.653  -4.292  24.251  0.00  0.00    +0.309 C 
ATOM     25  O   UNL     1       9.829  -4.089  24.518  0.00  0.00    -0.251 OA
BRANCH  24  26
ATOM     26  O   UNL     1       8.260  -5.348  23.507  0.00  0.00    -0.480 OA
ATOM     27  H   UNL     1       7.294  -5.472  23.449  0.00  0.00    +0.295 HD
ENDBRANCH  24  26
ENDBRANCH  22  24
ENDBRANCH  18  22
ENDBRANCH  17  18
ENDBRANCH  16  17
ENDBRANCH   1  16
TORSDOF 13
ENDMDL
MODEL 9
REMARK VINA RESULT:      -5.4      2.985      6.746
REMARK  Name = 
REMARK  17 active torsions:
REMARK  status: ('A' for Active; 'I' for Inactive)
REMARK    1  A    between atoms: C_2  and  C_3
REMARK    2  A    between atoms: C_2  and  C_4
REMARK    3  A    between atoms: C_2  and  C_15
REMARK    4  A    between atoms: C_4  and  C_5
REMARK    5  A    between atoms: C_5  and  C_6
REMARK    6  A    between atoms: C_6  and  N_8
REMARK    7  A    between atoms: C_6  and  C_9
REMARK    8  A    between atoms: C_9  and  C_11
REMARK    9  A    between atoms: C_9  and  C_12
REMARK   10  A    between atoms: C_12  and  O_13
REMARK   11  A    between atoms: C_15  and  C_16
REMARK   12  A    between atoms: C_16  and  C_18
REMARK   13  A    between atoms: C_16  and  C_19
REMARK   14  A    between atoms: C_19  and  C_21
REMARK   15  A    between atoms: C_19  and  O_28
REMARK   16  A    between atoms: C_21  and  C_22
REMARK   17  A    between atoms: O_28  and  C_29
REMARK                            x       y       z     vdW  Elec       q    Type
REMARK                         _______ _______ _______ _____ _____    ______ ____
ROOT
ATOM      1  C   UNL     1       8.717  -4.227  26.403  0.00  0.00    -0.014 C 
ATOM      2  C   UNL     1       9.452  -4.973  25.290  0.00  0.00    +0.007 C 
ENDROOT
BRANCH   1   3
ATOM      3  C   UNL     1       8.061  -2.907  25.879  0.00  0.00    +0.009 C 
BRANCH   3   4
ATOM      4  C   UNL     1       8.912  -1.961  25.016  0.00  0.00    +0.015 C 
ATOM      5  C   UNL     1       9.177  -0.649  25.777  0.00  0.00    +0.010 C 
BRANCH   4   6
ATOM      6  C   UNL     1       8.253  -1.628  23.633  0.00  0.00    +0.125 C 
BRANCH   6   7
ATOM      7  O   UNL     1       8.939  -0.482  23.099  0.00  0.00    -0.379 OA
ATOM      8  C   UNL     1       9.723  -0.734  21.942  0.00  0.00    +0.194 C 
ENDBRANCH   6   7
BRANCH   6   9
ATOM      9  C   UNL     1       8.155  -2.786  22.594  0.00  0.00    +0.067 C 
BRANCH   9  10
ATOM     10  C   UNL     1       6.980  -3.744  22.592  0.00  0.00    -0.045 A 
ATOM     11  C   UNL     1       7.225  -5.090  22.261  0.00  0.00    +0.004 A 
ATOM     12  C   UNL     1       6.203  -6.041  22.289  0.00  0.00    +0.000 A 
ATOM     13  C   UNL     1       4.911  -5.660  22.637  0.00  0.00    +0.000 A 
ATOM     14  C   UNL     1       4.648  -4.333  22.961  0.00  0.00    +0.000 A 
ATOM     15  C   UNL     1       5.674  -3.386  22.945  0.00  0.00    +0.004 A 
ENDBRANCH   9  10
ENDBRANCH   6   9
ENDBRANCH   4   6
ENDBRANCH   3   4
ENDBRANCH   1   3
BRANCH   1  16
ATOM     16  C   UNL     1       7.548  -5.052  26.972  0.00  0.00    +0.005 C 
BRANCH  16  17
ATOM     17  C   UNL     1       6.452  -5.628  26.063  0.00  0.00    +0.019 C 
BRANCH  17  18
ATOM     18  C   UNL     1       5.186  -5.970  26.916  0.00  0.00    +0.064 C 
BRANCH  18  19
ATOM     19  N   UNL     1       5.334  -7.234  27.642  0.00  0.00    -0.326 NA
ATOM     20  H   UNL     1       6.216  -7.685  27.365  0.00  0.00    +0.118 HD
ATOM     21  H   UNL     1       5.404  -7.077  28.646  0.00  0.00    +0.118 HD
ENDBRANCH  18  19
BRANCH  18  22
ATOM     22  C   UNL     1       3.849  -5.891  26.117  0.00  0.00    +0.111 C 
ATOM     23  C   UNL     1       2.791  -5.004  26.764  0.00  0.00    +0.021 C 
BRANCH  22  24
ATOM     24  C   UNL     1       3.265  -7.267  25.825  0.00  0.00    +0.309 C 
ATOM     25  O   UNL     1       3.600  -7.979  24.890  0.00  0.00    -0.251 OA
BRANCH  24  26
ATOM     26  O   UNL     1       2.330  -7.653  26.719  0.00  0.00    -0.480 OA
ATOM     27  H   UNL     1       1.418  -7.680  26.372  0.00  0.00    +0.295 HD
ENDBRANCH  24  26
ENDBRANCH  22  24
ENDBRANCH  18  22
ENDBRANCH  17  18
ENDBRANCH  16  17
ENDBRANCH   1  16
TORSDOF 13
ENDMDL
