MODEL 1
REMARK VINA RESULT:      -6.3      0.000      0.000
REMARK  Name = 
REMARK  13 active torsions:
REMARK  status: ('A' for Active; 'I' for Inactive)
REMARK    1  A    between atoms: C_1  and  C_2
REMARK    2  A    between atoms: C_2  and  C_3
REMARK    3  A    between atoms: C_3  and  C_4
REMARK    4  A    between atoms: C_3  and  N_6
REMARK    5  A    between atoms: C_4  and  C_5
REMARK    6  A    between atoms: N_6  and  C_7
REMARK    7  A    between atoms: C_9  and  C_23
REMARK    8  A    between atoms: C_12  and  N_13
REMARK    9  A    between atoms: C_18  and  C_19
REMARK   10  A    between atoms: C_18  and  C_21
REMARK   11  A    between atoms: C_19  and  O_20
REMARK   12  A    between atoms: C_21  and  O_22
REMARK   13  A    between atoms: C_23  and  O_24
REMARK                            x       y       z     vdW  Elec       q    Type
REMARK                         _______ _______ _______ _____ _____    ______ ____
ROOT
ATOM      1  C   UNL     1       7.912  -2.987  23.962  0.00  0.00    +0.050 A 
ATOM      2  C   UNL     1       8.304  -1.716  24.471  0.00  0.00    +0.058 A 
ATOM      3  C   UNL     1       8.433  -1.521  25.853  0.00  0.00    +0.026 A 
ATOM      4  C   UNL     1       8.188  -2.565  26.750  0.00  0.00    +0.017 A 
ATOM      5  C   UNL     1       7.791  -3.810  26.268  0.00  0.00    +0.061 A 
ATOM      6  C   UNL     1       7.680  -4.016  24.890  0.00  0.00    +0.039 A 
ENDROOT
BRANCH   2   7
ATOM      7  N   UNL     1       8.396  -0.615  23.578  0.00  0.00    -0.259 N 
ATOM      8  C   UNL     1       9.621   0.023  23.108  0.00  0.00    +0.089 C 
ATOM      9  C   UNL     1       9.098   1.068  22.091  0.00  0.00    +0.040 C 
ATOM     10  C   UNL     1       7.610   1.231  22.359  0.00  0.00    +0.098 C 
ATOM     11  C   UNL     1       7.278   0.197  23.391  0.00  0.00    +0.221 C 
ATOM     12  O   UNL     1       6.184   0.104  23.930  0.00  0.00    -0.275 OA
BRANCH   8  13
ATOM     13  C   UNL     1      10.592  -0.957  22.421  0.00  0.00    +0.184 C 
BRANCH  13  14
ATOM     14  O   UNL     1       9.977  -1.611  21.305  0.00  0.00    -0.393 OA
ATOM     15  H   UNL     1       9.051  -1.296  21.275  0.00  0.00    +0.209 HD
ENDBRANCH  13  14
ENDBRANCH   8  13
BRANCH   8  16
ATOM     16  C   UNL     1      10.441   0.772  24.205  0.00  0.00    +0.184 C 
BRANCH  16  17
ATOM     17  O   UNL     1      10.739   2.120  23.860  0.00  0.00    -0.393 OA
ATOM     18  H   UNL     1      11.060   2.580  24.656  0.00  0.00    +0.209 HD
ENDBRANCH  16  17
ENDBRANCH   8  16
ENDBRANCH   2   7
BRANCH   1  19
ATOM     19  N   UNL     1       7.882  -3.228  22.583  0.00  0.00    -0.340 N 
ATOM     20  H   UNL     1       8.517  -2.668  22.023  0.00  0.00    +0.146 HD
BRANCH  19  21
ATOM     21  C   UNL     1       6.697  -3.764  21.895  0.00  0.00    +0.070 C 
BRANCH  21  23
ATOM     22  C   UNL     1       6.178  -5.936  20.644  0.00  0.00    +0.006 C 
ATOM     23  C   UNL     1       6.703  -5.306  21.933  0.00  0.00    +0.019 C 
ENDBRANCH  21  23
BRANCH  21  24
ATOM     24  C   UNL     1       5.439  -3.113  22.501  0.00  0.00    +0.019 C 
ATOM     25  C   UNL     1       4.497  -4.084  23.200  0.00  0.00    +0.006 C 
ENDBRANCH  21  24
ENDBRANCH  19  21
ENDBRANCH   1  19
BRANCH   5  26
ATOM     26  C   UNL     1       7.498  -4.964  27.158  0.00  0.00    +0.337 C 
ATOM     27  O   UNL     1       6.704  -4.911  28.080  0.00  0.00    -0.245 OA
BRANCH  26  28
ATOM     28  O   UNL     1       8.243  -6.060  26.883  0.00  0.00    -0.477 OA
ATOM     29  H   UNL     1       8.054  -6.473  26.021  0.00  0.00    +0.295 HD
ENDBRANCH  26  28
ENDBRANCH   5  26
TORSDOF 11
ENDMDL
MODEL 2
REMARK VINA RESULT:      -5.9      4.429      7.584
REMARK  Name = 
REMARK  13 active torsions:
REMARK  status: ('A' for Active; 'I' for Inactive)
REMARK    1  A    between atoms: C_1  and  C_2
REMARK    2  A    between atoms: C_2  and  C_3
REMARK    3  A    between atoms: C_3  and  C_4
REMARK    4  A    between atoms: C_3  and  N_6
REMARK    5  A    between atoms: C_4  and  C_5
REMARK    6  A    between atoms: N_6  and  C_7
REMARK    7  A    between atoms: C_9  and  C_23
REMARK    8  A    between atoms: C_12  and  N_13
REMARK    9  A    between atoms: C_18  and  C_19
REMARK   10  A    between atoms: C_18  and  C_21
REMARK   11  A    between atoms: C_19  and  O_20
REMARK   12  A    between atoms: C_21  and  O_22
REMARK   13  A    between atoms: C_23  and  O_24
REMARK                            x       y       z     vdW  Elec       q    Type
REMARK                         _______ _______ _______ _____ _____    ______ ____
ROOT
ATOM      1  C   UNL     1       9.509   3.323  23.884  0.00  0.00    +0.050 A 
ATOM      2  C   UNL     1       8.454   4.258  24.093  0.00  0.00    +0.058 A 
ATOM      3  C   UNL     1       8.716   5.635  24.050  0.00  0.00    +0.026 A 
ATOM      4  C   UNL     1      10.006   6.111  23.797  0.00  0.00    +0.017 A 
ATOM      5  C   UNL     1      11.049   5.209  23.605  0.00  0.00    +0.061 A 
ATOM      6  C   UNL     1      10.790   3.836  23.627  0.00  0.00    +0.039 A 
ENDROOT
BRANCH   2   7
ATOM      7  N   UNL     1       7.182   3.781  24.507  0.00  0.00    -0.259 N 
ATOM      8  C   UNL     1       5.969   3.724  23.698  0.00  0.00    +0.089 C 
ATOM      9  C   UNL     1       4.959   3.021  24.640  0.00  0.00    +0.040 C 
ATOM     10  C   UNL     1       5.541   3.101  26.043  0.00  0.00    +0.098 C 
ATOM     11  C   UNL     1       6.907   3.694  25.872  0.00  0.00    +0.221 C 
ATOM     12  O   UNL     1       7.632   4.007  26.805  0.00  0.00    -0.275 OA
BRANCH   8  13
ATOM     13  C   UNL     1       6.143   2.917  22.397  0.00  0.00    +0.184 C 
BRANCH  13  14
ATOM     14  O   UNL     1       6.303   1.519  22.663  0.00  0.00    -0.393 OA
ATOM     15  H   UNL     1       7.065   1.437  23.271  0.00  0.00    +0.209 HD
ENDBRANCH  13  14
ENDBRANCH   8  13
BRANCH   8  16
ATOM     16  C   UNL     1       5.379   5.111  23.291  0.00  0.00    +0.184 C 
BRANCH  16  17
ATOM     17  O   UNL     1       5.812   5.549  22.008  0.00  0.00    -0.393 OA
ATOM     18  H   UNL     1       5.034   5.636  21.430  0.00  0.00    +0.209 HD
ENDBRANCH  16  17
ENDBRANCH   8  16
ENDBRANCH   2   7
BRANCH   1  19
ATOM     19  N   UNL     1       9.244   1.949  23.818  0.00  0.00    -0.340 N 
ATOM     20  H   UNL     1       8.621   1.585  24.531  0.00  0.00    +0.146 HD
BRANCH  19  21
ATOM     21  C   UNL     1      10.175   0.989  23.205  0.00  0.00    +0.070 C 
BRANCH  21  23
ATOM     22  C   UNL     1       9.513  -0.175  25.386  0.00  0.00    +0.006 C 
ATOM     23  C   UNL     1      10.314  -0.268  24.088  0.00  0.00    +0.019 C 
ENDBRANCH  21  23
BRANCH  21  24
ATOM     24  C   UNL     1       9.714   0.710  21.762  0.00  0.00    +0.019 C 
ATOM     25  C   UNL     1       9.334  -0.739  21.486  0.00  0.00    +0.006 C 
ENDBRANCH  21  24
ENDBRANCH  19  21
ENDBRANCH   1  19
BRANCH   5  26
ATOM     26  C   UNL     1      12.449   5.637  23.347  0.00  0.00    +0.337 C 
ATOM     27  O   UNL     1      13.035   5.410  22.304  0.00  0.00    -0.245 OA
BRANCH  26  28
ATOM     28  O   UNL     1      13.030   6.250  24.405  0.00  0.00    -0.477 OA
ATOM     29  H   UNL     1      12.447   6.365  25.178  0.00  0.00    +0.295 HD
ENDBRANCH  26  28
ENDBRANCH   5  26
TORSDOF 11
ENDMDL
MODEL 3
REMARK VINA RESULT:      -5.9      1.938      5.995
REMARK  Name = 
REMARK  13 active torsions:
REMARK  status: ('A' for Active; 'I' for Inactive)
REMARK    1  A    between atoms: C_1  and  C_2
REMARK    2  A    between atoms: C_2  and  C_3
REMARK    3  A    between atoms: C_3  and  C_4
REMARK    4  A    between atoms: C_3  and  N_6
REMARK    5  A    between atoms: C_4  and  C_5
REMARK    6  A    between atoms: N_6  and  C_7
REMARK    7  A    between atoms: C_9  and  C_23
REMARK    8  A    between atoms: C_12  and  N_13
REMARK    9  A    between atoms: C_18  and  C_19
REMARK   10  A    between atoms: C_18  and  C_21
REMARK   11  A    between atoms: C_19  and  O_20
REMARK   12  A    between atoms: C_21  and  O_22
REMARK   13  A    between atoms: C_23  and  O_24
REMARK                            x       y       z     vdW  Elec       q    Type
REMARK                         _______ _______ _______ _____ _____    ______ ____
ROOT
ATOM      1  C   UNL     1       7.741  -0.710  24.009  0.00  0.00    +0.050 A 
ATOM      2  C   UNL     1       8.520  -1.894  23.866  0.00  0.00    +0.058 A 
ATOM      3  C   UNL     1       9.840  -1.816  23.400  0.00  0.00    +0.026 A 
ATOM      4  C   UNL     1      10.413  -0.582  23.077  0.00  0.00    +0.017 A 
ATOM      5  C   UNL     1       9.660   0.582  23.199  0.00  0.00    +0.061 A 
ATOM      6  C   UNL     1       8.350   0.512  23.681  0.00  0.00    +0.039 A 
ENDROOT
BRANCH   2   7
ATOM      7  N   UNL     1       7.893  -3.157  24.038  0.00  0.00    -0.259 N 
ATOM      8  C   UNL     1       8.199  -4.147  25.065  0.00  0.00    +0.089 C 
ATOM      9  C   UNL     1       7.132  -5.244  24.817  0.00  0.00    +0.040 C 
ATOM     10  C   UNL     1       6.568  -4.997  23.426  0.00  0.00    +0.098 C 
ATOM     11  C   UNL     1       7.187  -3.711  22.969  0.00  0.00    +0.221 C 
ATOM     12  O   UNL     1       7.046  -3.252  21.845  0.00  0.00    -0.275 OA
BRANCH   8  13
ATOM     13  C   UNL     1       8.079  -3.595  26.498  0.00  0.00    +0.184 C 
BRANCH  13  14
ATOM     14  O   UNL     1       7.587  -4.588  27.405  0.00  0.00    -0.393 OA
ATOM     15  H   UNL     1       7.289  -4.110  28.205  0.00  0.00    +0.209 HD
ENDBRANCH  13  14
ENDBRANCH   8  13
BRANCH   8  16
ATOM     16  C   UNL     1       9.612  -4.801  24.953  0.00  0.00    +0.184 C 
BRANCH  16  17
ATOM     17  O   UNL     1       9.731  -6.009  25.697  0.00  0.00    -0.393 OA
ATOM     18  H   UNL     1       8.849  -6.413  25.776  0.00  0.00    +0.209 HD
ENDBRANCH  16  17
ENDBRANCH   8  16
ENDBRANCH   2   7
BRANCH   1  19
ATOM     19  N   UNL     1       6.459  -0.761  24.572  0.00  0.00    -0.340 N 
ATOM     20  H   UNL     1       5.692  -0.560  23.940  0.00  0.00    +0.146 HD
BRANCH  19  21
ATOM     21  C   UNL     1       6.210  -0.531  26.003  0.00  0.00    +0.070 C 
BRANCH  21  23
ATOM     22  C   UNL     1       5.059   1.600  25.177  0.00  0.00    +0.006 C 
ATOM     23  C   UNL     1       5.915   0.961  26.267  0.00  0.00    +0.019 C 
ENDBRANCH  21  23
BRANCH  21  24
ATOM     24  C   UNL     1       5.104  -1.495  26.471  0.00  0.00    +0.019 C 
ATOM     25  C   UNL     1       4.609  -2.460  25.403  0.00  0.00    +0.006 C 
ENDBRANCH  21  24
ENDBRANCH  19  21
ENDBRANCH   1  19
BRANCH   5  26
ATOM     26  C   UNL     1      10.193   1.928  22.861  0.00  0.00    +0.337 C 
ATOM     27  O   UNL     1      10.581   2.721  23.699  0.00  0.00    -0.245 OA
BRANCH  26  28
ATOM     28  O   UNL     1      10.149   2.209  21.537  0.00  0.00    -0.477 OA
ATOM     29  H   UNL     1       9.767   1.502  20.985  0.00  0.00    +0.295 HD
ENDBRANCH  26  28
ENDBRANCH   5  26
TORSDOF 11
ENDMDL
MODEL 4
REMARK VINA RESULT:      -5.8      2.599      4.521
REMARK  Name = 
REMARK  13 active torsions:
REMARK  status: ('A' for Active; 'I' for Inactive)
REMARK    1  A    between atoms: C_1  and  C_2
REMARK    2  A    between atoms: C_2  and  C_3
REMARK    3  A    between atoms: C_3  and  C_4
REMARK    4  A    between atoms: C_3  and  N_6
REMARK    5  A    between atoms: C_4  and  C_5
REMARK    6  A    between atoms: N_6  and  C_7
REMARK    7  A    between atoms: C_9  and  C_23
REMARK    8  A    between atoms: C_12  and  N_13
REMARK    9  A    between atoms: C_18  and  C_19
REMARK   10  A    between atoms: C_18  and  C_21
REMARK   11  A    between atoms: C_19  and  O_20
REMARK   12  A    between atoms: C_21  and  O_22
REMARK   13  A    between atoms: C_23  and  O_24
REMARK                            x       y       z     vdW  Elec       q    Type
REMARK                         _______ _______ _______ _____ _____    ______ ____
ROOT
ATOM      1  C   UNL     1       8.699  -1.013  26.011  0.00  0.00    +0.050 A 
ATOM      2  C   UNL     1       9.084  -0.822  24.653  0.00  0.00    +0.058 A 
ATOM      3  C   UNL     1       9.408  -1.926  23.852  0.00  0.00    +0.026 A 
ATOM      4  C   UNL     1       9.353  -3.225  24.366  0.00  0.00    +0.017 A 
ATOM      5  C   UNL     1       8.992  -3.426  25.695  0.00  0.00    +0.061 A 
ATOM      6  C   UNL     1       8.648  -2.331  26.493  0.00  0.00    +0.039 A 
ENDROOT
BRANCH   2   7
ATOM      7  N   UNL     1       9.296   0.499  24.176  0.00  0.00    -0.259 N 
ATOM      8  C   UNL     1       8.488   1.208  23.189  0.00  0.00    +0.089 C 
ATOM      9  C   UNL     1       9.130   2.617  23.164  0.00  0.00    +0.040 C 
ATOM     10  C   UNL     1      10.495   2.487  23.823  0.00  0.00    +0.098 C 
ATOM     11  C   UNL     1      10.553   1.082  24.339  0.00  0.00    +0.221 C 
ATOM     12  O   UNL     1      11.552   0.582  24.838  0.00  0.00    -0.275 OA
BRANCH   8  13
ATOM     13  C   UNL     1       6.999   1.302  23.577  0.00  0.00    +0.184 C 
BRANCH  13  14
ATOM     14  O   UNL     1       6.148   1.154  22.434  0.00  0.00    -0.393 OA
ATOM     15  H   UNL     1       6.696   1.364  21.652  0.00  0.00    +0.209 HD
ENDBRANCH  13  14
ENDBRANCH   8  13
BRANCH   8  16
ATOM     16  C   UNL     1       8.539   0.618  21.745  0.00  0.00    +0.184 C 
BRANCH  16  17
ATOM     17  O   UNL     1       8.500   1.615  20.730  0.00  0.00    -0.393 OA
ATOM     18  H   UNL     1       7.994   1.268  19.974  0.00  0.00    +0.209 HD
ENDBRANCH  16  17
ENDBRANCH   8  16
ENDBRANCH   2   7
BRANCH   1  19
ATOM     19  N   UNL     1       8.271   0.068  26.793  0.00  0.00    -0.340 N 
ATOM     20  H   UNL     1       8.998   0.704  27.102  0.00  0.00    +0.146 HD
BRANCH  19  21
ATOM     21  C   UNL     1       7.045   0.026  27.603  0.00  0.00    +0.070 C 
BRANCH  21  23
ATOM     22  C   UNL     1       5.831   1.149  29.556  0.00  0.00    +0.006 C 
ATOM     23  C   UNL     1       6.997   1.225  28.574  0.00  0.00    +0.019 C 
ENDBRANCH  21  23
BRANCH  21  24
ATOM     24  C   UNL     1       5.833  -0.080  26.658  0.00  0.00    +0.019 C 
ATOM     25  C   UNL     1       5.026  -1.363  26.801  0.00  0.00    +0.006 C 
ENDBRANCH  21  24
ENDBRANCH  19  21
ENDBRANCH   1  19
BRANCH   5  26
ATOM     26  C   UNL     1       8.925  -4.774  26.318  0.00  0.00    +0.337 C 
ATOM     27  O   UNL     1       8.108  -5.075  27.170  0.00  0.00    -0.245 OA
BRANCH  26  28
ATOM     28  O   UNL     1       9.897  -5.614  25.892  0.00  0.00    -0.477 OA
ATOM     29  H   UNL     1       9.832  -6.520  26.244  0.00  0.00    +0.295 HD
ENDBRANCH  26  28
ENDBRANCH   5  26
TORSDOF 11
ENDMDL
MODEL 5
REMARK VINA RESULT:      -5.7      2.299      5.564
REMARK  Name = 
REMARK  13 active torsions:
REMARK  status: ('A' for Active; 'I' for Inactive)
REMARK    1  A    between atoms: C_1  and  C_2
REMARK    2  A    between atoms: C_2  and  C_3
REMARK    3  A    between atoms: C_3  and  C_4
REMARK    4  A    between atoms: C_3  and  N_6
REMARK    5  A    between atoms: C_4  and  C_5
REMARK    6  A    between atoms: N_6  and  C_7
REMARK    7  A    between atoms: C_9  and  C_23
REMARK    8  A    between atoms: C_12  and  N_13
REMARK    9  A    between atoms: C_18  and  C_19
REMARK   10  A    between atoms: C_18  and  C_21
REMARK   11  A    between atoms: C_19  and  O_20
REMARK   12  A    between atoms: C_21  and  O_22
REMARK   13  A    between atoms: C_23  and  O_24
REMARK                            x       y       z     vdW  Elec       q    Type
REMARK                         _______ _______ _______ _____ _____    ______ ____
ROOT
ATOM      1  C   UNL     1       8.208  -1.262  25.591  0.00  0.00    +0.050 A 
ATOM      2  C   UNL     1       7.100  -2.144  25.432  0.00  0.00    +0.058 A 
ATOM      3  C   UNL     1       5.961  -1.995  26.236  0.00  0.00    +0.026 A 
ATOM      4  C   UNL     1       5.889  -0.982  27.196  0.00  0.00    +0.017 A 
ATOM      5  C   UNL     1       6.969  -0.121  27.373  0.00  0.00    +0.061 A 
ATOM      6  C   UNL     1       8.099  -0.252  26.561  0.00  0.00    +0.039 A 
ENDROOT
BRANCH   2   7
ATOM      7  N   UNL     1       7.232  -3.268  24.574  0.00  0.00    -0.259 N 
ATOM      8  C   UNL     1       7.863  -4.543  24.902  0.00  0.00    +0.089 C 
ATOM      9  C   UNL     1       7.605  -5.393  23.633  0.00  0.00    +0.040 C 
ATOM     10  C   UNL     1       7.215  -4.421  22.529  0.00  0.00    +0.098 C 
ATOM     11  C   UNL     1       7.108  -3.085  23.197  0.00  0.00    +0.221 C 
ATOM     12  O   UNL     1       6.915  -2.038  22.595  0.00  0.00    -0.275 OA
BRANCH   8  13
ATOM     13  C   UNL     1       7.248  -5.225  26.140  0.00  0.00    +0.184 C 
BRANCH  13  14
ATOM     14  O   UNL     1       8.255  -5.815  26.970  0.00  0.00    -0.393 OA
ATOM     15  H   UNL     1       9.117  -5.565  26.580  0.00  0.00    +0.209 HD
ENDBRANCH  13  14
ENDBRANCH   8  13
BRANCH   8  16
ATOM     16  C   UNL     1       9.404  -4.477  25.145  0.00  0.00    +0.184 C 
BRANCH  16  17
ATOM     17  O   UNL     1      10.074  -5.692  24.829  0.00  0.00    -0.393 OA
ATOM     18  H   UNL     1      10.679  -5.527  24.084  0.00  0.00    +0.209 HD
ENDBRANCH  16  17
ENDBRANCH   8  16
ENDBRANCH   2   7
BRANCH   1  19
ATOM     19  N   UNL     1       9.307  -1.331  24.727  0.00  0.00    -0.340 N 
ATOM     20  H   UNL     1      10.053  -1.956  25.011  0.00  0.00    +0.146 HD
BRANCH  19  21
ATOM     21  C   UNL     1       9.679  -0.230  23.825  0.00  0.00    +0.070 C 
BRANCH  21  23
ATOM     22  C   UNL     1      10.748   2.092  23.943  0.00  0.00    +0.006 C 
ATOM     23  C   UNL     1      10.757   0.661  24.475  0.00  0.00    +0.019 C 
ENDBRANCH  21  23
BRANCH  21  24
ATOM     24  C   UNL     1      10.077  -0.825  22.461  0.00  0.00    +0.019 C 
ATOM     25  C   UNL     1       9.438  -0.142  21.259  0.00  0.00    +0.006 C 
ENDBRANCH  21  24
ENDBRANCH  19  21
ENDBRANCH   1  19
BRANCH   5  26
ATOM     26  C   UNL     1       6.975   0.970  28.382  0.00  0.00    +0.337 C 
ATOM     27  O   UNL     1       6.109   1.824  28.446  0.00  0.00    -0.245 OA
BRANCH  26  28
ATOM     28  O   UNL     1       8.066   0.959  29.183  0.00  0.00    -0.477 OA
ATOM     29  H   UNL     1       8.739   0.297  28.942  0.00  0.00    +0.295 HD
ENDBRANCH  26  28
ENDBRANCH   5  26
TORSDOF 11
ENDMDL
MODEL 6
REMARK VINA RESULT:      -5.7      2.008      2.668
REMARK  Name = 
REMARK  13 active torsions:
REMARK  status: ('A' for Active; 'I' for Inactive)
REMARK    1  A    between atoms: C_1  and  C_2
REMARK    2  A    between atoms: C_2  and  C_3
REMARK    3  A    between atoms: C_3  and  C_4
REMARK    4  A    between atoms: C_3  and  N_6
REMARK    5  A    between atoms: C_4  and  C_5
REMARK    6  A    between atoms: N_6  and  C_7
REMARK    7  A    between atoms: C_9  and  C_23
REMARK    8  A    between atoms: C_12  and  N_13
REMARK    9  A    between atoms: C_18  and  C_19
REMARK   10  A    between atoms: C_18  and  C_21
REMARK   11  A    between atoms: C_19  and  O_20
REMARK   12  A    between atoms: C_21  and  O_22
REMARK   13  A    between atoms: C_23  and  O_24
REMARK                            x       y       z     vdW  Elec       q    Type
REMARK                         _______ _______ _______ _____ _____    ______ ____
ROOT
ATOM      1  C   UNL     1       6.543  -1.584  23.603  0.00  0.00    +0.050 A 
ATOM      2  C   UNL     1       7.191  -0.387  24.024  0.00  0.00    +0.058 A 
ATOM      3  C   UNL     1       6.841   0.211  25.244  0.00  0.00    +0.026 A 
ATOM      4  C   UNL     1       5.862  -0.357  26.064  0.00  0.00    +0.017 A 
ATOM      5  C   UNL     1       5.210  -1.518  25.660  0.00  0.00    +0.061 A 
ATOM      6  C   UNL     1       5.569  -2.129  24.455  0.00  0.00    +0.039 A 
ENDROOT
BRANCH   2   7
ATOM      7  N   UNL     1       8.066   0.277  23.124  0.00  0.00    -0.259 N 
ATOM      8  C   UNL     1       9.523   0.323  23.201  0.00  0.00    +0.089 C 
ATOM      9  C   UNL     1       9.913   1.082  21.908  0.00  0.00    +0.040 C 
ATOM     10  C   UNL     1       8.651   1.766  21.405  0.00  0.00    +0.098 C 
ATOM     11  C   UNL     1       7.553   1.280  22.301  0.00  0.00    +0.221 C 
ATOM     12  O   UNL     1       6.407   1.704  22.262  0.00  0.00    -0.275 OA
BRANCH   8  13
ATOM     13  C   UNL     1      10.175  -1.073  23.223  0.00  0.00    +0.184 C 
BRANCH  13  14
ATOM     14  O   UNL     1      10.214  -1.656  21.915  0.00  0.00    -0.393 OA
ATOM     15  H   UNL     1      11.124  -1.526  21.582  0.00  0.00    +0.209 HD
ENDBRANCH  13  14
ENDBRANCH   8  13
BRANCH   8  16
ATOM     16  C   UNL     1      10.096   1.105  24.424  0.00  0.00    +0.184 C 
BRANCH  16  17
ATOM     17  O   UNL     1      10.361   0.273  25.548  0.00  0.00    -0.393 OA
ATOM     18  H   UNL     1      11.081   0.673  26.067  0.00  0.00    +0.209 HD
ENDBRANCH  16  17
ENDBRANCH   8  16
ENDBRANCH   2   7
BRANCH   1  19
ATOM     19  N   UNL     1       6.954  -2.249  22.442  0.00  0.00    -0.340 N 
ATOM     20  H   UNL     1       6.573  -1.895  21.571  0.00  0.00    +0.146 HD
BRANCH  19  21
ATOM     21  C   UNL     1       7.395  -3.653  22.444  0.00  0.00    +0.070 C 
BRANCH  21  23
ATOM     22  C   UNL     1       7.542  -5.109  24.543  0.00  0.00    +0.006 C 
ATOM     23  C   UNL     1       8.170  -3.973  23.739  0.00  0.00    +0.019 C 
ENDBRANCH  21  23
BRANCH  21  24
ATOM     24  C   UNL     1       6.171  -4.553  22.191  0.00  0.00    +0.019 C 
ATOM     25  C   UNL     1       6.367  -5.599  21.102  0.00  0.00    +0.006 C 
ENDBRANCH  21  24
ENDBRANCH  19  21
ENDBRANCH   1  19
BRANCH   5  26
ATOM     26  C   UNL     1       4.149  -2.172  26.468  0.00  0.00    +0.337 C 
ATOM     27  O   UNL     1       4.308  -2.514  27.627  0.00  0.00    -0.245 OA
BRANCH  26  28
ATOM     28  O   UNL     1       3.010  -2.407  25.776  0.00  0.00    -0.477 OA
ATOM     29  H   UNL     1       3.078  -3.117  25.112  0.00  0.00    +0.295 HD
ENDBRANCH  26  28
ENDBRANCH   5  26
TORSDOF 11
ENDMDL
MODEL 7
REMARK VINA RESULT:      -5.5      2.257      4.335
REMARK  Name = 
REMARK  13 active torsions:
REMARK  status: ('A' for Active; 'I' for Inactive)
REMARK    1  A    between atoms: C_1  and  C_2
REMARK    2  A    between atoms: C_2  and  C_3
REMARK    3  A    between atoms: C_3  and  C_4
REMARK    4  A    between atoms: C_3  and  N_6
REMARK    5  A    between atoms: C_4  and  C_5
REMARK    6  A    between atoms: N_6  and  C_7
REMARK    7  A    between atoms: C_9  and  C_23
REMARK    8  A    between atoms: C_12  and  N_13
REMARK    9  A    between atoms: C_18  and  C_19
REMARK   10  A    between atoms: C_18  and  C_21
REMARK   11  A    between atoms: C_19  and  O_20
REMARK   12  A    between atoms: C_21  and  O_22
REMARK   13  A    between atoms: C_23  and  O_24
REMARK                            x       y       z     vdW  Elec       q    Type
REMARK                         _______ _______ _______ _____ _____    ______ ____
ROOT
ATOM      1  C   UNL     1       6.634  -2.602  24.172  0.00  0.00    +0.050 A 
ATOM      2  C   UNL     1       7.501  -2.154  23.134  0.00  0.00    +0.058 A 
ATOM      3  C   UNL     1       7.494  -2.795  21.886  0.00  0.00    +0.026 A 
ATOM      4  C   UNL     1       6.638  -3.873  21.640  0.00  0.00    +0.017 A 
ATOM      5  C   UNL     1       5.795  -4.330  22.650  0.00  0.00    +0.061 A 
ATOM      6  C   UNL     1       5.783  -3.682  23.888  0.00  0.00    +0.039 A 
ENDROOT
BRANCH   2   7
ATOM      7  N   UNL     1       8.481  -1.169  23.430  0.00  0.00    -0.259 N 
ATOM      8  C   UNL     1       8.432   0.243  23.065  0.00  0.00    +0.089 C 
ATOM      9  C   UNL     1       9.699   0.819  23.746  0.00  0.00    +0.040 C 
ATOM     10  C   UNL     1      10.585  -0.368  24.096  0.00  0.00    +0.098 C 
ATOM     11  C   UNL     1       9.771  -1.581  23.762  0.00  0.00    +0.221 C 
ATOM     12  O   UNL     1      10.204  -2.723  23.813  0.00  0.00    -0.275 OA
BRANCH   8  13
ATOM     13  C   UNL     1       7.171   0.962  23.582  0.00  0.00    +0.184 C 
BRANCH  13  14
ATOM     14  O   UNL     1       6.283   1.299  22.510  0.00  0.00    -0.393 OA
ATOM     15  H   UNL     1       5.396   0.985  22.776  0.00  0.00    +0.209 HD
ENDBRANCH  13  14
ENDBRANCH   8  13
BRANCH   8  16
ATOM     16  C   UNL     1       8.520   0.535  21.534  0.00  0.00    +0.184 C 
BRANCH  16  17
ATOM     17  O   UNL     1       9.057   1.820  21.239  0.00  0.00    -0.393 OA
ATOM     18  H   UNL     1       8.480   2.254  20.586  0.00  0.00    +0.209 HD
ENDBRANCH  16  17
ENDBRANCH   8  16
ENDBRANCH   2   7
BRANCH   1  19
ATOM     19  N   UNL     1       6.553  -1.907  25.385  0.00  0.00    -0.340 N 
ATOM     20  H   UNL     1       6.415  -0.905  25.311  0.00  0.00    +0.146 HD
BRANCH  19  21
ATOM     21  C   UNL     1       7.177  -2.395  26.625  0.00  0.00    +0.070 C 
BRANCH  21  23
ATOM     22  C   UNL     1       8.930  -4.259  26.589  0.00  0.00    +0.006 C 
ATOM     23  C   UNL     1       7.444  -3.912  26.533  0.00  0.00    +0.019 C 
ENDBRANCH  21  23
BRANCH  21  24
ATOM     24  C   UNL     1       8.426  -1.542  26.916  0.00  0.00    +0.019 C 
ATOM     25  C   UNL     1       8.155  -0.051  27.067  0.00  0.00    +0.006 C 
ENDBRANCH  21  24
ENDBRANCH  19  21
ENDBRANCH   1  19
BRANCH   5  26
ATOM     26  C   UNL     1       4.869  -5.478  22.470  0.00  0.00    +0.337 C 
ATOM     27  O   UNL     1       3.918  -5.690  23.202  0.00  0.00    -0.245 OA
BRANCH  26  28
ATOM     28  O   UNL     1       5.219  -6.300  21.452  0.00  0.00    -0.477 OA
ATOM     29  H   UNL     1       5.989  -6.000  20.936  0.00  0.00    +0.295 HD
ENDBRANCH  26  28
ENDBRANCH   5  26
TORSDOF 11
ENDMDL
MODEL 8
REMARK VINA RESULT:      -5.5      2.619      4.478
REMARK  Name = 
REMARK  13 active torsions:
REMARK  status: ('A' for Active; 'I' for Inactive)
REMARK    1  A    between atoms: C_1  and  C_2
REMARK    2  A    between atoms: C_2  and  C_3
REMARK    3  A    between atoms: C_3  and  C_4
REMARK    4  A    between atoms: C_3  and  N_6
REMARK    5  A    between atoms: C_4  and  C_5
REMARK    6  A    between atoms: N_6  and  C_7
REMARK    7  A    between atoms: C_9  and  C_23
REMARK    8  A    between atoms: C_12  and  N_13
REMARK    9  A    between atoms: C_18  and  C_19
REMARK   10  A    between atoms: C_18  and  C_21
REMARK   11  A    between atoms: C_19  and  O_20
REMARK   12  A    between atoms: C_21  and  O_22
REMARK   13  A    between atoms: C_23  and  O_24
REMARK                            x       y       z     vdW  Elec       q    Type
REMARK                         _______ _______ _______ _____ _____    ______ ____
ROOT
ATOM      1  C   UNL     1       6.174  -1.870  23.934  0.00  0.00    +0.050 A 
ATOM      2  C   UNL     1       7.348  -1.456  23.241  0.00  0.00    +0.058 A 
ATOM      3  C   UNL     1       7.952  -2.311  22.307  0.00  0.00    +0.026 A 
ATOM      4  C   UNL     1       7.412  -3.573  22.038  0.00  0.00    +0.017 A 
ATOM      5  C   UNL     1       6.273  -3.996  22.717  0.00  0.00    +0.061 A 
ATOM      6  C   UNL     1       5.656  -3.140  23.634  0.00  0.00    +0.039 A 
ENDROOT
BRANCH   2   7
ATOM      7  N   UNL     1       7.987  -0.249  23.627  0.00  0.00    -0.259 N 
ATOM      8  C   UNL     1       8.082   0.976  22.839  0.00  0.00    +0.089 C 
ATOM      9  C   UNL     1       8.780   1.960  23.812  0.00  0.00    +0.040 C 
ATOM     10  C   UNL     1       9.396   1.116  24.918  0.00  0.00    +0.098 C 
ATOM     11  C   UNL     1       8.927  -0.283  24.657  0.00  0.00    +0.221 C 
ATOM     12  O   UNL     1       9.313  -1.256  25.288  0.00  0.00    -0.275 OA
BRANCH   8  13
ATOM     13  C   UNL     1       6.711   1.530  22.408  0.00  0.00    +0.184 C 
BRANCH  13  14
ATOM     14  O   UNL     1       5.808   1.621  23.516  0.00  0.00    -0.393 OA
ATOM     15  H   UNL     1       6.221   1.125  24.251  0.00  0.00    +0.209 HD
ENDBRANCH  13  14
ENDBRANCH   8  13
BRANCH   8  16
ATOM     16  C   UNL     1       8.949   0.866  21.545  0.00  0.00    +0.184 C 
BRANCH  16  17
ATOM     17  O   UNL     1       9.864   1.945  21.390  0.00  0.00    -0.393 OA
ATOM     18  H   UNL     1       9.394   2.693  20.981  0.00  0.00    +0.209 HD
ENDBRANCH  16  17
ENDBRANCH   8  16
ENDBRANCH   2   7
BRANCH   1  19
ATOM     19  N   UNL     1       5.500  -0.988  24.788  0.00  0.00    -0.340 N 
ATOM     20  H   UNL     1       5.224  -0.102  24.379  0.00  0.00    +0.146 HD
BRANCH  19  21
ATOM     21  C   UNL     1       5.665  -1.016  26.250  0.00  0.00    +0.070 C 
BRANCH  21  23
ATOM     22  C   UNL     1       7.036   0.504  27.786  0.00  0.00    +0.006 C 
ATOM     23  C   UNL     1       5.877   0.411  26.796  0.00  0.00    +0.019 C 
ENDBRANCH  21  23
BRANCH  21  24
ATOM     24  C   UNL     1       4.469  -1.766  26.866  0.00  0.00    +0.019 C 
ATOM     25  C   UNL     1       4.800  -3.149  27.411  0.00  0.00    +0.006 C 
ENDBRANCH  21  24
ENDBRANCH  19  21
ENDBRANCH   1  19
BRANCH   5  26
ATOM     26  C   UNL     1       5.650  -5.327  22.497  0.00  0.00    +0.337 C 
ATOM     27  O   UNL     1       6.291  -6.330  22.243  0.00  0.00    -0.245 OA
BRANCH  26  28
ATOM     28  O   UNL     1       4.297  -5.304  22.547  0.00  0.00    -0.477 OA
ATOM     29  H   UNL     1       3.919  -4.496  22.939  0.00  0.00    +0.295 HD
ENDBRANCH  26  28
ENDBRANCH   5  26
TORSDOF 11
ENDMDL
MODEL 9
REMARK VINA RESULT:      -5.4      3.875      7.258
REMARK  Name = 
REMARK  13 active torsions:
REMARK  status: ('A' for Active; 'I' for Inactive)
REMARK    1  A    between atoms: C_1  and  C_2
REMARK    2  A    between atoms: C_2  and  C_3
REMARK    3  A    between atoms: C_3  and  C_4
REMARK    4  A    between atoms: C_3  and  N_6
REMARK    5  A    between atoms: C_4  and  C_5
REMARK    6  A    between atoms: N_6  and  C_7
REMARK    7  A    between atoms: C_9  and  C_23
REMARK    8  A    between atoms: C_12  and  N_13
REMARK    9  A    between atoms: C_18  and  C_19
REMARK   10  A    between atoms: C_18  and  C_21
REMARK   11  A    between atoms: C_19  and  O_20
REMARK   12  A    between atoms: C_21  and  O_22
REMARK   13  A    between atoms: C_23  and  O_24
REMARK                            x       y       z     vdW  Elec       q    Type
REMARK                         _______ _______ _______ _____ _____    ______ ____
ROOT
ATOM      1  C   UNL     1       8.495   3.243  24.873  0.00  0.00    +0.050 A 
ATOM      2  C   UNL     1       8.225   1.844  24.861  0.00  0.00    +0.058 A 
ATOM      3  C   UNL     1       7.471   1.264  25.891  0.00  0.00    +0.026 A 
ATOM      4  C   UNL     1       6.967   2.044  26.936  0.00  0.00    +0.017 A 
ATOM      5  C   UNL     1       7.234   3.410  26.968  0.00  0.00    +0.061 A 
ATOM      6  C   UNL     1       7.969   3.997  25.934  0.00  0.00    +0.039 A 
ENDROOT
BRANCH   2   7
ATOM      7  N   UNL     1       8.867   1.026  23.893  0.00  0.00    -0.259 N 
ATOM      8  C   UNL     1       8.259   0.457  22.694  0.00  0.00    +0.089 C 
ATOM      9  C   UNL     1       9.457  -0.229  21.992  0.00  0.00    +0.040 C 
ATOM     10  C   UNL     1      10.560  -0.355  23.032  0.00  0.00    +0.098 C 
ATOM     11  C   UNL     1      10.053   0.377  24.237  0.00  0.00    +0.221 C 
ATOM     12  O   UNL     1      10.632   0.396  25.313  0.00  0.00    -0.275 OA
BRANCH   8  13
ATOM     13  C   UNL     1       7.629   1.517  21.770  0.00  0.00    +0.184 C 
BRANCH  13  14
ATOM     14  O   UNL     1       8.592   2.494  21.357  0.00  0.00    -0.393 OA
ATOM     15  H   UNL     1       9.257   2.018  20.821  0.00  0.00    +0.209 HD
ENDBRANCH  13  14
ENDBRANCH   8  13
BRANCH   8  16
ATOM     16  C   UNL     1       7.159  -0.619  22.957  0.00  0.00    +0.184 C 
BRANCH  16  17
ATOM     17  O   UNL     1       7.514  -1.912  22.477  0.00  0.00    -0.393 OA
ATOM     18  H   UNL     1       8.483  -1.998  22.506  0.00  0.00    +0.209 HD
ENDBRANCH  16  17
ENDBRANCH   8  16
ENDBRANCH   2   7
BRANCH   1  19
ATOM     19  N   UNL     1       9.155   3.853  23.799  0.00  0.00    -0.340 N 
ATOM     20  H   UNL     1       9.076   3.379  22.906  0.00  0.00    +0.146 HD
BRANCH  19  21
ATOM     21  C   UNL     1      10.324   4.728  23.978  0.00  0.00    +0.070 C 
BRANCH  21  23
ATOM     22  C   UNL     1      12.749   5.079  23.240  0.00  0.00    +0.006 C 
ATOM     23  C   UNL     1      11.568   4.113  23.303  0.00  0.00    +0.019 C 
ENDBRANCH  21  23
BRANCH  21  24
ATOM     24  C   UNL     1       9.961   6.141  23.485  0.00  0.00    +0.019 C 
ATOM     25  C   UNL     1       9.533   7.106  24.583  0.00  0.00    +0.006 C 
ENDBRANCH  21  24
ENDBRANCH  19  21
ENDBRANCH   1  19
BRANCH   5  26
ATOM     26  C   UNL     1       6.748   4.302  28.053  0.00  0.00    +0.337 C 
ATOM     27  O   UNL     1       7.357   5.288  28.430  0.00  0.00    -0.245 OA
BRANCH  26  28
ATOM     28  O   UNL     1       5.594   3.881  28.622  0.00  0.00    -0.477 OA
ATOM     29  H   UNL     1       5.636   3.771  29.589  0.00  0.00    +0.295 HD
ENDBRANCH  26  28
ENDBRANCH   5  26
TORSDOF 11
ENDMDL
