MODEL 1
REMARK VINA RESULT:      -3.5      0.000      0.000
REMARK  Name = 
REMARK  3 active torsions:
REMARK  status: ('A' for Active; 'I' for Inactive)
REMARK    1  A    between atoms: N_1  and  CA_2
REMARK    2  A    between atoms: CA_2  and  C_4
REMARK    3  A    between atoms: C_4  and  O_5
REMARK                            x       y       z     vdW  Elec       q    Type
REMARK                         _______ _______ _______ _____ _____    ______ ____
ROOT
ATOM      1  CA  ALA A   1      12.132   5.192  23.407  0.00  0.00    +0.102 C 
ATOM      2  CB  ALA A   1      11.896   6.143  24.319  0.00  0.00    +0.040 C 
ENDROOT
BRANCH   1   3
ATOM      3  N   ALA A   1      11.345   4.058  23.222  0.00  0.00    -0.353 N 
ATOM      4  H1  ALA A   1      10.438   4.178  23.684  0.00  0.00    +0.143 HD
ATOM      5  H2  ALA A   1      11.797   3.233  23.617  0.00  0.00    +0.143 HD
ENDBRANCH   1   3
BRANCH   1   6
ATOM      6  C   ALA A   1      13.363   5.349  22.544  0.00  0.00    +0.350 C 
ATOM      7  OXT ALA A   1      13.387   5.706  21.381  0.00  0.00    -0.244 OA
BRANCH   6   8
ATOM      8  O   ALA A   1      14.458   5.010  23.269  0.00  0.00    -0.476 OA
ATOM      9  H   ALA A   1      15.249   5.132  22.702  0.00  0.00    +0.295 HD
ENDBRANCH   6   8
ENDBRANCH   1   6
TORSDOF 3
ENDMDL
MODEL 2
REMARK VINA RESULT:      -3.3     10.778     11.066
REMARK  Name = 
REMARK  3 active torsions:
REMARK  status: ('A' for Active; 'I' for Inactive)
REMARK    1  A    between atoms: N_1  and  CA_2
REMARK    2  A    between atoms: CA_2  and  C_4
REMARK    3  A    between atoms: C_4  and  O_5
REMARK                            x       y       z     vdW  Elec       q    Type
REMARK                         _______ _______ _______ _____ _____    ______ ____
ROOT
ATOM      1  CA  ALA A   1       8.408  -4.600  26.291  0.00  0.00    +0.102 C 
ATOM      2  CB  ALA A   1       7.888  -3.381  26.481  0.00  0.00    +0.040 C 
ENDROOT
BRANCH   1   3
ATOM      3  N   ALA A   1       8.070  -5.730  27.033  0.00  0.00    -0.353 N 
ATOM      4  H1  ALA A   1       8.865  -6.023  27.611  0.00  0.00    +0.143 HD
ATOM      5  H2  ALA A   1       7.819  -6.506  26.421  0.00  0.00    +0.143 HD
ENDBRANCH   1   3
BRANCH   1   6
ATOM      6  C   ALA A   1       9.461  -4.746  25.218  0.00  0.00    +0.350 C 
ATOM      7  OXT ALA A   1       9.845  -3.872  24.462  0.00  0.00    -0.244 OA
BRANCH   6   8
ATOM      8  O   ALA A   1       9.912  -6.025  25.212  0.00  0.00    -0.476 OA
ATOM      9  H   ALA A   1      10.110  -6.283  26.138  0.00  0.00    +0.295 HD
ENDBRANCH   6   8
ENDBRANCH   1   6
TORSDOF 3
ENDMDL
MODEL 3
REMARK VINA RESULT:      -3.2      5.546      5.905
REMARK  Name = 
REMARK  3 active torsions:
REMARK  status: ('A' for Active; 'I' for Inactive)
REMARK    1  A    between atoms: N_1  and  CA_2
REMARK    2  A    between atoms: CA_2  and  C_4
REMARK    3  A    between atoms: C_4  and  O_5
REMARK                            x       y       z     vdW  Elec       q    Type
REMARK                         _______ _______ _______ _____ _____    ______ ____
ROOT
ATOM      1  CA  ALA A   1       9.857   0.092  22.125  0.00  0.00    +0.102 C 
ATOM      2  CB  ALA A   1      10.433   0.055  23.333  0.00  0.00    +0.040 C 
ENDROOT
BRANCH   1   3
ATOM      3  N   ALA A   1       9.777  -0.990  21.252  0.00  0.00    -0.353 N 
ATOM      4  H1  ALA A   1      10.637  -1.062  20.698  0.00  0.00    +0.143 HD
ATOM      5  H2  ALA A   1       8.993  -0.880  20.608  0.00  0.00    +0.143 HD
ENDBRANCH   1   3
BRANCH   1   6
ATOM      6  C   ALA A   1       9.288   1.416  21.669  0.00  0.00    +0.350 C 
ATOM      7  OXT ALA A   1       8.126   1.640  21.383  0.00  0.00    -0.244 OA
BRANCH   6   8
ATOM      8  O   ALA A   1      10.287   2.330  21.610  0.00  0.00    -0.476 OA
ATOM      9  H   ALA A   1      10.767   2.314  22.466  0.00  0.00    +0.295 HD
ENDBRANCH   6   8
ENDBRANCH   1   6
TORSDOF 3
ENDMDL
MODEL 4
REMARK VINA RESULT:      -3.2     11.460     11.846
REMARK  Name = 
REMARK  3 active torsions:
REMARK  status: ('A' for Active; 'I' for Inactive)
REMARK    1  A    between atoms: N_1  and  CA_2
REMARK    2  A    between atoms: CA_2  and  C_4
REMARK    3  A    between atoms: C_4  and  O_5
REMARK                            x       y       z     vdW  Elec       q    Type
REMARK                         _______ _______ _______ _____ _____    ______ ____
ROOT
ATOM      1  CA  ALA A   1       8.868  -5.135  25.465  0.00  0.00    +0.102 C 
ATOM      2  CB  ALA A   1       8.301  -5.037  24.256  0.00  0.00    +0.040 C 
ENDROOT
BRANCH   1   3
ATOM      3  N   ALA A   1      10.180  -5.542  25.695  0.00  0.00    -0.353 N 
ATOM      4  H1  ALA A   1      10.329  -5.703  26.697  0.00  0.00    +0.143 HD
ATOM      5  H2  ALA A   1      10.841  -4.830  25.385  0.00  0.00    +0.143 HD
ENDBRANCH   1   3
BRANCH   1   6
ATOM      6  C   ALA A   1       8.005  -4.814  26.663  0.00  0.00    +0.350 C 
ATOM      7  OXT ALA A   1       7.445  -3.756  26.884  0.00  0.00    -0.244 OA
BRANCH   6   8
ATOM      8  O   ALA A   1       7.960  -5.896  27.479  0.00  0.00    -0.476 OA
ATOM      9  H   ALA A   1       7.094  -6.340  27.348  0.00  0.00    +0.295 HD
ENDBRANCH   6   8
ENDBRANCH   1   6
TORSDOF 3
ENDMDL
MODEL 5
REMARK VINA RESULT:      -3.1      5.681      6.033
REMARK  Name = 
REMARK  3 active torsions:
REMARK  status: ('A' for Active; 'I' for Inactive)
REMARK    1  A    between atoms: N_1  and  CA_2
REMARK    2  A    between atoms: CA_2  and  C_4
REMARK    3  A    between atoms: C_4  and  O_5
REMARK                            x       y       z     vdW  Elec       q    Type
REMARK                         _______ _______ _______ _____ _____    ______ ____
ROOT
ATOM      1  CA  ALA A   1      10.072   1.147  22.588  0.00  0.00    +0.102 C 
ATOM      2  CB  ALA A   1      10.426   1.591  23.801  0.00  0.00    +0.040 C 
ENDROOT
BRANCH   1   3
ATOM      3  N   ALA A   1       9.730   1.965  21.513  0.00  0.00    -0.353 N 
ATOM      4  H1  ALA A   1      10.562   2.447  21.157  0.00  0.00    +0.143 HD
ATOM      5  H2  ALA A   1       9.050   2.671  21.795  0.00  0.00    +0.143 HD
ENDBRANCH   1   3
BRANCH   1   6
ATOM      6  C   ALA A   1      10.007  -0.349  22.390  0.00  0.00    +0.350 C 
ATOM      7  OXT ALA A   1      10.242  -1.198  23.230  0.00  0.00    -0.244 OA
BRANCH   6   8
ATOM      8  O   ALA A   1       9.656  -0.611  21.107  0.00  0.00    -0.476 OA
ATOM      9  H   ALA A   1      10.155  -1.402  20.809  0.00  0.00    +0.295 HD
ENDBRANCH   6   8
ENDBRANCH   1   6
TORSDOF 3
ENDMDL
MODEL 6
REMARK VINA RESULT:      -3.0      6.488      6.844
REMARK  Name = 
REMARK  3 active torsions:
REMARK  status: ('A' for Active; 'I' for Inactive)
REMARK    1  A    between atoms: N_1  and  CA_2
REMARK    2  A    between atoms: CA_2  and  C_4
REMARK    3  A    between atoms: C_4  and  O_5
REMARK                            x       y       z     vdW  Elec       q    Type
REMARK                         _______ _______ _______ _____ _____    ______ ____
ROOT
ATOM      1  CA  ALA A   1      10.295   0.056  23.073  0.00  0.00    +0.102 C 
ATOM      2  CB  ALA A   1       9.958   0.928  22.115  0.00  0.00    +0.040 C 
ENDROOT
BRANCH   1   3
ATOM      3  N   ALA A   1      10.752   0.408  24.341  0.00  0.00    -0.353 N 
ATOM      4  H1  ALA A   1      11.768   0.549  24.324  0.00  0.00    +0.143 HD
ATOM      5  H2  ALA A   1      10.545  -0.325  25.019  0.00  0.00    +0.143 HD
ENDBRANCH   1   3
BRANCH   1   6
ATOM      6  C   ALA A   1      10.206  -1.415  22.735  0.00  0.00    +0.350 C 
ATOM      7  OXT ALA A   1      10.198  -2.337  23.530  0.00  0.00    -0.244 OA
BRANCH   6   8
ATOM      8  O   ALA A   1      10.151  -1.557  21.388  0.00  0.00    -0.476 OA
ATOM      9  H   ALA A   1       9.382  -1.043  21.059  0.00  0.00    +0.295 HD
ENDBRANCH   6   8
ENDBRANCH   1   6
TORSDOF 3
ENDMDL
MODEL 7
REMARK VINA RESULT:      -3.0      5.159      5.466
REMARK  Name = 
REMARK  3 active torsions:
REMARK  status: ('A' for Active; 'I' for Inactive)
REMARK    1  A    between atoms: N_1  and  CA_2
REMARK    2  A    between atoms: CA_2  and  C_4
REMARK    3  A    between atoms: C_4  and  O_5
REMARK                            x       y       z     vdW  Elec       q    Type
REMARK                         _______ _______ _______ _____ _____    ______ ____
ROOT
ATOM      1  CA  ALA A   1      10.244   0.588  23.279  0.00  0.00    +0.102 C 
ATOM      2  CB  ALA A   1      10.662   1.568  24.090  0.00  0.00    +0.040 C 
ENDROOT
BRANCH   1   3
ATOM      3  N   ALA A   1      10.209  -0.762  23.619  0.00  0.00    -0.353 N 
ATOM      4  H1  ALA A   1      10.928  -0.969  24.320  0.00  0.00    +0.143 HD
ATOM      5  H2  ALA A   1      10.383  -1.348  22.802  0.00  0.00    +0.143 HD
ENDBRANCH   1   3
BRANCH   1   6
ATOM      6  C   ALA A   1       9.816   0.979  21.883  0.00  0.00    +0.350 C 
ATOM      7  OXT ALA A   1       9.210   0.278  21.093  0.00  0.00    -0.244 OA
BRANCH   6   8
ATOM      8  O   ALA A   1      10.229   2.245  21.631  0.00  0.00    -0.476 OA
ATOM      9  H   ALA A   1       9.704   2.593  20.879  0.00  0.00    +0.295 HD
ENDBRANCH   6   8
ENDBRANCH   1   6
TORSDOF 3
ENDMDL
MODEL 8
REMARK VINA RESULT:      -3.0      5.201      5.669
REMARK  Name = 
REMARK  3 active torsions:
REMARK  status: ('A' for Active; 'I' for Inactive)
REMARK    1  A    between atoms: N_1  and  CA_2
REMARK    2  A    between atoms: CA_2  and  C_4
REMARK    3  A    between atoms: C_4  and  O_5
REMARK                            x       y       z     vdW  Elec       q    Type
REMARK                         _______ _______ _______ _____ _____    ______ ____
ROOT
ATOM      1  CA  ALA A   1       9.945   1.085  22.232  0.00  0.00    +0.102 C 
ATOM      2  CB  ALA A   1       9.515   0.024  21.537  0.00  0.00    +0.040 C 
ENDROOT
BRANCH   1   3
ATOM      3  N   ALA A   1      10.210   2.337  21.683  0.00  0.00    -0.353 N 
ATOM      4  H1  ALA A   1       9.473   3.001  21.946  0.00  0.00    +0.143 HD
ATOM      5  H2  ALA A   1      10.244   2.288  20.664  0.00  0.00    +0.143 HD
ENDBRANCH   1   3
BRANCH   1   6
ATOM      6  C   ALA A   1      10.193   0.891  23.710  0.00  0.00    +0.350 C 
ATOM      7  OXT ALA A   1      10.604  -0.122  24.244  0.00  0.00    -0.244 OA
BRANCH   6   8
ATOM      8  O   ALA A   1       9.869   2.032  24.366  0.00  0.00    -0.476 OA
ATOM      9  H   ALA A   1       9.834   1.833  25.326  0.00  0.00    +0.295 HD
ENDBRANCH   6   8
ENDBRANCH   1   6
TORSDOF 3
ENDMDL
MODEL 9
REMARK VINA RESULT:      -2.9      6.531      6.756
REMARK  Name = 
REMARK  3 active torsions:
REMARK  status: ('A' for Active; 'I' for Inactive)
REMARK    1  A    between atoms: N_1  and  CA_2
REMARK    2  A    between atoms: CA_2  and  C_4
REMARK    3  A    between atoms: C_4  and  O_5
REMARK                            x       y       z     vdW  Elec       q    Type
REMARK                         _______ _______ _______ _____ _____    ______ ____
ROOT
ATOM      1  CA  ALA A   1      10.078  -0.960  23.648  0.00  0.00    +0.102 C 
ATOM      2  CB  ALA A   1      10.281  -0.045  24.603  0.00  0.00    +0.040 C 
ENDROOT
BRANCH   1   3
ATOM      3  N   ALA A   1       9.930  -2.326  23.877  0.00  0.00    -0.353 N 
ATOM      4  H1  ALA A   1       9.453  -2.768  23.083  0.00  0.00    +0.143 HD
ATOM      5  H2  ALA A   1       9.375  -2.497  24.716  0.00  0.00    +0.143 HD
ENDBRANCH   1   3
BRANCH   1   6
ATOM      6  C   ALA A   1      10.044  -0.474  22.217  0.00  0.00    +0.350 C 
ATOM      7  OXT ALA A   1       9.952   0.684  21.853  0.00  0.00    -0.244 OA
BRANCH   6   8
ATOM      8  O   ALA A   1      10.118  -1.541  21.385  0.00  0.00    -0.476 OA
ATOM      9  H   ALA A   1       9.836  -1.250  20.491  0.00  0.00    +0.295 HD
ENDBRANCH   6   8
ENDBRANCH   1   6
TORSDOF 3
ENDMDL
