MODEL 1
REMARK VINA RESULT:      -5.5      0.000      0.000
REMARK  Name = 
REMARK  3 active torsions:
REMARK  status: ('A' for Active; 'I' for Inactive)
REMARK    1  A    between atoms: N_4  and  C_5
REMARK    2  A    between atoms: C_8  and  C_11
REMARK    3  A    between atoms: C_11  and  O_12
REMARK                            x       y       z     vdW  Elec       q    Type
REMARK                         _______ _______ _______ _____ _____    ______ ____
ROOT
ATOM      1  C   UNL     1       9.855   2.687  23.365  0.00  0.00    +0.100 A 
ATOM      2  C   UNL     1       9.723   2.118  22.092  0.00  0.00    +0.043 A 
ATOM      3  C   UNL     1       9.815   0.736  21.900  0.00  0.00    +0.018 A 
ATOM      4  C   UNL     1      10.044  -0.107  22.989  0.00  0.00    +0.059 A 
ATOM      5  C   UNL     1      10.120   0.435  24.277  0.00  0.00    +0.018 A 
ATOM      6  C   UNL     1      10.026   1.821  24.458  0.00  0.00    +0.043 A 
ENDROOT
BRANCH   1  11
ATOM      7  N   UNL     1      10.553   6.198  23.827  0.00  0.00    -0.289 N 
ATOM      8  H   UNL     1       9.636   6.487  23.508  0.00  0.00    +0.255 HD
ATOM      9  H   UNL     1      11.247   6.896  23.579  0.00  0.00    +0.255 HD
ATOM     10  C   UNL     1      10.885   4.933  23.467  0.00  0.00    +0.381 C 
ATOM     11  N   UNL     1       9.824   4.080  23.582  0.00  0.00    -0.244 N 
ATOM     12  H   UNL     1       9.129   4.374  24.253  0.00  0.00    +0.265 HD
ATOM     13  N   UNL     1      12.080   4.648  23.096  0.00  0.00    -0.129 NA
ATOM     14  H   UNL     1      12.677   5.471  23.141  0.00  0.00    +0.306 HD
ENDBRANCH   1  11
BRANCH   4  15
ATOM     15  C   UNL     1      10.166  -1.563  22.732  0.00  0.00    +0.337 C 
ATOM     16  O   UNL     1      10.207  -2.396  23.621  0.00  0.00    -0.245 OA
BRANCH  15  17
ATOM     17  O   UNL     1      10.176  -1.880  21.420  0.00  0.00    -0.477 OA
ATOM     18  H   UNL     1      10.479  -2.785  21.222  0.00  0.00    +0.295 HD
ENDBRANCH  15  17
ENDBRANCH   4  15
TORSDOF 3
ENDMDL
MODEL 2
REMARK VINA RESULT:      -5.4      1.014      1.994
REMARK  Name = 
REMARK  3 active torsions:
REMARK  status: ('A' for Active; 'I' for Inactive)
REMARK    1  A    between atoms: N_4  and  C_5
REMARK    2  A    between atoms: C_8  and  C_11
REMARK    3  A    between atoms: C_11  and  O_12
REMARK                            x       y       z     vdW  Elec       q    Type
REMARK                         _______ _______ _______ _____ _____    ______ ____
ROOT
ATOM      1  C   UNL     1      10.466   2.173  23.076  0.00  0.00    +0.100 A 
ATOM      2  C   UNL     1      10.700   1.323  24.164  0.00  0.00    +0.043 A 
ATOM      3  C   UNL     1      10.372  -0.035  24.111  0.00  0.00    +0.018 A 
ATOM      4  C   UNL     1       9.799  -0.571  22.956  0.00  0.00    +0.059 A 
ATOM      5  C   UNL     1       9.612   0.247  21.836  0.00  0.00    +0.018 A 
ATOM      6  C   UNL     1       9.944   1.607  21.900  0.00  0.00    +0.043 A 
ENDROOT
BRANCH   1  11
ATOM      7  N   UNL     1      10.432   5.756  23.507  0.00  0.00    -0.289 N 
ATOM      8  H   UNL     1      11.440   5.820  23.576  0.00  0.00    +0.255 HD
ATOM      9  H   UNL     1       9.994   6.469  24.080  0.00  0.00    +0.255 HD
ATOM     10  C   UNL     1       9.948   4.505  23.712  0.00  0.00    +0.381 C 
ATOM     11  N   UNL     1      10.733   3.556  23.120  0.00  0.00    -0.244 N 
ATOM     12  H   UNL     1      11.269   3.895  22.334  0.00  0.00    +0.265 HD
ATOM     13  N   UNL     1       8.864   4.320  24.374  0.00  0.00    -0.129 NA
ATOM     14  H   UNL     1       8.465   5.210  24.667  0.00  0.00    +0.306 HD
ENDBRANCH   1  11
BRANCH   4  15
ATOM     15  C   UNL     1       9.439  -2.010  22.957  0.00  0.00    +0.337 C 
ATOM     16  O   UNL     1       8.502  -2.463  22.322  0.00  0.00    -0.245 OA
BRANCH  15  17
ATOM     17  O   UNL     1      10.277  -2.775  23.686  0.00  0.00    -0.477 OA
ATOM     18  H   UNL     1      11.211  -2.495  23.659  0.00  0.00    +0.295 HD
ENDBRANCH  15  17
ENDBRANCH   4  15
TORSDOF 3
ENDMDL
MODEL 3
REMARK VINA RESULT:      -5.2      4.972      6.392
REMARK  Name = 
REMARK  3 active torsions:
REMARK  status: ('A' for Active; 'I' for Inactive)
REMARK    1  A    between atoms: N_4  and  C_5
REMARK    2  A    between atoms: C_8  and  C_11
REMARK    3  A    between atoms: C_11  and  O_12
REMARK                            x       y       z     vdW  Elec       q    Type
REMARK                         _______ _______ _______ _____ _____    ______ ____
ROOT
ATOM      1  C   UNL     1       8.751  -2.608  24.503  0.00  0.00    +0.100 A 
ATOM      2  C   UNL     1       8.498  -2.608  23.126  0.00  0.00    +0.043 A 
ATOM      3  C   UNL     1       8.799  -1.498  22.331  0.00  0.00    +0.018 A 
ATOM      4  C   UNL     1       9.363  -0.358  22.907  0.00  0.00    +0.059 A 
ATOM      5  C   UNL     1       9.678  -0.358  24.270  0.00  0.00    +0.018 A 
ATOM      6  C   UNL     1       9.373  -1.476  25.057  0.00  0.00    +0.043 A 
ENDROOT
BRANCH   1  11
ATOM      7  N   UNL     1       8.491  -5.721  26.310  0.00  0.00    -0.289 N 
ATOM      8  H   UNL     1       8.031  -5.294  27.105  0.00  0.00    +0.255 HD
ATOM      9  H   UNL     1       9.068  -6.498  26.614  0.00  0.00    +0.255 HD
ATOM     10  C   UNL     1       9.131  -4.835  25.507  0.00  0.00    +0.381 C 
ATOM     11  N   UNL     1       8.406  -3.689  25.340  0.00  0.00    -0.244 N 
ATOM     12  H   UNL     1       7.411  -3.808  25.467  0.00  0.00    +0.265 HD
ATOM     13  N   UNL     1      10.268  -5.124  24.986  0.00  0.00    -0.129 NA
ATOM     14  H   UNL     1      10.557  -6.064  25.250  0.00  0.00    +0.306 HD
ENDBRANCH   1  11
BRANCH   4  15
ATOM     15  C   UNL     1       9.635   0.807  22.029  0.00  0.00    +0.337 C 
ATOM     16  O   UNL     1      10.401   1.705  22.333  0.00  0.00    -0.245 OA
BRANCH  15  17
ATOM     17  O   UNL     1       8.993   0.750  20.844  0.00  0.00    -0.477 OA
ATOM     18  H   UNL     1       8.211   1.329  20.777  0.00  0.00    +0.295 HD
ENDBRANCH  15  17
ENDBRANCH   4  15
TORSDOF 3
ENDMDL
MODEL 4
REMARK VINA RESULT:      -5.1      4.939      6.358
REMARK  Name = 
REMARK  3 active torsions:
REMARK  status: ('A' for Active; 'I' for Inactive)
REMARK    1  A    between atoms: N_4  and  C_5
REMARK    2  A    between atoms: C_8  and  C_11
REMARK    3  A    between atoms: C_11  and  O_12
REMARK                            x       y       z     vdW  Elec       q    Type
REMARK                         _______ _______ _______ _____ _____    ______ ____
ROOT
ATOM      1  C   UNL     1       7.838  -2.808  23.340  0.00  0.00    +0.100 A 
ATOM      2  C   UNL     1       7.833  -4.193  23.129  0.00  0.00    +0.043 A 
ATOM      3  C   UNL     1       7.549  -5.086  24.166  0.00  0.00    +0.018 A 
ATOM      4  C   UNL     1       7.264  -4.604  25.444  0.00  0.00    +0.059 A 
ATOM      5  C   UNL     1       7.206  -3.224  25.664  0.00  0.00    +0.018 A 
ATOM      6  C   UNL     1       7.491  -2.337  24.618  0.00  0.00    +0.043 A 
ENDROOT
BRANCH   1  11
ATOM      7  N   UNL     1       9.425  -0.508  21.056  0.00  0.00    -0.289 N 
ATOM      8  H   UNL     1       8.753  -0.680  20.317  0.00  0.00    +0.255 HD
ATOM      9  H   UNL     1      10.336  -0.304  20.661  0.00  0.00    +0.255 HD
ATOM     10  C   UNL     1       9.438  -1.465  22.017  0.00  0.00    +0.381 C 
ATOM     11  N   UNL     1       8.176  -1.886  22.329  0.00  0.00    -0.244 N 
ATOM     12  H   UNL     1       7.455  -1.205  22.138  0.00  0.00    +0.265 HD
ATOM     13  N   UNL     1      10.544  -1.858  22.538  0.00  0.00    -0.129 NA
ATOM     14  H   UNL     1      11.329  -1.345  22.143  0.00  0.00    +0.306 HD
ENDBRANCH   1  11
BRANCH   4  15
ATOM     15  C   UNL     1       7.000  -5.591  26.521  0.00  0.00    +0.337 C 
ATOM     16  O   UNL     1       5.969  -6.238  26.594  0.00  0.00    -0.245 OA
BRANCH  15  17
ATOM     17  O   UNL     1       8.030  -5.740  27.379  0.00  0.00    -0.477 OA
ATOM     18  H   UNL     1       8.866  -5.333  27.086  0.00  0.00    +0.295 HD
ENDBRANCH  15  17
ENDBRANCH   4  15
TORSDOF 3
ENDMDL
MODEL 5
REMARK VINA RESULT:      -5.1      1.990      3.145
REMARK  Name = 
REMARK  3 active torsions:
REMARK  status: ('A' for Active; 'I' for Inactive)
REMARK    1  A    between atoms: N_4  and  C_5
REMARK    2  A    between atoms: C_8  and  C_11
REMARK    3  A    between atoms: C_11  and  O_12
REMARK                            x       y       z     vdW  Elec       q    Type
REMARK                         _______ _______ _______ _____ _____    ______ ____
ROOT
ATOM      1  C   UNL     1      10.201   0.337  24.073  0.00  0.00    +0.100 A 
ATOM      2  C   UNL     1       9.453  -0.138  25.157  0.00  0.00    +0.043 A 
ATOM      3  C   UNL     1       9.030  -1.469  25.221  0.00  0.00    +0.018 A 
ATOM      4  C   UNL     1       9.352  -2.355  24.192  0.00  0.00    +0.059 A 
ATOM      5  C   UNL     1      10.150  -1.917  23.129  0.00  0.00    +0.018 A 
ATOM      6  C   UNL     1      10.569  -0.581  23.075  0.00  0.00    +0.043 A 
ENDROOT
BRANCH   1  11
ATOM      7  N   UNL     1      10.955   3.707  23.024  0.00  0.00    -0.289 N 
ATOM      8  H   UNL     1      10.858   4.087  23.958  0.00  0.00    +0.255 HD
ATOM      9  H   UNL     1      10.667   4.393  22.334  0.00  0.00    +0.255 HD
ATOM     10  C   UNL     1      10.382   2.487  22.866  0.00  0.00    +0.381 C 
ATOM     11  N   UNL     1      10.593   1.686  23.952  0.00  0.00    -0.244 N 
ATOM     12  H   UNL     1      11.417   1.923  24.486  0.00  0.00    +0.265 HD
ATOM     13  N   UNL     1       9.755   2.191  21.786  0.00  0.00    -0.129 NA
ATOM     14  H   UNL     1       9.787   2.966  21.127  0.00  0.00    +0.306 HD
ENDBRANCH   1  11
BRANCH   4  15
ATOM     15  C   UNL     1       8.855  -3.750  24.289  0.00  0.00    +0.337 C 
ATOM     16  O   UNL     1       7.711  -4.070  24.012  0.00  0.00    -0.245 OA
BRANCH  15  17
ATOM     17  O   UNL     1       9.801  -4.635  24.662  0.00  0.00    -0.477 OA
ATOM     18  H   UNL     1      10.694  -4.447  24.317  0.00  0.00    +0.295 HD
ENDBRANCH  15  17
ENDBRANCH   4  15
TORSDOF 3
ENDMDL
MODEL 6
REMARK VINA RESULT:      -5.1      2.020      2.853
REMARK  Name = 
REMARK  3 active torsions:
REMARK  status: ('A' for Active; 'I' for Inactive)
REMARK    1  A    between atoms: N_4  and  C_5
REMARK    2  A    between atoms: C_8  and  C_11
REMARK    3  A    between atoms: C_11  and  O_12
REMARK                            x       y       z     vdW  Elec       q    Type
REMARK                         _______ _______ _______ _____ _____    ______ ____
ROOT
ATOM      1  C   UNL     1       8.794   2.705  22.635  0.00  0.00    +0.100 A 
ATOM      2  C   UNL     1       9.198   2.209  23.881  0.00  0.00    +0.043 A 
ATOM      3  C   UNL     1       9.628   0.888  24.033  0.00  0.00    +0.018 A 
ATOM      4  C   UNL     1       9.661   0.032  22.931  0.00  0.00    +0.059 A 
ATOM      5  C   UNL     1       9.318   0.523  21.666  0.00  0.00    +0.018 A 
ATOM      6  C   UNL     1       8.889   1.849  21.524  0.00  0.00    +0.043 A 
ENDROOT
BRANCH   1  11
ATOM      7  N   UNL     1       6.874   5.689  21.972  0.00  0.00    -0.289 N 
ATOM      8  H   UNL     1       7.405   6.252  22.626  0.00  0.00    +0.255 HD
ATOM      9  H   UNL     1       5.912   6.006  21.937  0.00  0.00    +0.255 HD
ATOM     10  C   UNL     1       7.012   4.353  22.162  0.00  0.00    +0.381 C 
ATOM     11  N   UNL     1       8.301   4.014  22.461  0.00  0.00    -0.244 N 
ATOM     12  H   UNL     1       8.990   4.669  22.117  0.00  0.00    +0.265 HD
ATOM     13  N   UNL     1       6.007   3.564  22.035  0.00  0.00    -0.129 NA
ATOM     14  H   UNL     1       5.173   4.084  21.768  0.00  0.00    +0.306 HD
ENDBRANCH   1  11
BRANCH   4  15
ATOM     15  C   UNL     1      10.095  -1.370  23.147  0.00  0.00    +0.337 C 
ATOM     16  O   UNL     1       9.888  -1.979  24.183  0.00  0.00    -0.245 OA
BRANCH  15  17
ATOM     17  O   UNL     1      10.693  -1.921  22.072  0.00  0.00    -0.477 OA
ATOM     18  H   UNL     1      10.660  -2.895  22.042  0.00  0.00    +0.295 HD
ENDBRANCH  15  17
ENDBRANCH   4  15
TORSDOF 3
ENDMDL
MODEL 7
REMARK VINA RESULT:      -5.1      5.107      6.680
REMARK  Name = 
REMARK  3 active torsions:
REMARK  status: ('A' for Active; 'I' for Inactive)
REMARK    1  A    between atoms: N_4  and  C_5
REMARK    2  A    between atoms: C_8  and  C_11
REMARK    3  A    between atoms: C_11  and  O_12
REMARK                            x       y       z     vdW  Elec       q    Type
REMARK                         _______ _______ _______ _____ _____    ______ ____
ROOT
ATOM      1  C   UNL     1       7.896  -2.047  22.526  0.00  0.00    +0.100 A 
ATOM      2  C   UNL     1       7.068  -1.017  22.992  0.00  0.00    +0.043 A 
ATOM      3  C   UNL     1       7.407   0.327  22.811  0.00  0.00    +0.018 A 
ATOM      4  C   UNL     1       8.591   0.666  22.155  0.00  0.00    +0.059 A 
ATOM      5  C   UNL     1       9.403  -0.345  21.629  0.00  0.00    +0.018 A 
ATOM      6  C   UNL     1       9.054  -1.689  21.815  0.00  0.00    +0.043 A 
ENDROOT
BRANCH   1  11
ATOM      7  N   UNL     1       6.527  -5.384  22.648  0.00  0.00    -0.289 N 
ATOM      8  H   UNL     1       7.432  -5.819  22.778  0.00  0.00    +0.255 HD
ATOM      9  H   UNL     1       5.915  -5.997  22.119  0.00  0.00    +0.255 HD
ATOM     10  C   UNL     1       6.591  -4.117  22.168  0.00  0.00    +0.381 C 
ATOM     11  N   UNL     1       7.609  -3.410  22.743  0.00  0.00    -0.244 N 
ATOM     12  H   UNL     1       7.879  -3.745  23.658  0.00  0.00    +0.265 HD
ATOM     13  N   UNL     1       5.745  -3.700  21.297  0.00  0.00    -0.129 NA
ATOM     14  H   UNL     1       5.070  -4.429  21.075  0.00  0.00    +0.306 HD
ENDBRANCH   1  11
BRANCH   4  15
ATOM     15  C   UNL     1       8.924   2.106  22.014  0.00  0.00    +0.337 C 
ATOM     16  O   UNL     1       8.146   3.000  22.297  0.00  0.00    -0.245 OA
BRANCH  15  17
ATOM     17  O   UNL     1      10.186   2.327  21.593  0.00  0.00    -0.477 OA
ATOM     18  H   UNL     1      10.872   2.188  22.272  0.00  0.00    +0.295 HD
ENDBRANCH  15  17
ENDBRANCH   4  15
TORSDOF 3
ENDMDL
MODEL 8
REMARK VINA RESULT:      -5.0      4.323      5.619
REMARK  Name = 
REMARK  3 active torsions:
REMARK  status: ('A' for Active; 'I' for Inactive)
REMARK    1  A    between atoms: N_4  and  C_5
REMARK    2  A    between atoms: C_8  and  C_11
REMARK    3  A    between atoms: C_11  and  O_12
REMARK                            x       y       z     vdW  Elec       q    Type
REMARK                         _______ _______ _______ _____ _____    ______ ____
ROOT
ATOM      1  C   UNL     1       9.546  -0.485  22.896  0.00  0.00    +0.100 A 
ATOM      2  C   UNL     1       9.655   0.409  21.822  0.00  0.00    +0.043 A 
ATOM      3  C   UNL     1       9.979   1.753  22.025  0.00  0.00    +0.018 A 
ATOM      4  C   UNL     1      10.201   2.231  23.318  0.00  0.00    +0.059 A 
ATOM      5  C   UNL     1      10.155   1.344  24.399  0.00  0.00    +0.018 A 
ATOM      6  C   UNL     1       9.830  -0.002  24.184  0.00  0.00    +0.043 A 
ENDROOT
BRANCH   1  11
ATOM      7  N   UNL     1       7.855  -3.663  22.639  0.00  0.00    -0.289 N 
ATOM      8  H   UNL     1       8.530  -4.041  21.985  0.00  0.00    +0.255 HD
ATOM      9  H   UNL     1       6.934  -4.044  22.452  0.00  0.00    +0.255 HD
ATOM     10  C   UNL     1       7.886  -2.310  22.738  0.00  0.00    +0.381 C 
ATOM     11  N   UNL     1       9.165  -1.832  22.728  0.00  0.00    -0.244 N 
ATOM     12  H   UNL     1       9.856  -2.495  23.048  0.00  0.00    +0.265 HD
ATOM     13  N   UNL     1       6.800  -1.635  22.847  0.00  0.00    -0.129 NA
ATOM     14  H   UNL     1       5.991  -2.253  22.865  0.00  0.00    +0.306 HD
ENDBRANCH   1  11
BRANCH   4  15
ATOM     15  C   UNL     1      10.510   3.673  23.486  0.00  0.00    +0.337 C 
ATOM     16  O   UNL     1       9.808   4.434  24.129  0.00  0.00    -0.245 OA
BRANCH  15  17
ATOM     17  O   UNL     1      11.667   4.047  22.903  0.00  0.00    -0.477 OA
ATOM     18  H   UNL     1      11.989   4.929  23.167  0.00  0.00    +0.295 HD
ENDBRANCH  15  17
ENDBRANCH   4  15
TORSDOF 3
ENDMDL
MODEL 9
REMARK VINA RESULT:      -4.9      4.647      6.058
REMARK  Name = 
REMARK  3 active torsions:
REMARK  status: ('A' for Active; 'I' for Inactive)
REMARK    1  A    between atoms: N_4  and  C_5
REMARK    2  A    between atoms: C_8  and  C_11
REMARK    3  A    between atoms: C_11  and  O_12
REMARK                            x       y       z     vdW  Elec       q    Type
REMARK                         _______ _______ _______ _____ _____    ______ ____
ROOT
ATOM      1  C   UNL     1       7.749  -2.622  23.985  0.00  0.00    +0.100 A 
ATOM      2  C   UNL     1       8.162  -3.957  24.082  0.00  0.00    +0.043 A 
ATOM      3  C   UNL     1       7.673  -4.935  23.212  0.00  0.00    +0.018 A 
ATOM      4  C   UNL     1       6.753  -4.591  22.220  0.00  0.00    +0.059 A 
ATOM      5  C   UNL     1       6.372  -3.254  22.068  0.00  0.00    +0.018 A 
ATOM      6  C   UNL     1       6.868  -2.281  22.945  0.00  0.00    +0.043 A 
ENDROOT
BRANCH   1  11
ATOM      7  N   UNL     1       9.496  -0.061  25.832  0.00  0.00    -0.289 N 
ATOM      8  H   UNL     1       8.642   0.364  26.174  0.00  0.00    +0.255 HD
ATOM      9  H   UNL     1      10.211   0.647  25.701  0.00  0.00    +0.255 HD
ATOM     10  C   UNL     1       9.313  -0.871  24.760  0.00  0.00    +0.381 C 
ATOM     11  N   UNL     1       8.181  -1.625  24.884  0.00  0.00    -0.244 N 
ATOM     12  H   UNL     1       7.890  -1.781  25.839  0.00  0.00    +0.265 HD
ATOM     13  N   UNL     1      10.161  -0.887  23.796  0.00  0.00    -0.129 NA
ATOM     14  H   UNL     1      10.933  -0.251  23.986  0.00  0.00    +0.306 HD
ENDBRANCH   1  11
BRANCH   4  15
ATOM     15  C   UNL     1       6.237  -5.669  21.340  0.00  0.00    +0.337 C 
ATOM     16  O   UNL     1       5.985  -5.502  20.159  0.00  0.00    -0.245 OA
BRANCH  15  17
ATOM     17  O   UNL     1       6.123  -6.862  21.960  0.00  0.00    -0.477 OA
ATOM     18  H   UNL     1       5.835  -7.594  21.384  0.00  0.00    +0.295 HD
ENDBRANCH  15  17
ENDBRANCH   4  15
TORSDOF 3
ENDMDL
