MODEL 1
REMARK VINA RESULT:      -6.7      0.000      0.000
REMARK  Name = 
REMARK  10 active torsions:
REMARK  status: ('A' for Active; 'I' for Inactive)
REMARK    1  A    between atoms: C_1  and  N_2
REMARK    2  A    between atoms: C_9  and  N_10
REMARK    3  A    between atoms: N_10  and  C_11
REMARK    4  A    between atoms: C_11  and  C_12
REMARK    5  A    between atoms: C_12  and  C_13
REMARK    6  A    between atoms: C_13  and  C_14
REMARK    7  A    between atoms: C_14  and  C_15
REMARK    8  A    between atoms: C_15  and  C_16
REMARK    9  A    between atoms: C_16  and  C_17
REMARK   10  A    between atoms: C_17  and  O_18
REMARK                            x       y       z     vdW  Elec       q    Type
REMARK                         _______ _______ _______ _____ _____    ______ ____
ROOT
ATOM      1  C   UNL     1       5.489  -1.586  26.567  0.00  0.00    +0.157 C 
ATOM      2  N   UNL     1       6.847  -1.721  26.045  0.00  0.00    -0.206 N 
ATOM      3  S   UNL     1       7.919  -0.443  26.235  0.00  0.00    +0.075 S 
ATOM      4  O   UNL     1       8.998  -0.850  27.111  0.00  0.00    -0.150 OA
ATOM      5  O   UNL     1       7.132   0.741  26.522  0.00  0.00    -0.150 OA
ATOM      6  C   UNL     1       8.652  -0.157  24.626  0.00  0.00    +0.115 A 
ATOM      7  C   UNL     1       9.334   1.075  24.541  0.00  0.00    +0.049 A 
ATOM      8  C   UNL     1       9.949   1.458  23.358  0.00  0.00    +0.043 A 
ATOM      9  C   UNL     1       9.918   0.615  22.259  0.00  0.00    +0.020 A 
ATOM     10  C   UNL     1       9.233  -0.602  22.332  0.00  0.00    +0.009 A 
ATOM     11 CL   UNL     1      10.725   2.988  23.248  0.00  0.00    -0.083 Cl
ATOM     12  C   UNL     1       8.558  -1.019  23.504  0.00  0.00    +0.001 A 
ATOM     13  C   UNL     1       7.643  -2.256  23.455  0.00  0.00    +0.118 C 
ATOM     14  C   UNL     1       7.911  -3.280  24.549  0.00  0.00    -0.003 A 
ATOM     15  C   UNL     1       8.561  -4.507  24.342  0.00  0.00    +0.007 A 
ATOM     16  C   UNL     1       8.684  -5.436  25.378  0.00  0.00    +0.000 A 
ATOM     17  C   UNL     1       8.206  -5.131  26.651  0.00  0.00    +0.002 A 
ATOM     18  C   UNL     1       7.591  -3.904  26.886  0.00  0.00    +0.025 A 
ATOM     19  C   UNL     1       7.426  -3.001  25.833  0.00  0.00    +0.056 A 
ENDROOT
BRANCH  13  20
ATOM     20  N   UNL     1       7.542  -2.853  22.100  0.00  0.00    -0.306 NA
ATOM     21  H   UNL     1       8.221  -3.606  22.024  0.00  0.00    +0.123 HD
BRANCH  20  22
ATOM     22  C   UNL     1       6.212  -3.355  21.736  0.00  0.00    +0.082 C 
BRANCH  22  23
ATOM     23  C   UNL     1       6.160  -4.869  21.540  0.00  0.00    +0.015 C 
BRANCH  23  24
ATOM     24  C   UNL     1       5.359  -5.547  22.648  0.00  0.00    +0.001 C 
BRANCH  24  25
ATOM     25  C   UNL     1       4.617  -4.501  23.477  0.00  0.00    +0.001 C 
BRANCH  25  26
ATOM     26  C   UNL     1       4.426  -4.974  24.913  0.00  0.00    +0.011 C 
BRANCH  26  27
ATOM     27  C   UNL     1       5.065  -6.342  25.136  0.00  0.00    +0.120 C 
BRANCH  27  28
ATOM     28  C   UNL     1       4.674  -6.924  26.479  0.00  0.00    +0.305 C 
ATOM     29  O   UNL     1       5.411  -7.013  27.446  0.00  0.00    -0.251 OA
BRANCH  28  30
ATOM     30  O   UNL     1       3.391  -7.345  26.500  0.00  0.00    -0.481 OA
ATOM     31  H   UNL     1       2.873  -6.998  27.250  0.00  0.00    +0.295 HD
ENDBRANCH  28  30
ENDBRANCH  27  28
ENDBRANCH  26  27
ENDBRANCH  25  26
ENDBRANCH  24  25
ENDBRANCH  23  24
ENDBRANCH  22  23
ENDBRANCH  20  22
ENDBRANCH  13  20
TORSDOF 9
ENDMDL
MODEL 2
REMARK VINA RESULT:      -6.3      3.066      4.620
REMARK  Name = 
REMARK  10 active torsions:
REMARK  status: ('A' for Active; 'I' for Inactive)
REMARK    1  A    between atoms: C_1  and  N_2
REMARK    2  A    between atoms: C_9  and  N_10
REMARK    3  A    between atoms: N_10  and  C_11
REMARK    4  A    between atoms: C_11  and  C_12
REMARK    5  A    between atoms: C_12  and  C_13
REMARK    6  A    between atoms: C_13  and  C_14
REMARK    7  A    between atoms: C_14  and  C_15
REMARK    8  A    between atoms: C_15  and  C_16
REMARK    9  A    between atoms: C_16  and  C_17
REMARK   10  A    between atoms: C_17  and  O_18
REMARK                            x       y       z     vdW  Elec       q    Type
REMARK                         _______ _______ _______ _____ _____    ______ ____
ROOT
ATOM      1  C   UNL     1      10.365   0.133  25.048  0.00  0.00    +0.157 C 
ATOM      2  N   UNL     1       9.392   0.385  23.987  0.00  0.00    -0.206 N 
ATOM      3  S   UNL     1       9.591   1.735  23.009  0.00  0.00    +0.075 S 
ATOM      4  O   UNL     1       9.866   1.307  21.654  0.00  0.00    -0.150 OA
ATOM      5  O   UNL     1      10.488   2.641  23.701  0.00  0.00    -0.150 OA
ATOM      6  C   UNL     1       8.004   2.564  22.968  0.00  0.00    +0.115 A 
ATOM      7  C   UNL     1       8.079   3.876  22.452  0.00  0.00    +0.049 A 
ATOM      8  C   UNL     1       6.941   4.663  22.363  0.00  0.00    +0.043 A 
ATOM      9  C   UNL     1       5.715   4.152  22.757  0.00  0.00    +0.020 A 
ATOM     10  C   UNL     1       5.635   2.857  23.281  0.00  0.00    +0.009 A 
ATOM     11 CL   UNL     1       7.055   6.279  21.789  0.00  0.00    -0.083 Cl
ATOM     12  C   UNL     1       6.774   2.031  23.428  0.00  0.00    +0.001 A 
ATOM     13  C   UNL     1       6.659   0.710  24.210  0.00  0.00    +0.118 C 
ATOM     14  C   UNL     1       7.213  -0.504  23.478  0.00  0.00    -0.003 A 
ATOM     15  C   UNL     1       6.420  -1.496  22.878  0.00  0.00    +0.007 A 
ATOM     16  C   UNL     1       7.004  -2.631  22.308  0.00  0.00    +0.000 A 
ATOM     17  C   UNL     1       8.390  -2.766  22.281  0.00  0.00    +0.002 A 
ATOM     18  C   UNL     1       9.195  -1.775  22.839  0.00  0.00    +0.025 A 
ATOM     19  C   UNL     1       8.603  -0.668  23.452  0.00  0.00    +0.056 A 
ENDROOT
BRANCH  13  20
ATOM     20  N   UNL     1       5.308   0.487  24.783  0.00  0.00    -0.306 NA
ATOM     21  H   UNL     1       4.774  -0.095  24.143  0.00  0.00    +0.123 HD
BRANCH  20  22
ATOM     22  C   UNL     1       5.288  -0.111  26.122  0.00  0.00    +0.082 C 
BRANCH  22  23
ATOM     23  C   UNL     1       4.698  -1.521  26.155  0.00  0.00    +0.015 C 
BRANCH  23  24
ATOM     24  C   UNL     1       5.734  -2.547  26.604  0.00  0.00    +0.001 C 
BRANCH  24  25
ATOM     25  C   UNL     1       7.097  -1.880  26.776  0.00  0.00    +0.001 C 
BRANCH  25  26
ATOM     26  C   UNL     1       8.221  -2.802  26.318  0.00  0.00    +0.011 C 
BRANCH  26  27
ATOM     27  C   UNL     1       7.674  -4.008  25.558  0.00  0.00    +0.120 C 
BRANCH  27  28
ATOM     28  C   UNL     1       8.609  -5.195  25.655  0.00  0.00    +0.305 C 
ATOM     29  O   UNL     1       9.453  -5.493  24.827  0.00  0.00    -0.251 OA
BRANCH  28  30
ATOM     30  O   UNL     1       8.413  -5.910  26.784  0.00  0.00    -0.481 OA
ATOM     31  H   UNL     1       8.354  -6.872  26.637  0.00  0.00    +0.295 HD
ENDBRANCH  28  30
ENDBRANCH  27  28
ENDBRANCH  26  27
ENDBRANCH  25  26
ENDBRANCH  24  25
ENDBRANCH  23  24
ENDBRANCH  22  23
ENDBRANCH  20  22
ENDBRANCH  13  20
TORSDOF 9
ENDMDL
MODEL 3
REMARK VINA RESULT:      -6.1      3.640      7.127
REMARK  Name = 
REMARK  10 active torsions:
REMARK  status: ('A' for Active; 'I' for Inactive)
REMARK    1  A    between atoms: C_1  and  N_2
REMARK    2  A    between atoms: C_9  and  N_10
REMARK    3  A    between atoms: N_10  and  C_11
REMARK    4  A    between atoms: C_11  and  C_12
REMARK    5  A    between atoms: C_12  and  C_13
REMARK    6  A    between atoms: C_13  and  C_14
REMARK    7  A    between atoms: C_14  and  C_15
REMARK    8  A    between atoms: C_15  and  C_16
REMARK    9  A    between atoms: C_16  and  C_17
REMARK   10  A    between atoms: C_17  and  O_18
REMARK                            x       y       z     vdW  Elec       q    Type
REMARK                         _______ _______ _______ _____ _____    ______ ____
ROOT
ATOM      1  C   UNL     1       7.826  -2.747  22.046  0.00  0.00    +0.157 C 
ATOM      2  N   UNL     1       7.169  -3.589  23.044  0.00  0.00    -0.206 N 
ATOM      3  S   UNL     1       5.971  -4.653  22.543  0.00  0.00    +0.075 S 
ATOM      4  O   UNL     1       6.420  -6.013  22.757  0.00  0.00    -0.150 OA
ATOM      5  O   UNL     1       5.522  -4.213  21.237  0.00  0.00    -0.150 OA
ATOM      6  C   UNL     1       4.581  -4.399  23.644  0.00  0.00    +0.115 A 
ATOM      7  C   UNL     1       3.388  -4.985  23.171  0.00  0.00    +0.049 A 
ATOM      8  C   UNL     1       2.211  -4.870  23.896  0.00  0.00    +0.043 A 
ATOM      9  C   UNL     1       2.211  -4.200  25.109  0.00  0.00    +0.020 A 
ATOM     10  C   UNL     1       3.387  -3.606  25.578  0.00  0.00    +0.009 A 
ATOM     11 CL   UNL     1       0.751  -5.536  23.280  0.00  0.00    -0.083 Cl
ATOM     12  C   UNL     1       4.602  -3.662  24.855  0.00  0.00    +0.001 A 
ATOM     13  C   UNL     1       5.799  -2.808  25.310  0.00  0.00    +0.118 C 
ATOM     14  C   UNL     1       7.103  -3.579  25.451  0.00  0.00    -0.003 A 
ATOM     15  C   UNL     1       7.677  -3.946  26.679  0.00  0.00    +0.007 A 
ATOM     16  C   UNL     1       8.927  -4.569  26.727  0.00  0.00    +0.000 A 
ATOM     17  C   UNL     1       9.599  -4.882  25.547  0.00  0.00    +0.002 A 
ATOM     18  C   UNL     1       9.029  -4.559  24.318  0.00  0.00    +0.025 A 
ATOM     19  C   UNL     1       7.803  -3.890  24.279  0.00  0.00    +0.056 A 
ENDROOT
BRANCH  13  20
ATOM     20  N   UNL     1       5.490  -1.952  26.483  0.00  0.00    -0.306 NA
ATOM     21  H   UNL     1       5.997  -2.307  27.289  0.00  0.00    +0.123 HD
BRANCH  20  22
ATOM     22  C   UNL     1       5.786  -0.525  26.309  0.00  0.00    +0.082 C 
BRANCH  22  23
ATOM     23  C   UNL     1       7.237  -0.158  26.616  0.00  0.00    +0.015 C 
BRANCH  23  24
ATOM     24  C   UNL     1       8.021   0.128  25.338  0.00  0.00    +0.001 C 
BRANCH  24  25
ATOM     25  C   UNL     1       9.380  -0.568  25.387  0.00  0.00    +0.001 C 
BRANCH  25  26
ATOM     26  C   UNL     1      10.054  -0.552  24.020  0.00  0.00    +0.011 C 
BRANCH  26  27
ATOM     27  C   UNL     1      10.345   0.875  23.562  0.00  0.00    +0.120 C 
BRANCH  27  28
ATOM     28  C   UNL     1       9.991   1.071  22.103  0.00  0.00    +0.305 C 
ATOM     29  O   UNL     1       9.509   0.217  21.377  0.00  0.00    -0.251 OA
BRANCH  28  30
ATOM     30  O   UNL     1      10.270   2.319  21.671  0.00  0.00    -0.481 OA
ATOM     31  H   UNL     1      10.310   2.404  20.701  0.00  0.00    +0.295 HD
ENDBRANCH  28  30
ENDBRANCH  27  28
ENDBRANCH  26  27
ENDBRANCH  25  26
ENDBRANCH  24  25
ENDBRANCH  23  24
ENDBRANCH  22  23
ENDBRANCH  20  22
ENDBRANCH  13  20
TORSDOF 9
ENDMDL
MODEL 4
REMARK VINA RESULT:      -5.9      2.705      5.855
REMARK  Name = 
REMARK  10 active torsions:
REMARK  status: ('A' for Active; 'I' for Inactive)
REMARK    1  A    between atoms: C_1  and  N_2
REMARK    2  A    between atoms: C_9  and  N_10
REMARK    3  A    between atoms: N_10  and  C_11
REMARK    4  A    between atoms: C_11  and  C_12
REMARK    5  A    between atoms: C_12  and  C_13
REMARK    6  A    between atoms: C_13  and  C_14
REMARK    7  A    between atoms: C_14  and  C_15
REMARK    8  A    between atoms: C_15  and  C_16
REMARK    9  A    between atoms: C_16  and  C_17
REMARK   10  A    between atoms: C_17  and  O_18
REMARK                            x       y       z     vdW  Elec       q    Type
REMARK                         _______ _______ _______ _____ _____    ______ ____
ROOT
ATOM      1  C   UNL     1       7.795  -5.289  26.739  0.00  0.00    +0.157 C 
ATOM      2  N   UNL     1       7.224  -4.801  25.486  0.00  0.00    -0.206 N 
ATOM      3  S   UNL     1       8.257  -4.439  24.212  0.00  0.00    +0.075 S 
ATOM      4  O   UNL     1       8.008  -5.356  23.120  0.00  0.00    -0.150 OA
ATOM      5  O   UNL     1       9.588  -4.284  24.767  0.00  0.00    -0.150 OA
ATOM      6  C   UNL     1       7.784  -2.813  23.628  0.00  0.00    +0.115 A 
ATOM      7  C   UNL     1       8.746  -2.232  22.775  0.00  0.00    +0.049 A 
ATOM      8  C   UNL     1       8.543  -0.967  22.244  0.00  0.00    +0.043 A 
ATOM      9  C   UNL     1       7.375  -0.278  22.528  0.00  0.00    +0.020 A 
ATOM     10  C   UNL     1       6.422  -0.843  23.383  0.00  0.00    +0.009 A 
ATOM     11 CL   UNL     1       9.749  -0.244  21.255  0.00  0.00    -0.083 Cl
ATOM     12  C   UNL     1       6.603  -2.113  23.981  0.00  0.00    +0.001 A 
ATOM     13  C   UNL     1       5.631  -2.583  25.078  0.00  0.00    +0.118 C 
ATOM     14  C   UNL     1       5.054  -3.972  24.853  0.00  0.00    -0.003 A 
ATOM     15  C   UNL     1       3.738  -4.224  24.431  0.00  0.00    +0.007 A 
ATOM     16  C   UNL     1       3.253  -5.532  24.340  0.00  0.00    +0.000 A 
ATOM     17  C   UNL     1       4.091  -6.609  24.619  0.00  0.00    +0.002 A 
ATOM     18  C   UNL     1       5.410  -6.381  25.005  0.00  0.00    +0.025 A 
ATOM     19  C   UNL     1       5.873  -5.071  25.143  0.00  0.00    +0.056 A 
ENDROOT
BRANCH  13  20
ATOM     20  N   UNL     1       4.606  -1.566  25.422  0.00  0.00    -0.306 NA
ATOM     21  H   UNL     1       3.717  -2.037  25.571  0.00  0.00    +0.123 HD
BRANCH  20  22
ATOM     22  C   UNL     1       4.919  -0.732  26.587  0.00  0.00    +0.082 C 
BRANCH  22  23
ATOM     23  C   UNL     1       6.221  -1.120  27.287  0.00  0.00    +0.015 C 
BRANCH  23  24
ATOM     24  C   UNL     1       7.319  -0.091  27.031  0.00  0.00    +0.001 C 
BRANCH  24  25
ATOM     25  C   UNL     1       8.665  -0.790  26.854  0.00  0.00    +0.001 C 
BRANCH  25  26
ATOM     26  C   UNL     1       9.443  -0.196  25.686  0.00  0.00    +0.011 C 
BRANCH  26  27
ATOM     27  C   UNL     1       8.935   1.200  25.334  0.00  0.00    +0.120 C 
BRANCH  27  28
ATOM     28  C   UNL     1       9.813   1.862  24.292  0.00  0.00    +0.305 C 
ATOM     29  O   UNL     1       9.477   2.795  23.582  0.00  0.00    -0.251 OA
BRANCH  28  30
ATOM     30  O   UNL     1      11.040   1.303  24.226  0.00  0.00    -0.481 OA
ATOM     31  H   UNL     1      11.082   0.395  24.578  0.00  0.00    +0.295 HD
ENDBRANCH  28  30
ENDBRANCH  27  28
ENDBRANCH  26  27
ENDBRANCH  25  26
ENDBRANCH  24  25
ENDBRANCH  23  24
ENDBRANCH  22  23
ENDBRANCH  20  22
ENDBRANCH  13  20
TORSDOF 9
ENDMDL
MODEL 5
REMARK VINA RESULT:      -5.8      2.523      4.339
REMARK  Name = 
REMARK  10 active torsions:
REMARK  status: ('A' for Active; 'I' for Inactive)
REMARK    1  A    between atoms: C_1  and  N_2
REMARK    2  A    between atoms: C_9  and  N_10
REMARK    3  A    between atoms: N_10  and  C_11
REMARK    4  A    between atoms: C_11  and  C_12
REMARK    5  A    between atoms: C_12  and  C_13
REMARK    6  A    between atoms: C_13  and  C_14
REMARK    7  A    between atoms: C_14  and  C_15
REMARK    8  A    between atoms: C_15  and  C_16
REMARK    9  A    between atoms: C_16  and  C_17
REMARK   10  A    between atoms: C_17  and  O_18
REMARK                            x       y       z     vdW  Elec       q    Type
REMARK                         _______ _______ _______ _____ _____    ______ ____
ROOT
ATOM      1  C   UNL     1       7.908  -5.257  26.501  0.00  0.00    +0.157 C 
ATOM      2  N   UNL     1       7.229  -4.609  25.380  0.00  0.00    -0.206 N 
ATOM      3  S   UNL     1       8.131  -4.161  24.037  0.00  0.00    +0.075 S 
ATOM      4  O   UNL     1       7.706  -4.941  22.894  0.00  0.00    -0.150 OA
ATOM      5  O   UNL     1       9.523  -4.130  24.443  0.00  0.00    -0.150 OA
ATOM      6  C   UNL     1       7.693  -2.461  23.681  0.00  0.00    +0.115 A 
ATOM      7  C   UNL     1       8.585  -1.836  22.784  0.00  0.00    +0.049 A 
ATOM      8  C   UNL     1       8.399  -0.513  22.413  0.00  0.00    +0.043 A 
ATOM      9  C   UNL     1       7.314   0.195  22.903  0.00  0.00    +0.020 A 
ATOM     10  C   UNL     1       6.432  -0.413  23.803  0.00  0.00    +0.009 A 
ATOM     11 CL   UNL     1       9.526   0.254  21.367  0.00  0.00    -0.083 Cl
ATOM     12  C   UNL     1       6.603  -1.747  24.242  0.00  0.00    +0.001 A 
ATOM     13  C   UNL     1       5.735  -2.287  25.393  0.00  0.00    +0.118 C 
ATOM     14  C   UNL     1       5.054  -3.615  25.098  0.00  0.00    -0.003 A 
ATOM     15  C   UNL     1       3.687  -3.757  24.810  0.00  0.00    +0.007 A 
ATOM     16  C   UNL     1       3.117  -5.022  24.645  0.00  0.00    +0.000 A 
ATOM     17  C   UNL     1       3.915  -6.162  24.711  0.00  0.00    +0.002 A 
ATOM     18  C   UNL     1       5.280  -6.040  24.959  0.00  0.00    +0.025 A 
ATOM     19  C   UNL     1       5.834  -4.776  25.174  0.00  0.00    +0.056 A 
ENDROOT
BRANCH  13  20
ATOM     20  N   UNL     1       4.817  -1.266  25.958  0.00  0.00    -0.306 NA
ATOM     21  H   UNL     1       3.861  -1.520  25.723  0.00  0.00    +0.123 HD
BRANCH  20  22
ATOM     22  C   UNL     1       4.927  -1.061  27.406  0.00  0.00    +0.082 C 
BRANCH  22  23
ATOM     23  C   UNL     1       3.715  -1.562  28.190  0.00  0.00    +0.015 C 
BRANCH  23  24
ATOM     24  C   UNL     1       4.014  -2.882  28.895  0.00  0.00    +0.001 C 
BRANCH  24  25
ATOM     25  C   UNL     1       3.036  -3.960  28.432  0.00  0.00    +0.001 C 
BRANCH  25  26
ATOM     26  C   UNL     1       3.715  -5.323  28.365  0.00  0.00    +0.011 C 
BRANCH  26  27
ATOM     27  C   UNL     1       5.173  -5.240  28.807  0.00  0.00    +0.120 C 
BRANCH  27  28
ATOM     28  C   UNL     1       5.701  -6.594  29.234  0.00  0.00    +0.305 C 
ATOM     29  O   UNL     1       6.284  -6.821  30.280  0.00  0.00    -0.251 OA
BRANCH  28  30
ATOM     30  O   UNL     1       5.454  -7.553  28.315  0.00  0.00    -0.481 OA
ATOM     31  H   UNL     1       6.107  -7.586  27.592  0.00  0.00    +0.295 HD
ENDBRANCH  28  30
ENDBRANCH  27  28
ENDBRANCH  26  27
ENDBRANCH  25  26
ENDBRANCH  24  25
ENDBRANCH  23  24
ENDBRANCH  22  23
ENDBRANCH  20  22
ENDBRANCH  13  20
TORSDOF 9
ENDMDL
MODEL 6
REMARK VINA RESULT:      -5.8      3.695      7.879
REMARK  Name = 
REMARK  10 active torsions:
REMARK  status: ('A' for Active; 'I' for Inactive)
REMARK    1  A    between atoms: C_1  and  N_2
REMARK    2  A    between atoms: C_9  and  N_10
REMARK    3  A    between atoms: N_10  and  C_11
REMARK    4  A    between atoms: C_11  and  C_12
REMARK    5  A    between atoms: C_12  and  C_13
REMARK    6  A    between atoms: C_13  and  C_14
REMARK    7  A    between atoms: C_14  and  C_15
REMARK    8  A    between atoms: C_15  and  C_16
REMARK    9  A    between atoms: C_16  and  C_17
REMARK   10  A    between atoms: C_17  and  O_18
REMARK                            x       y       z     vdW  Elec       q    Type
REMARK                         _______ _______ _______ _____ _____    ______ ____
ROOT
ATOM      1  C   UNL     1       7.774  -0.135  26.872  0.00  0.00    +0.157 C 
ATOM      2  N   UNL     1       6.906  -0.362  25.718  0.00  0.00    -0.206 N 
ATOM      3  S   UNL     1       5.718  -1.545  25.820  0.00  0.00    +0.075 S 
ATOM      4  O   UNL     1       4.414  -0.919  25.755  0.00  0.00    -0.150 OA
ATOM      5  O   UNL     1       6.072  -2.419  26.921  0.00  0.00    -0.150 OA
ATOM      6  C   UNL     1       5.875  -2.544  24.341  0.00  0.00    +0.115 A 
ATOM      7  C   UNL     1       5.165  -3.761  24.418  0.00  0.00    +0.049 A 
ATOM      8  C   UNL     1       5.191  -4.659  23.362  0.00  0.00    +0.043 A 
ATOM      9  C   UNL     1       5.896  -4.350  22.210  0.00  0.00    +0.020 A 
ATOM     10  C   UNL     1       6.613  -3.151  22.131  0.00  0.00    +0.009 A 
ATOM     11 CL   UNL     1       4.372  -6.165  23.492  0.00  0.00    -0.083 Cl
ATOM     12  C   UNL     1       6.648  -2.222  23.197  0.00  0.00    +0.001 A 
ATOM     13  C   UNL     1       7.625  -1.033  23.138  0.00  0.00    +0.118 C 
ATOM     14  C   UNL     1       6.986   0.320  23.410  0.00  0.00    -0.003 A 
ATOM     15  C   UNL     1       6.713   1.280  22.422  0.00  0.00    +0.007 A 
ATOM     16  C   UNL     1       6.212   2.539  22.766  0.00  0.00    +0.000 A 
ATOM     17  C   UNL     1       5.926   2.839  24.096  0.00  0.00    +0.002 A 
ATOM     18  C   UNL     1       6.156   1.887  25.087  0.00  0.00    +0.025 A 
ATOM     19  C   UNL     1       6.704   0.649  24.742  0.00  0.00    +0.056 A 
ENDROOT
BRANCH  13  20
ATOM     20  N   UNL     1       8.485  -1.046  21.928  0.00  0.00    -0.306 NA
ATOM     21  H   UNL     1       8.269  -0.228  21.365  0.00  0.00    +0.123 HD
BRANCH  20  22
ATOM     22  C   UNL     1       9.929  -1.093  22.189  0.00  0.00    +0.082 C 
BRANCH  22  23
ATOM     23  C   UNL     1      10.383  -0.145  23.298  0.00  0.00    +0.015 C 
BRANCH  23  24
ATOM     24  C   UNL     1      10.390   1.306  22.823  0.00  0.00    +0.001 C 
BRANCH  24  25
ATOM     25  C   UNL     1      10.023   2.239  23.976  0.00  0.00    +0.001 C 
BRANCH  25  26
ATOM     26  C   UNL     1      10.220   3.698  23.583  0.00  0.00    +0.011 C 
BRANCH  26  27
ATOM     27  C   UNL     1      11.688   4.003  23.299  0.00  0.00    +0.120 C 
BRANCH  27  28
ATOM     28  C   UNL     1      12.061   5.400  23.749  0.00  0.00    +0.305 C 
ATOM     29  O   UNL     1      11.278   6.232  24.176  0.00  0.00    -0.251 OA
BRANCH  28  30
ATOM     30  O   UNL     1      13.384   5.641  23.630  0.00  0.00    -0.481 OA
ATOM     31  H   UNL     1      13.778   6.083  24.405  0.00  0.00    +0.295 HD
ENDBRANCH  28  30
ENDBRANCH  27  28
ENDBRANCH  26  27
ENDBRANCH  25  26
ENDBRANCH  24  25
ENDBRANCH  23  24
ENDBRANCH  22  23
ENDBRANCH  20  22
ENDBRANCH  13  20
TORSDOF 9
ENDMDL
MODEL 7
REMARK VINA RESULT:      -5.4      3.376      6.931
REMARK  Name = 
REMARK  10 active torsions:
REMARK  status: ('A' for Active; 'I' for Inactive)
REMARK    1  A    between atoms: C_1  and  N_2
REMARK    2  A    between atoms: C_9  and  N_10
REMARK    3  A    between atoms: N_10  and  C_11
REMARK    4  A    between atoms: C_11  and  C_12
REMARK    5  A    between atoms: C_12  and  C_13
REMARK    6  A    between atoms: C_13  and  C_14
REMARK    7  A    between atoms: C_14  and  C_15
REMARK    8  A    between atoms: C_15  and  C_16
REMARK    9  A    between atoms: C_16  and  C_17
REMARK   10  A    between atoms: C_17  and  O_18
REMARK                            x       y       z     vdW  Elec       q    Type
REMARK                         _______ _______ _______ _____ _____    ______ ____
ROOT
ATOM      1  C   UNL     1       6.777  -4.003  21.964  0.00  0.00    +0.157 C 
ATOM      2  N   UNL     1       6.429  -4.155  23.376  0.00  0.00    -0.206 N 
ATOM      3  S   UNL     1       4.926  -4.789  23.775  0.00  0.00    +0.075 S 
ATOM      4  O   UNL     1       5.106  -6.065  24.436  0.00  0.00    -0.150 OA
ATOM      5  O   UNL     1       4.082  -4.670  22.602  0.00  0.00    -0.150 OA
ATOM      6  C   UNL     1       4.221  -3.682  24.994  0.00  0.00    +0.115 A 
ATOM      7  C   UNL     1       2.841  -3.894  25.200  0.00  0.00    +0.049 A 
ATOM      8  C   UNL     1       2.136  -3.112  26.102  0.00  0.00    +0.043 A 
ATOM      9  C   UNL     1       2.794  -2.132  26.828  0.00  0.00    +0.020 A 
ATOM     10  C   UNL     1       4.159  -1.907  26.619  0.00  0.00    +0.009 A 
ATOM     11 CL   UNL     1       0.444  -3.340  26.300  0.00  0.00    -0.083 Cl
ATOM     12  C   UNL     1       4.912  -2.652  25.682  0.00  0.00    +0.001 A 
ATOM     13  C   UNL     1       6.348  -2.215  25.339  0.00  0.00    +0.118 C 
ATOM     14  C   UNL     1       7.382  -3.328  25.427  0.00  0.00    -0.003 A 
ATOM     15  C   UNL     1       8.319  -3.458  26.465  0.00  0.00    +0.007 A 
ATOM     16  C   UNL     1       9.299  -4.453  26.424  0.00  0.00    +0.000 A 
ATOM     17  C   UNL     1       9.325  -5.366  25.372  0.00  0.00    +0.002 A 
ATOM     18  C   UNL     1       8.382  -5.277  24.351  0.00  0.00    +0.025 A 
ATOM     19  C   UNL     1       7.436  -4.248  24.372  0.00  0.00    +0.056 A 
ENDROOT
BRANCH  13  20
ATOM     20  N   UNL     1       6.759  -0.971  26.036  0.00  0.00    -0.306 NA
ATOM     21  H   UNL     1       7.260  -1.222  26.885  0.00  0.00    +0.123 HD
BRANCH  20  22
ATOM     22  C   UNL     1       7.579  -0.051  25.240  0.00  0.00    +0.082 C 
BRANCH  22  23
ATOM     23  C   UNL     1       6.764   0.862  24.325  0.00  0.00    +0.015 C 
BRANCH  23  24
ATOM     24  C   UNL     1       6.898   0.450  22.862  0.00  0.00    +0.001 C 
BRANCH  24  25
ATOM     25  C   UNL     1       7.957  -0.642  22.718  0.00  0.00    +0.001 C 
BRANCH  25  26
ATOM     26  C   UNL     1       9.098  -0.184  21.817  0.00  0.00    +0.011 C 
BRANCH  26  27
ATOM     27  C   UNL     1      10.291   0.303  22.635  0.00  0.00    +0.120 C 
BRANCH  27  28
ATOM     28  C   UNL     1      10.249   1.803  22.836  0.00  0.00    +0.305 C 
ATOM     29  O   UNL     1      10.134   2.364  23.913  0.00  0.00    -0.251 OA
BRANCH  28  30
ATOM     30  O   UNL     1      10.356   2.479  21.672  0.00  0.00    -0.481 OA
ATOM     31  H   UNL     1      11.273   2.695  21.421  0.00  0.00    +0.295 HD
ENDBRANCH  28  30
ENDBRANCH  27  28
ENDBRANCH  26  27
ENDBRANCH  25  26
ENDBRANCH  24  25
ENDBRANCH  23  24
ENDBRANCH  22  23
ENDBRANCH  20  22
ENDBRANCH  13  20
TORSDOF 9
ENDMDL
MODEL 8
REMARK VINA RESULT:      -5.2      3.170      5.868
REMARK  Name = 
REMARK  10 active torsions:
REMARK  status: ('A' for Active; 'I' for Inactive)
REMARK    1  A    between atoms: C_1  and  N_2
REMARK    2  A    between atoms: C_9  and  N_10
REMARK    3  A    between atoms: N_10  and  C_11
REMARK    4  A    between atoms: C_11  and  C_12
REMARK    5  A    between atoms: C_12  and  C_13
REMARK    6  A    between atoms: C_13  and  C_14
REMARK    7  A    between atoms: C_14  and  C_15
REMARK    8  A    between atoms: C_15  and  C_16
REMARK    9  A    between atoms: C_16  and  C_17
REMARK   10  A    between atoms: C_17  and  O_18
REMARK                            x       y       z     vdW  Elec       q    Type
REMARK                         _______ _______ _______ _____ _____    ______ ____
ROOT
ATOM      1  C   UNL     1       4.879  -6.999  24.268  0.00  0.00    +0.157 C 
ATOM      2  N   UNL     1       4.468  -5.620  24.011  0.00  0.00    -0.206 N 
ATOM      3  S   UNL     1       5.518  -4.603  23.185  0.00  0.00    +0.075 S 
ATOM      4  O   UNL     1       4.932  -4.244  21.910  0.00  0.00    -0.150 OA
ATOM      5  O   UNL     1       6.840  -5.196  23.257  0.00  0.00    -0.150 OA
ATOM      6  C   UNL     1       5.614  -3.093  24.143  0.00  0.00    +0.115 A 
ATOM      7  C   UNL     1       6.687  -2.261  23.758  0.00  0.00    +0.049 A 
ATOM      8  C   UNL     1       6.913  -1.058  24.409  0.00  0.00    +0.043 A 
ATOM      9  C   UNL     1       6.064  -0.652  25.426  0.00  0.00    +0.020 A 
ATOM     10  C   UNL     1       5.005  -1.477  25.821  0.00  0.00    +0.009 A 
ATOM     11 CL   UNL     1       8.260  -0.083  23.972  0.00  0.00    -0.083 Cl
ATOM     12  C   UNL     1       4.758  -2.731  25.214  0.00  0.00    +0.001 A 
ATOM     13  C   UNL     1       3.722  -3.686  25.835  0.00  0.00    +0.118 C 
ATOM     14  C   UNL     1       2.694  -4.224  24.850  0.00  0.00    -0.003 A 
ATOM     15  C   UNL     1       1.359  -3.794  24.785  0.00  0.00    +0.007 A 
ATOM     16  C   UNL     1       0.451  -4.406  23.917  0.00  0.00    +0.000 A 
ATOM     17  C   UNL     1       0.876  -5.421  23.063  0.00  0.00    +0.002 A 
ATOM     18  C   UNL     1       2.205  -5.837  23.086  0.00  0.00    +0.025 A 
ATOM     19  C   UNL     1       3.096  -5.256  23.992  0.00  0.00    +0.056 A 
ENDROOT
BRANCH  13  20
ATOM     20  N   UNL     1       3.121  -3.159  27.085  0.00  0.00    -0.306 NA
ATOM     21  H   UNL     1       2.112  -3.113  26.969  0.00  0.00    +0.123 HD
BRANCH  20  22
ATOM     22  C   UNL     1       3.438  -3.919  28.299  0.00  0.00    +0.082 C 
BRANCH  22  23
ATOM     23  C   UNL     1       4.408  -5.076  28.063  0.00  0.00    +0.015 C 
BRANCH  23  24
ATOM     24  C   UNL     1       5.844  -4.676  28.392  0.00  0.00    +0.001 C 
BRANCH  24  25
ATOM     25  C   UNL     1       6.815  -5.744  27.893  0.00  0.00    +0.001 C 
BRANCH  25  26
ATOM     26  C   UNL     1       7.293  -5.433  26.480  0.00  0.00    +0.011 C 
BRANCH  26  27
ATOM     27  C   UNL     1       8.367  -4.349  26.482  0.00  0.00    +0.120 C 
BRANCH  27  28
ATOM     28  C   UNL     1       9.450  -4.640  25.465  0.00  0.00    +0.305 C 
ATOM     29  O   UNL     1       9.778  -3.895  24.556  0.00  0.00    -0.251 OA
BRANCH  28  30
ATOM     30  O   UNL     1      10.035  -5.840  25.669  0.00  0.00    -0.481 OA
ATOM     31  H   UNL     1      10.568  -6.154  24.915  0.00  0.00    +0.295 HD
ENDBRANCH  28  30
ENDBRANCH  27  28
ENDBRANCH  26  27
ENDBRANCH  25  26
ENDBRANCH  24  25
ENDBRANCH  23  24
ENDBRANCH  22  23
ENDBRANCH  20  22
ENDBRANCH  13  20
TORSDOF 9
ENDMDL
MODEL 9
REMARK VINA RESULT:      -5.2      3.539      5.348
REMARK  Name = 
REMARK  10 active torsions:
REMARK  status: ('A' for Active; 'I' for Inactive)
REMARK    1  A    between atoms: C_1  and  N_2
REMARK    2  A    between atoms: C_9  and  N_10
REMARK    3  A    between atoms: N_10  and  C_11
REMARK    4  A    between atoms: C_11  and  C_12
REMARK    5  A    between atoms: C_12  and  C_13
REMARK    6  A    between atoms: C_13  and  C_14
REMARK    7  A    between atoms: C_14  and  C_15
REMARK    8  A    between atoms: C_15  and  C_16
REMARK    9  A    between atoms: C_16  and  C_17
REMARK   10  A    between atoms: C_17  and  O_18
REMARK                            x       y       z     vdW  Elec       q    Type
REMARK                         _______ _______ _______ _____ _____    ______ ____
ROOT
ATOM      1  C   UNL     1      10.739   2.592  23.790  0.00  0.00    +0.157 C 
ATOM      2  N   UNL     1       9.387   2.122  23.496  0.00  0.00    -0.206 N 
ATOM      3  S   UNL     1       8.175   3.255  23.236  0.00  0.00    +0.075 S 
ATOM      4  O   UNL     1       7.719   3.159  21.864  0.00  0.00    -0.150 OA
ATOM      5  O   UNL     1       8.637   4.516  23.781  0.00  0.00    -0.150 OA
ATOM      6  C   UNL     1       6.794   2.760  24.264  0.00  0.00    +0.115 A 
ATOM      7  C   UNL     1       5.818   3.770  24.402  0.00  0.00    +0.049 A 
ATOM      8  C   UNL     1       4.689   3.556  25.178  0.00  0.00    +0.043 A 
ATOM      9  C   UNL     1       4.501   2.333  25.801  0.00  0.00    +0.020 A 
ATOM     10  C   UNL     1       5.470   1.332  25.679  0.00  0.00    +0.009 A 
ATOM     11 CL   UNL     1       3.537   4.815  25.387  0.00  0.00    -0.083 Cl
ATOM     12  C   UNL     1       6.657   1.517  24.932  0.00  0.00    +0.001 A 
ATOM     13  C   UNL     1       7.780   0.467  25.015  0.00  0.00    +0.118 C 
ATOM     14  C   UNL     1       8.291  -0.015  23.665  0.00  0.00    -0.003 A 
ATOM     15  C   UNL     1       7.991  -1.269  23.108  0.00  0.00    +0.007 A 
ATOM     16  C   UNL     1       8.578  -1.677  21.907  0.00  0.00    +0.000 A 
ATOM     17  C   UNL     1       9.430  -0.818  21.217  0.00  0.00    +0.002 A 
ATOM     18  C   UNL     1       9.711   0.444  21.735  0.00  0.00    +0.025 A 
ATOM     19  C   UNL     1       9.162   0.826  22.962  0.00  0.00    +0.056 A 
ENDROOT
BRANCH  13  20
ATOM     20  N   UNL     1       7.476  -0.636  25.960  0.00  0.00    -0.306 NA
ATOM     21  H   UNL     1       6.763  -1.232  25.548  0.00  0.00    +0.123 HD
BRANCH  20  22
ATOM     22  C   UNL     1       8.628  -1.455  26.354  0.00  0.00    +0.082 C 
BRANCH  22  23
ATOM     23  C   UNL     1       8.299  -2.938  26.520  0.00  0.00    +0.015 C 
BRANCH  23  24
ATOM     24  C   UNL     1       8.778  -3.752  25.321  0.00  0.00    +0.001 C 
BRANCH  24  25
ATOM     25  C   UNL     1       7.838  -4.931  25.075  0.00  0.00    +0.001 C 
BRANCH  25  26
ATOM     26  C   UNL     1       6.773  -4.577  24.044  0.00  0.00    +0.011 C 
BRANCH  26  27
ATOM     27  C   UNL     1       7.222  -4.948  22.633  0.00  0.00    +0.120 C 
BRANCH  27  28
ATOM     28  C   UNL     1       6.163  -4.605  21.607  0.00  0.00    +0.305 C 
ATOM     29  O   UNL     1       5.578  -3.538  21.531  0.00  0.00    -0.251 OA
BRANCH  28  30
ATOM     30  O   UNL     1       5.923  -5.627  20.757  0.00  0.00    -0.481 OA
ATOM     31  H   UNL     1       5.293  -5.411  20.045  0.00  0.00    +0.295 HD
ENDBRANCH  28  30
ENDBRANCH  27  28
ENDBRANCH  26  27
ENDBRANCH  25  26
ENDBRANCH  24  25
ENDBRANCH  23  24
ENDBRANCH  22  23
ENDBRANCH  20  22
ENDBRANCH  13  20
TORSDOF 9
ENDMDL
