MODEL 1
REMARK VINA RESULT:      -7.3      0.000      0.000
REMARK  Name = 
REMARK  11 active torsions:
REMARK  status: ('A' for Active; 'I' for Inactive)
REMARK    1  A    between atoms: C_2  and  C_3
REMARK    2  A    between atoms: C_2  and  C_16
REMARK    3  A    between atoms: C_2  and  C_19
REMARK    4  A    between atoms: C_3  and  P_4
REMARK    5  A    between atoms: P_4  and  O_5
REMARK    6  A    between atoms: P_4  and  C_7
REMARK    7  A    between atoms: C_7  and  C_8
REMARK    8  A    between atoms: C_8  and  C_9
REMARK    9  A    between atoms: C_9  and  C_10
REMARK   10  A    between atoms: C_16  and  O_17
REMARK   11  A    between atoms: C_21  and  N_22
REMARK                            x       y       z     vdW  Elec       q    Type
REMARK                         _______ _______ _______ _____ _____    ______ ____
ROOT
ATOM      1  C   UNL     1       7.627  -4.025  25.450  0.00  0.00    +0.137 C 
ENDROOT
BRANCH   1   2
ATOM      2  C   UNL     1       6.968  -4.698  24.212  0.00  0.00    -0.030 A 
ATOM      3  C   UNL     1       7.583  -4.687  22.948  0.00  0.00    +0.004 A 
ATOM      4  C   UNL     1       7.045  -5.395  21.872  0.00  0.00    +0.004 A 
ATOM      5  C   UNL     1       5.862  -6.115  22.023  0.00  0.00    +0.042 A 
ATOM      6  C   UNL     1       5.195  -6.133  23.249  0.00  0.00    +0.100 A 
ATOM      7  C   UNL     1       5.737  -5.385  24.313  0.00  0.00    +0.046 A 
BRANCH   6   8
ATOM      8  N   UNL     1       3.992  -6.836  23.444  0.00  0.00    -0.244 N 
ATOM      9  H   UNL     1       4.106  -7.790  23.759  0.00  0.00    +0.265 HD
ATOM     10  C   UNL     1       2.751  -6.489  23.031  0.00  0.00    +0.381 C 
ATOM     11  N   UNL     1       2.243  -5.311  22.993  0.00  0.00    -0.129 NA
ATOM     12  H   UNL     1       2.934  -4.653  23.368  0.00  0.00    +0.306 HD
ATOM     13  N   UNL     1       1.978  -7.536  22.660  0.00  0.00    -0.289 N 
ATOM     14  H   UNL     1       1.086  -7.175  22.327  0.00  0.00    +0.255 HD
ATOM     15  H   UNL     1       2.406  -8.093  21.932  0.00  0.00    +0.255 HD
ENDBRANCH   6   8
ENDBRANCH   1   2
BRANCH   1  16
ATOM     16  C   UNL     1       7.508  -4.869  26.762  0.00  0.00    +0.313 C 
ATOM     17  O   UNL     1       6.822  -4.521  27.721  0.00  0.00    -0.250 OA
BRANCH  16  18
ATOM     18  O   UNL     1       8.250  -5.993  26.878  0.00  0.00    -0.480 OA
ATOM     19  H   UNL     1       8.523  -6.444  26.045  0.00  0.00    +0.295 HD
ENDBRANCH  16  18
ENDBRANCH   1  16
BRANCH   1  20
ATOM     20  C   UNL     1       9.050  -3.415  25.203  0.00  0.00    +0.116 C 
BRANCH  20  21
ATOM     21  P   UNL     1       9.069  -1.481  24.849  0.00  0.00    +0.203 P 
ATOM     22  O   UNL     1       7.713  -1.263  24.163  0.00  0.00    -0.291 OA
BRANCH  21  23
ATOM     23  O   UNL     1       8.258  -1.319  26.369  0.00  0.00    -0.344 OA
ATOM     24  H   UNL     1       7.967  -0.392  26.517  0.00  0.00    +0.218 HD
ENDBRANCH  21  23
BRANCH  21  25
ATOM     25  C   UNL     1       9.927  -1.652  23.242  0.00  0.00    +0.097 C 
BRANCH  25  26
ATOM     26  C   UNL     1       9.017  -1.297  22.059  0.00  0.00    +0.014 C 
BRANCH  26  27
ATOM     27  C   UNL     1       9.530  -0.083  21.276  0.00  0.00    +0.035 C 
BRANCH  27  28
ATOM     28  C   UNL     1       9.160   1.218  21.938  0.00  0.00    -0.047 A 
ATOM     29  C   UNL     1      10.070   1.872  22.776  0.00  0.00    +0.003 A 
ATOM     30  C   UNL     1       9.721   3.076  23.389  0.00  0.00    +0.000 A 
ATOM     31  C   UNL     1       8.466   3.638  23.166  0.00  0.00    +0.000 A 
ATOM     32  C   UNL     1       7.557   3.001  22.327  0.00  0.00    +0.000 A 
ATOM     33  C   UNL     1       7.903   1.797  21.712  0.00  0.00    +0.003 A 
ENDBRANCH  27  28
ENDBRANCH  26  27
ENDBRANCH  25  26
ENDBRANCH  21  25
ENDBRANCH  20  21
ENDBRANCH   1  20
TORSDOF 11
ENDMDL
MODEL 2
REMARK VINA RESULT:      -7.3      4.397      6.376
REMARK  Name = 
REMARK  11 active torsions:
REMARK  status: ('A' for Active; 'I' for Inactive)
REMARK    1  A    between atoms: C_2  and  C_3
REMARK    2  A    between atoms: C_2  and  C_16
REMARK    3  A    between atoms: C_2  and  C_19
REMARK    4  A    between atoms: C_3  and  P_4
REMARK    5  A    between atoms: P_4  and  O_5
REMARK    6  A    between atoms: P_4  and  C_7
REMARK    7  A    between atoms: C_7  and  C_8
REMARK    8  A    between atoms: C_8  and  C_9
REMARK    9  A    between atoms: C_9  and  C_10
REMARK   10  A    between atoms: C_16  and  O_17
REMARK   11  A    between atoms: C_21  and  N_22
REMARK                            x       y       z     vdW  Elec       q    Type
REMARK                         _______ _______ _______ _____ _____    ______ ____
ROOT
ATOM      1  C   UNL     1       6.383  -3.931  22.117  0.00  0.00    +0.137 C 
ENDROOT
BRANCH   1   2
ATOM      2  C   UNL     1       7.648  -3.172  22.609  0.00  0.00    -0.030 A 
ATOM      3  C   UNL     1       8.419  -3.637  23.689  0.00  0.00    +0.004 A 
ATOM      4  C   UNL     1       9.617  -3.017  24.047  0.00  0.00    +0.004 A 
ATOM      5  C   UNL     1      10.067  -1.898  23.350  0.00  0.00    +0.042 A 
ATOM      6  C   UNL     1       9.324  -1.377  22.289  0.00  0.00    +0.100 A 
ATOM      7  C   UNL     1       8.101  -1.998  21.965  0.00  0.00    +0.046 A 
BRANCH   6   8
ATOM      8  N   UNL     1       9.732  -0.242  21.566  0.00  0.00    -0.244 N 
ATOM      9  H   UNL     1      10.623  -0.338  21.096  0.00  0.00    +0.265 HD
ATOM     10  C   UNL     1       9.224   1.010  21.629  0.00  0.00    +0.381 C 
ATOM     11  N   UNL     1       7.993   1.346  21.768  0.00  0.00    -0.129 NA
ATOM     12  H   UNL     1       7.431   0.490  21.794  0.00  0.00    +0.306 HD
ATOM     13  N   UNL     1      10.147   1.990  21.485  0.00  0.00    -0.289 N 
ATOM     14  H   UNL     1       9.680   2.889  21.588  0.00  0.00    +0.255 HD
ATOM     15  H   UNL     1      10.892   1.921  22.165  0.00  0.00    +0.255 HD
ENDBRANCH   6   8
ENDBRANCH   1   2
BRANCH   1  16
ATOM     16  C   UNL     1       6.690  -5.345  21.520  0.00  0.00    +0.313 C 
ATOM     17  O   UNL     1       7.573  -6.079  21.961  0.00  0.00    -0.250 OA
BRANCH  16  18
ATOM     18  O   UNL     1       6.007  -5.749  20.426  0.00  0.00    -0.480 OA
ATOM     19  H   UNL     1       5.106  -5.373  20.290  0.00  0.00    +0.295 HD
ENDBRANCH  16  18
ENDBRANCH   1  16
BRANCH   1  20
ATOM     20  C   UNL     1       5.158  -3.898  23.096  0.00  0.00    +0.116 C 
BRANCH  20  21
ATOM     21  P   UNL     1       4.779  -5.603  24.001  0.00  0.00    +0.203 P 
ATOM     22  O   UNL     1       3.465  -5.295  24.733  0.00  0.00    -0.291 OA
BRANCH  21  23
ATOM     23  O   UNL     1       3.837  -5.994  22.603  0.00  0.00    -0.344 OA
ATOM     24  H   UNL     1       4.093  -5.436  21.836  0.00  0.00    +0.218 HD
ENDBRANCH  21  23
BRANCH  21  25
ATOM     25  C   UNL     1       5.775  -5.189  25.479  0.00  0.00    +0.097 C 
BRANCH  25  26
ATOM     26  C   UNL     1       5.349  -3.858  26.111  0.00  0.00    +0.014 C 
BRANCH  26  27
ATOM     27  C   UNL     1       6.477  -3.212  26.921  0.00  0.00    +0.035 C 
BRANCH  27  28
ATOM     28  C   UNL     1       6.930  -1.906  26.323  0.00  0.00    -0.047 A 
ATOM     29  C   UNL     1       6.149  -1.256  25.361  0.00  0.00    +0.003 A 
ATOM     30  C   UNL     1       6.575  -0.048  24.808  0.00  0.00    +0.000 A 
ATOM     31  C   UNL     1       7.778   0.524  25.217  0.00  0.00    +0.000 A 
ATOM     32  C   UNL     1       8.558  -0.108  26.180  0.00  0.00    +0.000 A 
ATOM     33  C   UNL     1       8.135  -1.317  26.735  0.00  0.00    +0.003 A 
ENDBRANCH  27  28
ENDBRANCH  26  27
ENDBRANCH  25  26
ENDBRANCH  21  25
ENDBRANCH  20  21
ENDBRANCH   1  20
TORSDOF 11
ENDMDL
MODEL 3
REMARK VINA RESULT:      -7.2      4.079      6.820
REMARK  Name = 
REMARK  11 active torsions:
REMARK  status: ('A' for Active; 'I' for Inactive)
REMARK    1  A    between atoms: C_2  and  C_3
REMARK    2  A    between atoms: C_2  and  C_16
REMARK    3  A    between atoms: C_2  and  C_19
REMARK    4  A    between atoms: C_3  and  P_4
REMARK    5  A    between atoms: P_4  and  O_5
REMARK    6  A    between atoms: P_4  and  C_7
REMARK    7  A    between atoms: C_7  and  C_8
REMARK    8  A    between atoms: C_8  and  C_9
REMARK    9  A    between atoms: C_9  and  C_10
REMARK   10  A    between atoms: C_16  and  O_17
REMARK   11  A    between atoms: C_21  and  N_22
REMARK                            x       y       z     vdW  Elec       q    Type
REMARK                         _______ _______ _______ _____ _____    ______ ____
ROOT
ATOM      1  C   UNL     1       8.368  -3.902  25.285  0.00  0.00    +0.137 C 
ENDROOT
BRANCH   1   2
ATOM      2  C   UNL     1       8.988  -2.601  24.699  0.00  0.00    -0.030 A 
ATOM      3  C   UNL     1       9.693  -2.598  23.483  0.00  0.00    +0.004 A 
ATOM      4  C   UNL     1      10.142  -1.408  22.906  0.00  0.00    +0.004 A 
ATOM      5  C   UNL     1       9.920  -0.189  23.543  0.00  0.00    +0.042 A 
ATOM      6  C   UNL     1       9.252  -0.140  24.767  0.00  0.00    +0.100 A 
ATOM      7  C   UNL     1       8.837  -1.355  25.348  0.00  0.00    +0.046 A 
BRANCH   6   8
ATOM      8  N   UNL     1       9.017   1.067  25.452  0.00  0.00    -0.244 N 
ATOM      9  H   UNL     1       9.617   1.224  26.250  0.00  0.00    +0.265 HD
ATOM     10  C   UNL     1       7.952   1.893  25.335  0.00  0.00    +0.381 C 
ATOM     11  N   UNL     1       7.309   2.191  24.264  0.00  0.00    -0.129 NA
ATOM     12  H   UNL     1       7.762   1.713  23.478  0.00  0.00    +0.306 HD
ATOM     13  N   UNL     1       7.579   2.484  26.494  0.00  0.00    -0.289 N 
ATOM     14  H   UNL     1       6.752   3.049  26.316  0.00  0.00    +0.255 HD
ATOM     15  H   UNL     1       7.374   1.811  27.221  0.00  0.00    +0.255 HD
ENDBRANCH   6   8
ENDBRANCH   1   2
BRANCH   1  16
ATOM     16  C   UNL     1       9.215  -5.187  24.999  0.00  0.00    +0.313 C 
ATOM     17  O   UNL     1       9.049  -5.889  24.004  0.00  0.00    -0.250 OA
BRANCH  16  18
ATOM     18  O   UNL     1      10.120  -5.583  25.922  0.00  0.00    -0.480 OA
ATOM     19  H   UNL     1       9.792  -5.748  26.836  0.00  0.00    +0.295 HD
ENDBRANCH  16  18
ENDBRANCH   1  16
BRANCH   1  20
ATOM     20  C   UNL     1       7.845  -3.791  26.759  0.00  0.00    +0.116 C 
BRANCH  20  21
ATOM     21  P   UNL     1       6.400  -5.043  27.218  0.00  0.00    +0.203 P 
ATOM     22  O   UNL     1       6.362  -5.960  25.988  0.00  0.00    -0.291 OA
BRANCH  21  23
ATOM     23  O   UNL     1       7.647  -6.056  27.860  0.00  0.00    -0.344 OA
ATOM     24  H   UNL     1       7.416  -7.005  27.764  0.00  0.00    +0.218 HD
ENDBRANCH  21  23
BRANCH  21  25
ATOM     25  C   UNL     1       5.080  -3.972  26.540  0.00  0.00    +0.097 C 
BRANCH  25  26
ATOM     26  C   UNL     1       4.022  -4.774  25.772  0.00  0.00    +0.014 C 
BRANCH  26  27
ATOM     27  C   UNL     1       3.689  -4.145  24.415  0.00  0.00    +0.035 C 
BRANCH  27  28
ATOM     28  C   UNL     1       4.768  -4.394  23.393  0.00  0.00    -0.047 A 
ATOM     29  C   UNL     1       5.035  -5.691  22.943  0.00  0.00    +0.003 A 
ATOM     30  C   UNL     1       6.037  -5.917  22.000  0.00  0.00    +0.000 A 
ATOM     31  C   UNL     1       6.775  -4.849  21.494  0.00  0.00    +0.000 A 
ATOM     32  C   UNL     1       6.513  -3.553  21.926  0.00  0.00    +0.000 A 
ATOM     33  C   UNL     1       5.510  -3.325  22.870  0.00  0.00    +0.003 A 
ENDBRANCH  27  28
ENDBRANCH  26  27
ENDBRANCH  25  26
ENDBRANCH  21  25
ENDBRANCH  20  21
ENDBRANCH   1  20
TORSDOF 11
ENDMDL
MODEL 4
REMARK VINA RESULT:      -7.1      4.486      6.861
REMARK  Name = 
REMARK  11 active torsions:
REMARK  status: ('A' for Active; 'I' for Inactive)
REMARK    1  A    between atoms: C_2  and  C_3
REMARK    2  A    between atoms: C_2  and  C_16
REMARK    3  A    between atoms: C_2  and  C_19
REMARK    4  A    between atoms: C_3  and  P_4
REMARK    5  A    between atoms: P_4  and  O_5
REMARK    6  A    between atoms: P_4  and  C_7
REMARK    7  A    between atoms: C_7  and  C_8
REMARK    8  A    between atoms: C_8  and  C_9
REMARK    9  A    between atoms: C_9  and  C_10
REMARK   10  A    between atoms: C_16  and  O_17
REMARK   11  A    between atoms: C_21  and  N_22
REMARK                            x       y       z     vdW  Elec       q    Type
REMARK                         _______ _______ _______ _____ _____    ______ ____
ROOT
ATOM      1  C   UNL     1       5.652  -5.543  27.040  0.00  0.00    +0.137 C 
ENDROOT
BRANCH   1   2
ATOM      2  C   UNL     1       6.902  -4.819  26.461  0.00  0.00    -0.030 A 
ATOM      3  C   UNL     1       8.008  -5.531  25.967  0.00  0.00    +0.004 A 
ATOM      4  C   UNL     1       9.072  -4.878  25.340  0.00  0.00    +0.004 A 
ATOM      5  C   UNL     1       9.070  -3.491  25.214  0.00  0.00    +0.042 A 
ATOM      6  C   UNL     1       8.010  -2.734  25.716  0.00  0.00    +0.100 A 
ATOM      7  C   UNL     1       6.963  -3.410  26.373  0.00  0.00    +0.046 A 
BRANCH   6   8
ATOM      8  N   UNL     1       7.972  -1.331  25.621  0.00  0.00    -0.244 N 
ATOM      9  H   UNL     1       7.461  -0.974  24.825  0.00  0.00    +0.265 HD
ATOM     10  C   UNL     1       8.726  -0.433  26.296  0.00  0.00    +0.381 C 
ATOM     11  N   UNL     1       9.110  -0.499  27.519  0.00  0.00    -0.129 NA
ATOM     12  H   UNL     1       8.717  -1.352  27.930  0.00  0.00    +0.306 HD
ATOM     13  N   UNL     1       9.059   0.664  25.575  0.00  0.00    -0.289 N 
ATOM     14  H   UNL     1       9.656   1.256  26.149  0.00  0.00    +0.255 HD
ATOM     15  H   UNL     1       9.543   0.429  24.719  0.00  0.00    +0.255 HD
ENDBRANCH   6   8
ENDBRANCH   1   2
BRANCH   1  16
ATOM     16  C   UNL     1       5.916  -6.256  28.408  0.00  0.00    +0.313 C 
ATOM     17  O   UNL     1       6.436  -5.690  29.367  0.00  0.00    -0.250 OA
BRANCH  16  18
ATOM     18  O   UNL     1       5.627  -7.572  28.518  0.00  0.00    -0.480 OA
ATOM     19  H   UNL     1       5.467  -7.927  29.423  0.00  0.00    +0.295 HD
ENDBRANCH  16  18
ENDBRANCH   1  16
BRANCH   1  20
ATOM     20  C   UNL     1       4.318  -4.721  26.989  0.00  0.00    +0.116 C 
BRANCH  20  21
ATOM     21  P   UNL     1       2.737  -5.748  26.428  0.00  0.00    +0.203 P 
ATOM     22  O   UNL     1       2.454  -6.610  27.667  0.00  0.00    -0.291 OA
BRANCH  21  23
ATOM     23  O   UNL     1       1.809  -4.489  27.168  0.00  0.00    -0.344 OA
ATOM     24  H   UNL     1       1.043  -4.238  26.607  0.00  0.00    +0.218 HD
ENDBRANCH  21  23
BRANCH  21  25
ATOM     25  C   UNL     1       3.718  -7.080  25.646  0.00  0.00    +0.097 C 
BRANCH  25  26
ATOM     26  C   UNL     1       3.585  -7.075  24.117  0.00  0.00    +0.014 C 
BRANCH  26  27
ATOM     27  C   UNL     1       3.460  -5.658  23.550  0.00  0.00    +0.035 C 
BRANCH  27  28
ATOM     28  C   UNL     1       4.784  -5.115  23.079  0.00  0.00    -0.047 A 
ATOM     29  C   UNL     1       5.009  -3.735  23.029  0.00  0.00    +0.003 A 
ATOM     30  C   UNL     1       6.236  -3.238  22.589  0.00  0.00    +0.000 A 
ATOM     31  C   UNL     1       7.249  -4.113  22.203  0.00  0.00    +0.000 A 
ATOM     32  C   UNL     1       7.040  -5.488  22.258  0.00  0.00    +0.000 A 
ATOM     33  C   UNL     1       5.814  -5.988  22.698  0.00  0.00    +0.003 A 
ENDBRANCH  27  28
ENDBRANCH  26  27
ENDBRANCH  25  26
ENDBRANCH  21  25
ENDBRANCH  20  21
ENDBRANCH   1  20
TORSDOF 11
ENDMDL
MODEL 5
REMARK VINA RESULT:      -7.0      3.771      5.404
REMARK  Name = 
REMARK  11 active torsions:
REMARK  status: ('A' for Active; 'I' for Inactive)
REMARK    1  A    between atoms: C_2  and  C_3
REMARK    2  A    between atoms: C_2  and  C_16
REMARK    3  A    between atoms: C_2  and  C_19
REMARK    4  A    between atoms: C_3  and  P_4
REMARK    5  A    between atoms: P_4  and  O_5
REMARK    6  A    between atoms: P_4  and  C_7
REMARK    7  A    between atoms: C_7  and  C_8
REMARK    8  A    between atoms: C_8  and  C_9
REMARK    9  A    between atoms: C_9  and  C_10
REMARK   10  A    between atoms: C_16  and  O_17
REMARK   11  A    between atoms: C_21  and  N_22
REMARK                            x       y       z     vdW  Elec       q    Type
REMARK                         _______ _______ _______ _____ _____    ______ ____
ROOT
ATOM      1  C   UNL     1       6.903  -2.574  25.150  0.00  0.00    +0.137 C 
ENDROOT
BRANCH   1   2
ATOM      2  C   UNL     1       6.937  -1.019  25.191  0.00  0.00    -0.030 A 
ATOM      3  C   UNL     1       7.535  -0.318  26.252  0.00  0.00    +0.004 A 
ATOM      4  C   UNL     1       7.667   1.071  26.223  0.00  0.00    +0.004 A 
ATOM      5  C   UNL     1       7.181   1.802  25.142  0.00  0.00    +0.042 A 
ATOM      6  C   UNL     1       6.550   1.158  24.077  0.00  0.00    +0.100 A 
ATOM      7  C   UNL     1       6.398  -0.241  24.141  0.00  0.00    +0.046 A 
BRANCH   6   8
ATOM      8  N   UNL     1       6.032   1.857  22.971  0.00  0.00    -0.244 N 
ATOM      9  H   UNL     1       6.624   1.847  22.150  0.00  0.00    +0.265 HD
ATOM     10  C   UNL     1       4.998   2.728  22.949  0.00  0.00    +0.381 C 
ATOM     11  N   UNL     1       3.903   2.656  23.617  0.00  0.00    -0.129 NA
ATOM     12  H   UNL     1       3.922   1.791  24.165  0.00  0.00    +0.306 HD
ATOM     13  N   UNL     1       5.157   3.756  22.083  0.00  0.00    -0.289 N 
ATOM     14  H   UNL     1       4.353   4.375  22.168  0.00  0.00    +0.255 HD
ATOM     15  H   UNL     1       6.004   4.280  22.259  0.00  0.00    +0.255 HD
ENDBRANCH   6   8
ENDBRANCH   1   2
BRANCH   1  16
ATOM     16  C   UNL     1       7.044  -3.244  26.557  0.00  0.00    +0.313 C 
ATOM     17  O   UNL     1       8.079  -3.786  26.938  0.00  0.00    -0.250 OA
BRANCH  16  18
ATOM     18  O   UNL     1       5.959  -3.294  27.361  0.00  0.00    -0.480 OA
ATOM     19  H   UNL     1       5.760  -4.153  27.801  0.00  0.00    +0.295 HD
ENDBRANCH  16  18
ENDBRANCH   1  16
BRANCH   1  20
ATOM     20  C   UNL     1       5.780  -3.196  24.250  0.00  0.00    +0.116 C 
BRANCH  20  21
ATOM     21  P   UNL     1       6.410  -3.959  22.551  0.00  0.00    +0.203 P 
ATOM     22  O   UNL     1       6.543  -5.449  22.893  0.00  0.00    -0.291 OA
BRANCH  21  23
ATOM     23  O   UNL     1       4.740  -4.250  22.203  0.00  0.00    -0.344 OA
ATOM     24  H   UNL     1       4.162  -3.635  22.705  0.00  0.00    +0.218 HD
ENDBRANCH  21  23
BRANCH  21  25
ATOM     25  C   UNL     1       8.177  -3.651  22.918  0.00  0.00    +0.097 C 
BRANCH  25  26
ATOM     26  C   UNL     1       8.698  -2.382  22.231  0.00  0.00    +0.014 C 
BRANCH  26  27
ATOM     27  C   UNL     1      10.002  -1.878  22.858  0.00  0.00    +0.035 C 
BRANCH  27  28
ATOM     28  C   UNL     1      10.058  -0.374  22.921  0.00  0.00    -0.047 A 
ATOM     29  C   UNL     1      10.624   0.270  24.027  0.00  0.00    +0.003 A 
ATOM     30  C   UNL     1      10.670   1.663  24.082  0.00  0.00    +0.000 A 
ATOM     31  C   UNL     1      10.159   2.423  23.032  0.00  0.00    +0.000 A 
ATOM     32  C   UNL     1       9.603   1.794  21.922  0.00  0.00    +0.000 A 
ATOM     33  C   UNL     1       9.555   0.400  21.865  0.00  0.00    +0.003 A 
ENDBRANCH  27  28
ENDBRANCH  26  27
ENDBRANCH  25  26
ENDBRANCH  21  25
ENDBRANCH  20  21
ENDBRANCH   1  20
TORSDOF 11
ENDMDL
MODEL 6
REMARK VINA RESULT:      -7.0      3.952      5.670
REMARK  Name = 
REMARK  11 active torsions:
REMARK  status: ('A' for Active; 'I' for Inactive)
REMARK    1  A    between atoms: C_2  and  C_3
REMARK    2  A    between atoms: C_2  and  C_16
REMARK    3  A    between atoms: C_2  and  C_19
REMARK    4  A    between atoms: C_3  and  P_4
REMARK    5  A    between atoms: P_4  and  O_5
REMARK    6  A    between atoms: P_4  and  C_7
REMARK    7  A    between atoms: C_7  and  C_8
REMARK    8  A    between atoms: C_8  and  C_9
REMARK    9  A    between atoms: C_9  and  C_10
REMARK   10  A    between atoms: C_16  and  O_17
REMARK   11  A    between atoms: C_21  and  N_22
REMARK                            x       y       z     vdW  Elec       q    Type
REMARK                         _______ _______ _______ _____ _____    ______ ____
ROOT
ATOM      1  C   UNL     1       6.026  -2.436  24.962  0.00  0.00    +0.137 C 
ENDROOT
BRANCH   1   2
ATOM      2  C   UNL     1       6.327  -0.920  25.141  0.00  0.00    -0.030 A 
ATOM      3  C   UNL     1       6.822  -0.400  26.349  0.00  0.00    +0.004 A 
ATOM      4  C   UNL     1       7.203   0.938  26.463  0.00  0.00    +0.004 A 
ATOM      5  C   UNL     1       7.077   1.801  25.376  0.00  0.00    +0.042 A 
ATOM      6  C   UNL     1       6.562   1.342  24.163  0.00  0.00    +0.100 A 
ATOM      7  C   UNL     1       6.152  -0.003  24.079  0.00  0.00    +0.046 A 
BRANCH   6   8
ATOM      8  N   UNL     1       6.404   2.181  23.044  0.00  0.00    -0.244 N 
ATOM      9  H   UNL     1       7.256   2.365  22.530  0.00  0.00    +0.265 HD
ATOM     10  C   UNL     1       5.340   2.954  22.729  0.00  0.00    +0.381 C 
ATOM     11  N   UNL     1       4.097   2.676  22.895  0.00  0.00    -0.129 NA
ATOM     12  H   UNL     1       4.032   1.731  23.287  0.00  0.00    +0.306 HD
ATOM     13  N   UNL     1       5.663   4.128  22.139  0.00  0.00    -0.289 N 
ATOM     14  H   UNL     1       4.806   4.655  21.979  0.00  0.00    +0.255 HD
ATOM     15  H   UNL     1       6.296   4.681  22.702  0.00  0.00    +0.255 HD
ENDBRANCH   6   8
ENDBRANCH   1   2
BRANCH   1  16
ATOM     16  C   UNL     1       4.534  -2.818  25.244  0.00  0.00    +0.313 C 
ATOM     17  O   UNL     1       3.710  -2.016  25.679  0.00  0.00    -0.250 OA
BRANCH  16  18
ATOM     18  O   UNL     1       4.152  -4.103  25.071  0.00  0.00    -0.480 OA
ATOM     19  H   UNL     1       3.194  -4.309  25.178  0.00  0.00    +0.295 HD
ENDBRANCH  16  18
ENDBRANCH   1  16
BRANCH   1  20
ATOM     20  C   UNL     1       6.625  -3.091  23.669  0.00  0.00    +0.116 C 
BRANCH  20  21
ATOM     21  P   UNL     1       7.596  -4.774  23.971  0.00  0.00    +0.203 P 
ATOM     22  O   UNL     1       7.082  -5.202  25.352  0.00  0.00    -0.291 OA
BRANCH  21  23
ATOM     23  O   UNL     1       6.214  -5.553  23.282  0.00  0.00    -0.344 OA
ATOM     24  H   UNL     1       6.481  -6.218  22.611  0.00  0.00    +0.218 HD
ENDBRANCH  21  23
BRANCH  21  25
ATOM     25  C   UNL     1       9.059  -3.950  24.700  0.00  0.00    +0.097 C 
BRANCH  25  26
ATOM     26  C   UNL     1       9.555  -2.781  23.839  0.00  0.00    +0.014 C 
BRANCH  26  27
ATOM     27  C   UNL     1       9.847  -1.530  24.672  0.00  0.00    +0.035 C 
BRANCH  27  28
ATOM     28  C   UNL     1       9.913  -0.286  23.825  0.00  0.00    -0.047 A 
ATOM     29  C   UNL     1      10.402   0.912  24.359  0.00  0.00    +0.003 A 
ATOM     30  C   UNL     1      10.459   2.062  23.572  0.00  0.00    +0.000 A 
ATOM     31  C   UNL     1      10.036   2.024  22.245  0.00  0.00    +0.000 A 
ATOM     32  C   UNL     1       9.557   0.836  21.700  0.00  0.00    +0.000 A 
ATOM     33  C   UNL     1       9.499  -0.316  22.486  0.00  0.00    +0.003 A 
ENDBRANCH  27  28
ENDBRANCH  26  27
ENDBRANCH  25  26
ENDBRANCH  21  25
ENDBRANCH  20  21
ENDBRANCH   1  20
TORSDOF 11
ENDMDL
MODEL 7
REMARK VINA RESULT:      -6.9      2.974      4.534
REMARK  Name = 
REMARK  11 active torsions:
REMARK  status: ('A' for Active; 'I' for Inactive)
REMARK    1  A    between atoms: C_2  and  C_3
REMARK    2  A    between atoms: C_2  and  C_16
REMARK    3  A    between atoms: C_2  and  C_19
REMARK    4  A    between atoms: C_3  and  P_4
REMARK    5  A    between atoms: P_4  and  O_5
REMARK    6  A    between atoms: P_4  and  C_7
REMARK    7  A    between atoms: C_7  and  C_8
REMARK    8  A    between atoms: C_8  and  C_9
REMARK    9  A    between atoms: C_9  and  C_10
REMARK   10  A    between atoms: C_16  and  O_17
REMARK   11  A    between atoms: C_21  and  N_22
REMARK                            x       y       z     vdW  Elec       q    Type
REMARK                         _______ _______ _______ _____ _____    ______ ____
ROOT
ATOM      1  C   UNL     1       6.065  -0.446  24.517  0.00  0.00    +0.137 C 
ENDROOT
BRANCH   1   2
ATOM      2  C   UNL     1       6.333  -1.884  23.988  0.00  0.00    -0.030 A 
ATOM      3  C   UNL     1       6.475  -2.154  22.616  0.00  0.00    +0.004 A 
ATOM      4  C   UNL     1       6.833  -3.424  22.158  0.00  0.00    +0.004 A 
ATOM      5  C   UNL     1       7.037  -4.465  23.060  0.00  0.00    +0.042 A 
ATOM      6  C   UNL     1       6.878  -4.258  24.431  0.00  0.00    +0.100 A 
ATOM      7  C   UNL     1       6.484  -2.978  24.869  0.00  0.00    +0.046 A 
BRANCH   6   8
ATOM      8  N   UNL     1       7.061  -5.284  25.376  0.00  0.00    -0.244 N 
ATOM      9  H   UNL     1       6.245  -5.860  25.538  0.00  0.00    +0.265 HD
ATOM     10  C   UNL     1       8.077  -5.430  26.257  0.00  0.00    +0.381 C 
ATOM     11  N   UNL     1       9.320  -5.170  26.064  0.00  0.00    -0.129 NA
ATOM     12  H   UNL     1       9.432  -4.852  25.097  0.00  0.00    +0.306 HD
ATOM     13  N   UNL     1       7.706  -5.949  27.450  0.00  0.00    -0.289 N 
ATOM     14  H   UNL     1       8.524  -5.982  28.056  0.00  0.00    +0.255 HD
ATOM     15  H   UNL     1       6.980  -5.405  27.898  0.00  0.00    +0.255 HD
ENDBRANCH   6   8
ENDBRANCH   1   2
BRANCH   1  16
ATOM     16  C   UNL     1       6.341  -0.278  26.048  0.00  0.00    +0.313 C 
ATOM     17  O   UNL     1       5.442  -0.172  26.881  0.00  0.00    -0.250 OA
BRANCH  16  18
ATOM     18  O   UNL     1       7.621  -0.169  26.468  0.00  0.00    -0.480 OA
ATOM     19  H   UNL     1       8.134  -1.003  26.577  0.00  0.00    +0.295 HD
ENDBRANCH  16  18
ENDBRANCH   1  16
BRANCH   1  20
ATOM     20  C   UNL     1       6.639   0.713  23.629  0.00  0.00    +0.116 C 
BRANCH  20  21
ATOM     21  P   UNL     1       6.181   2.525  24.241  0.00  0.00    +0.203 P 
ATOM     22  O   UNL     1       6.350   3.352  22.959  0.00  0.00    -0.291 OA
BRANCH  21  23
ATOM     23  O   UNL     1       4.571   2.162  23.720  0.00  0.00    -0.344 OA
ATOM     24  H   UNL     1       4.039   2.980  23.619  0.00  0.00    +0.218 HD
ENDBRANCH  21  23
BRANCH  21  25
ATOM     25  C   UNL     1       7.883   2.910  24.792  0.00  0.00    +0.097 C 
BRANCH  25  26
ATOM     26  C   UNL     1       8.760   3.426  23.644  0.00  0.00    +0.014 C 
BRANCH  26  27
ATOM     27  C   UNL     1      10.141   2.763  23.626  0.00  0.00    +0.035 C 
BRANCH  27  28
ATOM     28  C   UNL     1      10.070   1.311  23.233  0.00  0.00    -0.047 A 
ATOM     29  C   UNL     1      10.282   0.306  24.184  0.00  0.00    +0.003 A 
ATOM     30  C   UNL     1      10.218  -1.037  23.814  0.00  0.00    +0.000 A 
ATOM     31  C   UNL     1       9.936  -1.388  22.495  0.00  0.00    +0.000 A 
ATOM     32  C   UNL     1       9.714  -0.398  21.543  0.00  0.00    +0.000 A 
ATOM     33  C   UNL     1       9.777   0.947  21.911  0.00  0.00    +0.003 A 
ENDBRANCH  27  28
ENDBRANCH  26  27
ENDBRANCH  25  26
ENDBRANCH  21  25
ENDBRANCH  20  21
ENDBRANCH   1  20
TORSDOF 11
ENDMDL
MODEL 8
REMARK VINA RESULT:      -6.9      3.581      5.752
REMARK  Name = 
REMARK  11 active torsions:
REMARK  status: ('A' for Active; 'I' for Inactive)
REMARK    1  A    between atoms: C_2  and  C_3
REMARK    2  A    between atoms: C_2  and  C_16
REMARK    3  A    between atoms: C_2  and  C_19
REMARK    4  A    between atoms: C_3  and  P_4
REMARK    5  A    between atoms: P_4  and  O_5
REMARK    6  A    between atoms: P_4  and  C_7
REMARK    7  A    between atoms: C_7  and  C_8
REMARK    8  A    between atoms: C_8  and  C_9
REMARK    9  A    between atoms: C_9  and  C_10
REMARK   10  A    between atoms: C_16  and  O_17
REMARK   11  A    between atoms: C_21  and  N_22
REMARK                            x       y       z     vdW  Elec       q    Type
REMARK                         _______ _______ _______ _____ _____    ______ ____
ROOT
ATOM      1  C   UNL     1       5.951  -4.348  22.658  0.00  0.00    +0.137 C 
ENDROOT
BRANCH   1   2
ATOM      2  C   UNL     1       4.603  -4.729  23.333  0.00  0.00    -0.030 A 
ATOM      3  C   UNL     1       3.913  -3.834  24.169  0.00  0.00    +0.004 A 
ATOM      4  C   UNL     1       2.648  -4.138  24.673  0.00  0.00    +0.004 A 
ATOM      5  C   UNL     1       2.046  -5.358  24.376  0.00  0.00    +0.042 A 
ATOM      6  C   UNL     1       2.701  -6.296  23.577  0.00  0.00    +0.100 A 
ATOM      7  C   UNL     1       3.992  -5.983  23.105  0.00  0.00    +0.046 A 
BRANCH   6   8
ATOM      8  N   UNL     1       2.138  -7.546  23.262  0.00  0.00    -0.244 N 
ATOM      9  H   UNL     1       1.746  -7.611  22.332  0.00  0.00    +0.265 HD
ATOM     10  C   UNL     1       1.833  -8.557  24.109  0.00  0.00    +0.381 C 
ATOM     11  N   UNL     1       2.497  -8.938  25.139  0.00  0.00    -0.129 NA
ATOM     12  H   UNL     1       3.340  -8.358  25.207  0.00  0.00    +0.306 HD
ATOM     13  N   UNL     1       0.716  -9.243  23.773  0.00  0.00    -0.289 N 
ATOM     14  H   UNL     1       0.547  -9.951  24.485  0.00  0.00    +0.255 HD
ATOM     15  H   UNL     1      -0.096  -8.645  23.695  0.00  0.00    +0.255 HD
ENDBRANCH   6   8
ENDBRANCH   1   2
BRANCH   1  16
ATOM     16  C   UNL     1       6.387  -5.335  21.524  0.00  0.00    +0.313 C 
ATOM     17  O   UNL     1       5.912  -5.303  20.391  0.00  0.00    -0.250 OA
BRANCH  16  18
ATOM     18  O   UNL     1       7.271  -6.313  21.822  0.00  0.00    -0.480 OA
ATOM     19  H   UNL     1       8.072  -6.059  22.337  0.00  0.00    +0.295 HD
ENDBRANCH  16  18
ENDBRANCH   1  16
BRANCH   1  20
ATOM     20  C   UNL     1       6.112  -2.833  22.289  0.00  0.00    +0.116 C 
BRANCH  20  21
ATOM     21  P   UNL     1       7.289  -1.812  23.488  0.00  0.00    +0.203 P 
ATOM     22  O   UNL     1       8.302  -1.204  22.508  0.00  0.00    -0.291 OA
BRANCH  21  23
ATOM     23  O   UNL     1       6.254  -0.465  23.158  0.00  0.00    -0.344 OA
ATOM     24  H   UNL     1       6.774   0.359  23.035  0.00  0.00    +0.218 HD
ENDBRANCH  21  23
BRANCH  21  25
ATOM     25  C   UNL     1       8.385  -3.235  23.838  0.00  0.00    +0.097 C 
BRANCH  25  26
ATOM     26  C   UNL     1       8.428  -3.579  25.332  0.00  0.00    +0.014 C 
BRANCH  26  27
ATOM     27  C   UNL     1       7.930  -5.000  25.616  0.00  0.00    +0.035 C 
BRANCH  27  28
ATOM     28  C   UNL     1       6.637  -5.007  26.387  0.00  0.00    -0.047 A 
ATOM     29  C   UNL     1       5.841  -6.157  26.431  0.00  0.00    +0.003 A 
ATOM     30  C   UNL     1       4.643  -6.156  27.144  0.00  0.00    +0.000 A 
ATOM     31  C   UNL     1       4.233  -5.012  27.825  0.00  0.00    +0.000 A 
ATOM     32  C   UNL     1       5.021  -3.865  27.797  0.00  0.00    +0.000 A 
ATOM     33  C   UNL     1       6.221  -3.863  27.084  0.00  0.00    +0.003 A 
ENDBRANCH  27  28
ENDBRANCH  26  27
ENDBRANCH  25  26
ENDBRANCH  21  25
ENDBRANCH  20  21
ENDBRANCH   1  20
TORSDOF 11
ENDMDL
MODEL 9
REMARK VINA RESULT:      -6.9      3.281      5.619
REMARK  Name = 
REMARK  11 active torsions:
REMARK  status: ('A' for Active; 'I' for Inactive)
REMARK    1  A    between atoms: C_2  and  C_3
REMARK    2  A    between atoms: C_2  and  C_16
REMARK    3  A    between atoms: C_2  and  C_19
REMARK    4  A    between atoms: C_3  and  P_4
REMARK    5  A    between atoms: P_4  and  O_5
REMARK    6  A    between atoms: P_4  and  C_7
REMARK    7  A    between atoms: C_7  and  C_8
REMARK    8  A    between atoms: C_8  and  C_9
REMARK    9  A    between atoms: C_9  and  C_10
REMARK   10  A    between atoms: C_16  and  O_17
REMARK   11  A    between atoms: C_21  and  N_22
REMARK                            x       y       z     vdW  Elec       q    Type
REMARK                         _______ _______ _______ _____ _____    ______ ____
ROOT
ATOM      1  C   UNL     1       8.648  -0.912  23.235  0.00  0.00    +0.137 C 
ENDROOT
BRANCH   1   2
ATOM      2  C   UNL     1       8.685  -2.412  23.645  0.00  0.00    -0.030 A 
ATOM      3  C   UNL     1       9.565  -2.888  24.633  0.00  0.00    +0.004 A 
ATOM      4  C   UNL     1       9.508  -4.210  25.080  0.00  0.00    +0.004 A 
ATOM      5  C   UNL     1       8.587  -5.099  24.533  0.00  0.00    +0.042 A 
ATOM      6  C   UNL     1       7.712  -4.685  23.528  0.00  0.00    +0.100 A 
ATOM      7  C   UNL     1       7.807  -3.357  23.068  0.00  0.00    +0.046 A 
BRANCH   6   8
ATOM      8  N   UNL     1       6.774  -5.552  22.938  0.00  0.00    -0.244 N 
ATOM      9  H   UNL     1       6.905  -6.531  23.158  0.00  0.00    +0.265 HD
ATOM     10  C   UNL     1       5.904  -5.279  21.939  0.00  0.00    +0.381 C 
ATOM     11  N   UNL     1       5.253  -4.188  21.748  0.00  0.00    -0.129 NA
ATOM     12  H   UNL     1       5.479  -3.545  22.513  0.00  0.00    +0.306 HD
ATOM     13  N   UNL     1       5.693  -6.311  21.089  0.00  0.00    -0.289 N 
ATOM     14  H   UNL     1       5.062  -5.998  20.353  0.00  0.00    +0.255 HD
ATOM     15  H   UNL     1       6.551  -6.648  20.672  0.00  0.00    +0.255 HD
ENDBRANCH   6   8
ENDBRANCH   1   2
BRANCH   1  16
ATOM     16  C   UNL     1       9.750  -0.516  22.197  0.00  0.00    +0.313 C 
ATOM     17  O   UNL     1      10.083   0.649  21.987  0.00  0.00    -0.250 OA
BRANCH  16  18
ATOM     18  O   UNL     1      10.310  -1.489  21.444  0.00  0.00    -0.480 OA
ATOM     19  H   UNL     1       9.704  -2.055  20.912  0.00  0.00    +0.295 HD
ENDBRANCH  16  18
ENDBRANCH   1  16
BRANCH   1  20
ATOM     20  C   UNL     1       7.224  -0.341  22.910  0.00  0.00    +0.116 C 
BRANCH  20  21
ATOM     21  P   UNL     1       6.723   1.261  23.934  0.00  0.00    +0.203 P 
ATOM     22  O   UNL     1       7.845   2.244  23.567  0.00  0.00    -0.291 OA
BRANCH  21  23
ATOM     23  O   UNL     1       5.895   1.768  22.502  0.00  0.00    -0.344 OA
ATOM     24  H   UNL     1       4.973   2.041  22.704  0.00  0.00    +0.218 HD
ENDBRANCH  21  23
BRANCH  21  25
ATOM     25  C   UNL     1       7.600   0.726  25.449  0.00  0.00    +0.097 C 
BRANCH  25  26
ATOM     26  C   UNL     1       6.660   0.040  26.449  0.00  0.00    +0.014 C 
BRANCH  26  27
ATOM     27  C   UNL     1       7.168  -1.344  26.866  0.00  0.00    +0.035 C 
BRANCH  27  28
ATOM     28  C   UNL     1       6.240  -2.446  26.428  0.00  0.00    -0.047 A 
ATOM     29  C   UNL     1       5.271  -2.210  25.446  0.00  0.00    +0.003 A 
ATOM     30  C   UNL     1       4.411  -3.233  25.046  0.00  0.00    +0.000 A 
ATOM     31  C   UNL     1       4.517  -4.500  25.615  0.00  0.00    +0.000 A 
ATOM     32  C   UNL     1       5.483  -4.749  26.585  0.00  0.00    +0.000 A 
ATOM     33  C   UNL     1       6.345  -3.728  26.988  0.00  0.00    +0.003 A 
ENDBRANCH  27  28
ENDBRANCH  26  27
ENDBRANCH  25  26
ENDBRANCH  21  25
ENDBRANCH  20  21
ENDBRANCH   1  20
TORSDOF 11
ENDMDL
