MODEL 1
REMARK VINA RESULT:      -7.7      0.000      0.000
REMARK  Name = 
REMARK  9 active torsions:
REMARK  status: ('A' for Active; 'I' for Inactive)
REMARK    1  A    between atoms: C_2  and  C_3
REMARK    2  A    between atoms: C_2  and  C_4
REMARK    3  A    between atoms: C_2  and  C_15
REMARK    4  A    between atoms: C_5  and  C_6
REMARK    5  A    between atoms: C_7  and  N_8
REMARK    6  A    between atoms: C_13  and  C_14
REMARK    7  A    between atoms: C_17  and  O_18
REMARK    8  A    between atoms: O_18  and  C_19
REMARK    9  A    between atoms: C_20  and  C_23
REMARK                            x       y       z     vdW  Elec       q    Type
REMARK                         _______ _______ _______ _____ _____    ______ ____
ROOT
ATOM      1  C   UNL     1       9.022  -4.566  24.890  0.00  0.00    +0.091 C 
ATOM      2  C   UNL     1       9.375  -4.747  26.371  0.00  0.00    +0.026 C 
ENDROOT
BRANCH   1   3
ATOM      3  C   UNL     1       7.605  -5.045  24.624  0.00  0.00    -0.029 A 
ATOM      4  C   UNL     1       6.737  -5.318  25.683  0.00  0.00    +0.005 A 
ATOM      5  C   UNL     1       5.405  -5.677  25.437  0.00  0.00    +0.012 A 
ATOM      6  C   UNL     1       4.886  -5.795  24.129  0.00  0.00    +0.024 A 
ATOM      7  C   UNL     1       5.791  -5.562  23.064  0.00  0.00    +0.128 A 
ATOM      8  C   UNL     1       7.122  -5.191  23.317  0.00  0.00    +0.051 A 
BRANCH   6   9
ATOM      9  C   UNL     1       3.441  -6.116  23.925  0.00  0.00    -0.014 A 
ATOM     10  C   UNL     1       2.525  -5.151  23.462  0.00  0.00    +0.008 A 
ATOM     11  C   UNL     1       1.175  -5.448  23.243  0.00  0.00    +0.001 A 
ATOM     12  C   UNL     1       0.689  -6.716  23.529  0.00  0.00    +0.000 A 
ATOM     13  C   UNL     1       1.554  -7.683  24.030  0.00  0.00    +0.001 A 
ATOM     14  C   UNL     1       2.912  -7.389  24.215  0.00  0.00    +0.008 A 
ENDBRANCH   6   9
BRANCH   7  15
ATOM     15  O   UNL     1       5.348  -5.786  21.780  0.00  0.00    -0.494 OA
ATOM     16  C   UNL     1       6.306  -5.609  20.742  0.00  0.00    +0.277 C 
ENDBRANCH   7  15
ENDBRANCH   1   3
BRANCH   1  17
ATOM     17  C   UNL     1       9.225  -3.166  24.469  0.00  0.00    -0.089 C 
ATOM     18  C   UNL     1       9.404  -2.016  24.154  0.00  0.00    -0.060 C 
BRANCH  18  19
ATOM     19  C   UNL     1       9.622  -0.639  23.817  0.00  0.00    +0.085 A 
ATOM     20  C   UNL     1       9.759  -0.199  22.510  0.00  0.00    +0.060 A 
ATOM     21  C   UNL     1       9.685  -1.138  21.341  0.00  0.00    +0.067 C 
ATOM     22  N   UNL     1       9.955   1.107  22.204  0.00  0.00    -0.219 NA
ATOM     23  C   UNL     1      10.011   1.972  23.220  0.00  0.00    +0.215 A 
ATOM     24  N   UNL     1      10.230   3.297  22.914  0.00  0.00    -0.327 N 
ATOM     25  H   UNL     1      10.697   3.362  22.020  0.00  0.00    +0.145 HD
ATOM     26  H   UNL     1      10.670   3.758  23.699  0.00  0.00    +0.145 HD
ATOM     27  N   UNL     1       9.912   1.642  24.508  0.00  0.00    -0.199 NA
ATOM     28  C   UNL     1       9.707   0.349  24.791  0.00  0.00    +0.137 A 
BRANCH  28  29
ATOM     29  N   UNL     1       9.640   0.049  26.159  0.00  0.00    -0.342 N 
ATOM     30  H   UNL     1       9.683   0.930  26.666  0.00  0.00    +0.144 HD
ATOM     31  H   UNL     1       8.809  -0.489  26.385  0.00  0.00    +0.144 HD
ENDBRANCH  28  29
ENDBRANCH  18  19
ENDBRANCH   1  17
TORSDOF 6
ENDMDL
MODEL 2
REMARK VINA RESULT:      -7.5      4.864      9.320
REMARK  Name = 
REMARK  9 active torsions:
REMARK  status: ('A' for Active; 'I' for Inactive)
REMARK    1  A    between atoms: C_2  and  C_3
REMARK    2  A    between atoms: C_2  and  C_4
REMARK    3  A    between atoms: C_2  and  C_15
REMARK    4  A    between atoms: C_5  and  C_6
REMARK    5  A    between atoms: C_7  and  N_8
REMARK    6  A    between atoms: C_13  and  C_14
REMARK    7  A    between atoms: C_17  and  O_18
REMARK    8  A    between atoms: O_18  and  C_19
REMARK    9  A    between atoms: C_20  and  C_23
REMARK                            x       y       z     vdW  Elec       q    Type
REMARK                         _______ _______ _______ _____ _____    ______ ____
ROOT
ATOM      1  C   UNL     1       9.082  -2.201  23.155  0.00  0.00    +0.091 C 
ATOM      2  C   UNL     1       8.292  -2.445  21.865  0.00  0.00    +0.026 C 
ENDROOT
BRANCH   1   3
ATOM      3  C   UNL     1       9.335  -0.715  23.344  0.00  0.00    -0.029 A 
ATOM      4  C   UNL     1      10.169  -0.261  24.368  0.00  0.00    +0.005 A 
ATOM      5  C   UNL     1      10.470   1.102  24.489  0.00  0.00    +0.012 A 
ATOM      6  C   UNL     1       9.942   2.071  23.607  0.00  0.00    +0.024 A 
ATOM      7  C   UNL     1       9.060   1.602  22.603  0.00  0.00    +0.128 A 
ATOM      8  C   UNL     1       8.771   0.233  22.480  0.00  0.00    +0.051 A 
BRANCH   6   9
ATOM      9  C   UNL     1      10.349   3.503  23.742  0.00  0.00    -0.014 A 
ATOM     10  C   UNL     1       9.467   4.480  24.246  0.00  0.00    +0.008 A 
ATOM     11  C   UNL     1       9.846   5.818  24.401  0.00  0.00    +0.001 A 
ATOM     12  C   UNL     1      11.112   6.229  24.008  0.00  0.00    +0.000 A 
ATOM     13  C   UNL     1      11.995   5.302  23.466  0.00  0.00    +0.001 A 
ATOM     14  C   UNL     1      11.621   3.957  23.345  0.00  0.00    +0.008 A 
ENDBRANCH   6   9
BRANCH   7  15
ATOM     15  O   UNL     1       8.436   2.534  21.806  0.00  0.00    -0.494 OA
ATOM     16  C   UNL     1       7.045   2.732  22.036  0.00  0.00    +0.277 C 
ENDBRANCH   7  15
ENDBRANCH   1   3
BRANCH   1  17
ATOM     17  C   UNL     1       8.393  -2.801  24.315  0.00  0.00    -0.089 C 
ATOM     18  C   UNL     1       7.846  -3.319  25.256  0.00  0.00    -0.060 C 
BRANCH  18  19
ATOM     19  C   UNL     1       7.203  -3.971  26.361  0.00  0.00    +0.085 A 
ATOM     20  C   UNL     1       6.105  -3.433  27.013  0.00  0.00    +0.060 A 
ATOM     21  C   UNL     1       5.501  -2.120  26.607  0.00  0.00    +0.067 C 
ATOM     22  N   UNL     1       5.501  -4.063  28.049  0.00  0.00    -0.219 NA
ATOM     23  C   UNL     1       6.004  -5.241  28.427  0.00  0.00    +0.215 A 
ATOM     24  N   UNL     1       5.404  -5.875  29.493  0.00  0.00    -0.327 N 
ATOM     25  H   UNL     1       4.933  -5.190  30.068  0.00  0.00    +0.145 HD
ATOM     26  H   UNL     1       6.075  -6.478  29.949  0.00  0.00    +0.145 HD
ATOM     27  N   UNL     1       7.068  -5.827  27.877  0.00  0.00    -0.199 NA
ATOM     28  C   UNL     1       7.645  -5.195  26.846  0.00  0.00    +0.137 A 
BRANCH  28  29
ATOM     29  N   UNL     1       8.776  -5.837  26.322  0.00  0.00    -0.342 N 
ATOM     30  H   UNL     1       8.448  -6.601  25.737  0.00  0.00    +0.144 HD
ATOM     31  H   UNL     1       9.374  -5.190  25.816  0.00  0.00    +0.144 HD
ENDBRANCH  28  29
ENDBRANCH  18  19
ENDBRANCH   1  17
TORSDOF 6
ENDMDL
MODEL 3
REMARK VINA RESULT:      -7.4      4.251      8.560
REMARK  Name = 
REMARK  9 active torsions:
REMARK  status: ('A' for Active; 'I' for Inactive)
REMARK    1  A    between atoms: C_2  and  C_3
REMARK    2  A    between atoms: C_2  and  C_4
REMARK    3  A    between atoms: C_2  and  C_15
REMARK    4  A    between atoms: C_5  and  C_6
REMARK    5  A    between atoms: C_7  and  N_8
REMARK    6  A    between atoms: C_13  and  C_14
REMARK    7  A    between atoms: C_17  and  O_18
REMARK    8  A    between atoms: O_18  and  C_19
REMARK    9  A    between atoms: C_20  and  C_23
REMARK                            x       y       z     vdW  Elec       q    Type
REMARK                         _______ _______ _______ _____ _____    ______ ____
ROOT
ATOM      1  C   UNL     1       8.675  -4.190  26.099  0.00  0.00    +0.091 C 
ATOM      2  C   UNL     1       9.918  -4.997  25.710  0.00  0.00    +0.026 C 
ENDROOT
BRANCH   1   3
ATOM      3  C   UNL     1       8.815  -2.750  25.636  0.00  0.00    -0.029 A 
ATOM      4  C   UNL     1       8.409  -1.696  26.457  0.00  0.00    +0.005 A 
ATOM      5  C   UNL     1       8.618  -0.367  26.065  0.00  0.00    +0.012 A 
ATOM      6  C   UNL     1       9.224  -0.032  24.834  0.00  0.00    +0.024 A 
ATOM      7  C   UNL     1       9.588  -1.109  23.991  0.00  0.00    +0.128 A 
ATOM      8  C   UNL     1       9.387  -2.440  24.395  0.00  0.00    +0.051 A 
BRANCH   6   9
ATOM      9  C   UNL     1       9.482   1.401  24.496  0.00  0.00    -0.014 A 
ATOM     10  C   UNL     1       8.553   2.415  24.804  0.00  0.00    +0.008 A 
ATOM     11  C   UNL     1       8.796   3.762  24.516  0.00  0.00    +0.001 A 
ATOM     12  C   UNL     1       9.964   4.132  23.864  0.00  0.00    +0.000 A 
ATOM     13  C   UNL     1      10.885   3.154  23.505  0.00  0.00    +0.001 A 
ATOM     14  C   UNL     1      10.652   1.810  23.826  0.00  0.00    +0.008 A 
ENDBRANCH   6   9
BRANCH   7  15
ATOM     15  O   UNL     1      10.070  -0.813  22.736  0.00  0.00    -0.494 OA
ATOM     16  C   UNL     1       9.236  -1.170  21.639  0.00  0.00    +0.277 C 
ENDBRANCH   7  15
ENDBRANCH   1   3
BRANCH   1  17
ATOM     17  C   UNL     1       7.450  -4.826  25.576  0.00  0.00    -0.089 C 
ATOM     18  C   UNL     1       6.451  -5.325  25.122  0.00  0.00    -0.060 C 
BRANCH  18  19
ATOM     19  C   UNL     1       5.256  -5.888  24.560  0.00  0.00    +0.085 A 
ATOM     20  C   UNL     1       4.756  -5.505  23.326  0.00  0.00    +0.060 A 
ATOM     21  C   UNL     1       5.434  -4.468  22.478  0.00  0.00    +0.067 C 
ATOM     22  N   UNL     1       3.632  -6.051  22.801  0.00  0.00    -0.219 NA
ATOM     23  C   UNL     1       3.012  -6.987  23.523  0.00  0.00    +0.215 A 
ATOM     24  N   UNL     1       1.858  -7.530  23.002  0.00  0.00    -0.327 N 
ATOM     25  H   UNL     1       1.445  -6.877  22.350  0.00  0.00    +0.145 HD
ATOM     26  H   UNL     1       1.271  -7.865  23.754  0.00  0.00    +0.145 HD
ATOM     27  N   UNL     1       3.403  -7.405  24.727  0.00  0.00    -0.199 NA
ATOM     28  C   UNL     1       4.523  -6.863  25.225  0.00  0.00    +0.137 A 
BRANCH  28  29
ATOM     29  N   UNL     1       4.876  -7.313  26.505  0.00  0.00    -0.342 N 
ATOM     30  H   UNL     1       5.109  -8.300  26.427  0.00  0.00    +0.144 HD
ATOM     31  H   UNL     1       5.635  -6.765  26.899  0.00  0.00    +0.144 HD
ENDBRANCH  28  29
ENDBRANCH  18  19
ENDBRANCH   1  17
TORSDOF 6
ENDMDL
MODEL 4
REMARK VINA RESULT:      -7.4      1.174      2.479
REMARK  Name = 
REMARK  9 active torsions:
REMARK  status: ('A' for Active; 'I' for Inactive)
REMARK    1  A    between atoms: C_2  and  C_3
REMARK    2  A    between atoms: C_2  and  C_4
REMARK    3  A    between atoms: C_2  and  C_15
REMARK    4  A    between atoms: C_5  and  C_6
REMARK    5  A    between atoms: C_7  and  N_8
REMARK    6  A    between atoms: C_13  and  C_14
REMARK    7  A    between atoms: C_17  and  O_18
REMARK    8  A    between atoms: O_18  and  C_19
REMARK    9  A    between atoms: C_20  and  C_23
REMARK                            x       y       z     vdW  Elec       q    Type
REMARK                         _______ _______ _______ _____ _____    ______ ____
ROOT
ATOM      1  C   UNL     1       8.919  -4.663  24.481  0.00  0.00    +0.091 C 
ATOM      2  C   UNL     1       9.379  -4.977  25.909  0.00  0.00    +0.026 C 
ENDROOT
BRANCH   1   3
ATOM      3  C   UNL     1       7.451  -5.016  24.311  0.00  0.00    -0.029 A 
ATOM      4  C   UNL     1       6.911  -5.214  23.039  0.00  0.00    +0.005 A 
ATOM      5  C   UNL     1       5.580  -5.623  22.887  0.00  0.00    +0.012 A 
ATOM      6  C   UNL     1       4.727  -5.838  23.992  0.00  0.00    +0.024 A 
ATOM      7  C   UNL     1       5.274  -5.588  25.274  0.00  0.00    +0.128 A 
ATOM      8  C   UNL     1       6.613  -5.189  25.420  0.00  0.00    +0.051 A 
BRANCH   6   9
ATOM      9  C   UNL     1       3.335  -6.339  23.774  0.00  0.00    -0.014 A 
ATOM     10  C   UNL     1       2.338  -5.528  23.196  0.00  0.00    +0.008 A 
ATOM     11  C   UNL     1       1.040  -5.995  22.964  0.00  0.00    +0.001 A 
ATOM     12  C   UNL     1       0.686  -7.281  23.350  0.00  0.00    +0.000 A 
ATOM     13  C   UNL     1       1.632  -8.095  23.963  0.00  0.00    +0.001 A 
ATOM     14  C   UNL     1       2.940  -7.633  24.162  0.00  0.00    +0.008 A 
ENDBRANCH   6   9
BRANCH   7  15
ATOM     15  O   UNL     1       4.435  -5.672  26.361  0.00  0.00    -0.494 OA
ATOM     16  C   UNL     1       4.751  -6.669  27.327  0.00  0.00    +0.277 C 
ENDBRANCH   7  15
ENDBRANCH   1   3
BRANCH   1  17
ATOM     17  C   UNL     1       9.196  -3.254  24.138  0.00  0.00    -0.089 C 
ATOM     18  C   UNL     1       9.414  -2.095  23.888  0.00  0.00    -0.060 C 
BRANCH  18  19
ATOM     19  C   UNL     1       9.651  -0.705  23.622  0.00  0.00    +0.085 A 
ATOM     20  C   UNL     1       9.674   0.256  24.620  0.00  0.00    +0.060 A 
ATOM     21  C   UNL     1       9.452  -0.089  26.064  0.00  0.00    +0.067 C 
ATOM     22  N   UNL     1       9.909   1.565  24.358  0.00  0.00    -0.219 NA
ATOM     23  C   UNL     1      10.125   1.904  23.084  0.00  0.00    +0.215 A 
ATOM     24  N   UNL     1      10.345   3.237  22.811  0.00  0.00    -0.327 N 
ATOM     25  H   UNL     1       9.930   3.801  23.540  0.00  0.00    +0.145 HD
ATOM     26  H   UNL     1      10.069   3.438  21.859  0.00  0.00    +0.145 HD
ATOM     27  N   UNL     1      10.102   1.057  22.055  0.00  0.00    -0.199 NA
ATOM     28  C   UNL     1       9.879  -0.234  22.335  0.00  0.00    +0.137 A 
BRANCH  28  29
ATOM     29  N   UNL     1       9.835  -1.079  21.217  0.00  0.00    -0.342 N 
ATOM     30  H   UNL     1       8.871  -1.380  21.101  0.00  0.00    +0.144 HD
ATOM     31  H   UNL     1      10.204  -0.624  20.388  0.00  0.00    +0.144 HD
ENDBRANCH  28  29
ENDBRANCH  18  19
ENDBRANCH   1  17
TORSDOF 6
ENDMDL
MODEL 5
REMARK VINA RESULT:      -7.1      1.105      2.052
REMARK  Name = 
REMARK  9 active torsions:
REMARK  status: ('A' for Active; 'I' for Inactive)
REMARK    1  A    between atoms: C_2  and  C_3
REMARK    2  A    between atoms: C_2  and  C_4
REMARK    3  A    between atoms: C_2  and  C_15
REMARK    4  A    between atoms: C_5  and  C_6
REMARK    5  A    between atoms: C_7  and  N_8
REMARK    6  A    between atoms: C_13  and  C_14
REMARK    7  A    between atoms: C_17  and  O_18
REMARK    8  A    between atoms: O_18  and  C_19
REMARK    9  A    between atoms: C_20  and  C_23
REMARK                            x       y       z     vdW  Elec       q    Type
REMARK                         _______ _______ _______ _____ _____    ______ ____
ROOT
ATOM      1  C   UNL     1       8.924  -4.413  24.491  0.00  0.00    +0.091 C 
ATOM      2  C   UNL     1       9.376  -4.735  25.920  0.00  0.00    +0.026 C 
ENDROOT
BRANCH   1   3
ATOM      3  C   UNL     1       7.468  -4.802  24.298  0.00  0.00    -0.029 A 
ATOM      4  C   UNL     1       7.038  -5.371  23.098  0.00  0.00    +0.005 A 
ATOM      5  C   UNL     1       5.715  -5.808  22.952  0.00  0.00    +0.012 A 
ATOM      6  C   UNL     1       4.762  -5.684  23.987  0.00  0.00    +0.024 A 
ATOM      7  C   UNL     1       5.200  -5.063  25.182  0.00  0.00    +0.128 A 
ATOM      8  C   UNL     1       6.531  -4.637  25.327  0.00  0.00    +0.051 A 
BRANCH   6   9
ATOM      9  C   UNL     1       3.382  -6.228  23.800  0.00  0.00    -0.014 A 
ATOM     10  C   UNL     1       3.034  -7.526  24.223  0.00  0.00    +0.008 A 
ATOM     11  C   UNL     1       1.739  -8.036  24.077  0.00  0.00    +0.001 A 
ATOM     12  C   UNL     1       0.760  -7.273  23.455  0.00  0.00    +0.000 A 
ATOM     13  C   UNL     1       1.078  -6.003  22.985  0.00  0.00    +0.001 A 
ATOM     14  C   UNL     1       2.368  -5.485  23.165  0.00  0.00    +0.008 A 
ENDBRANCH   6   9
BRANCH   7  15
ATOM     15  O   UNL     1       4.266  -4.819  26.163  0.00  0.00    -0.494 OA
ATOM     16  C   UNL     1       4.253  -3.504  26.709  0.00  0.00    +0.277 C 
ENDBRANCH   7  15
ENDBRANCH   1   3
BRANCH   1  17
ATOM     17  C   UNL     1       9.168  -2.992  24.171  0.00  0.00    -0.089 C 
ATOM     18  C   UNL     1       9.370  -1.826  23.941  0.00  0.00    -0.060 C 
BRANCH  18  19
ATOM     19  C   UNL     1       9.601  -0.430  23.706  0.00  0.00    +0.085 A 
ATOM     20  C   UNL     1       9.683   0.113  22.433  0.00  0.00    +0.060 A 
ATOM     21  C   UNL     1       9.531  -0.727  21.198  0.00  0.00    +0.067 C 
ATOM     22  N   UNL     1       9.893   1.435  22.224  0.00  0.00    -0.219 NA
ATOM     23  C   UNL     1      10.018   2.213  23.302  0.00  0.00    +0.215 A 
ATOM     24  N   UNL     1      10.251   3.555  23.092  0.00  0.00    -0.327 N 
ATOM     25  H   UNL     1      10.674   3.684  22.184  0.00  0.00    +0.145 HD
ATOM     26  H   UNL     1      10.739   3.942  23.888  0.00  0.00    +0.145 HD
ATOM     27  N   UNL     1       9.976   1.781  24.563  0.00  0.00    -0.199 NA
ATOM     28  C   UNL     1       9.757   0.473  24.751  0.00  0.00    +0.137 A 
BRANCH  28  29
ATOM     29  N   UNL     1       9.750   0.064  26.092  0.00  0.00    -0.342 N 
ATOM     30  H   UNL     1       8.805   0.190  26.444  0.00  0.00    +0.144 HD
ATOM     31  H   UNL     1      10.080  -0.891  26.194  0.00  0.00    +0.144 HD
ENDBRANCH  28  29
ENDBRANCH  18  19
ENDBRANCH   1  17
TORSDOF 6
ENDMDL
MODEL 6
REMARK VINA RESULT:      -7.1      4.033      9.146
REMARK  Name = 
REMARK  9 active torsions:
REMARK  status: ('A' for Active; 'I' for Inactive)
REMARK    1  A    between atoms: C_2  and  C_3
REMARK    2  A    between atoms: C_2  and  C_4
REMARK    3  A    between atoms: C_2  and  C_15
REMARK    4  A    between atoms: C_5  and  C_6
REMARK    5  A    between atoms: C_7  and  N_8
REMARK    6  A    between atoms: C_13  and  C_14
REMARK    7  A    between atoms: C_17  and  O_18
REMARK    8  A    between atoms: O_18  and  C_19
REMARK    9  A    between atoms: C_20  and  C_23
REMARK                            x       y       z     vdW  Elec       q    Type
REMARK                         _______ _______ _______ _____ _____    ______ ____
ROOT
ATOM      1  C   UNL     1       9.397  -1.718  23.038  0.00  0.00    +0.091 C 
ATOM      2  C   UNL     1       9.042  -1.844  21.552  0.00  0.00    +0.026 C 
ENDROOT
BRANCH   1   3
ATOM      3  C   UNL     1       9.262  -0.274  23.490  0.00  0.00    -0.029 A 
ATOM      4  C   UNL     1      10.301   0.355  24.178  0.00  0.00    +0.005 A 
ATOM      5  C   UNL     1      10.211   1.711  24.520  0.00  0.00    +0.012 A 
ATOM      6  C   UNL     1       9.078   2.493  24.205  0.00  0.00    +0.024 A 
ATOM      7  C   UNL     1       8.012   1.830  23.550  0.00  0.00    +0.128 A 
ATOM      8  C   UNL     1       8.113   0.473  23.199  0.00  0.00    +0.051 A 
BRANCH   6   9
ATOM      9  C   UNL     1       9.062   3.951  24.535  0.00  0.00    -0.014 A 
ATOM     10  C   UNL     1       8.282   4.465  25.589  0.00  0.00    +0.008 A 
ATOM     11  C   UNL     1       8.280   5.823  25.923  0.00  0.00    +0.001 A 
ATOM     12  C   UNL     1       9.029   6.721  25.175  0.00  0.00    +0.000 A 
ATOM     13  C   UNL     1       9.778   6.258  24.099  0.00  0.00    +0.001 A 
ATOM     14  C   UNL     1       9.802   4.891  23.791  0.00  0.00    +0.008 A 
ENDBRANCH   6   9
BRANCH   7  15
ATOM     15  O   UNL     1       6.848   2.533  23.337  0.00  0.00    -0.494 OA
ATOM     16  C   UNL     1       6.684   3.107  22.045  0.00  0.00    +0.277 C 
ENDBRANCH   7  15
ENDBRANCH   1   3
BRANCH   1  17
ATOM     17  C   UNL     1       8.578  -2.636  23.853  0.00  0.00    -0.089 C 
ATOM     18  C   UNL     1       7.933  -3.408  24.517  0.00  0.00    -0.060 C 
BRANCH  18  19
ATOM     19  C   UNL     1       7.188  -4.357  25.294  0.00  0.00    +0.085 A 
ATOM     20  C   UNL     1       5.832  -4.576  25.111  0.00  0.00    +0.060 A 
ATOM     21  C   UNL     1       5.037  -3.833  24.076  0.00  0.00    +0.067 C 
ATOM     22  N   UNL     1       5.141  -5.481  25.845  0.00  0.00    -0.219 NA
ATOM     23  C   UNL     1       5.820  -6.170  26.765  0.00  0.00    +0.215 A 
ATOM     24  N   UNL     1       5.117  -7.078  27.527  0.00  0.00    -0.327 N 
ATOM     25  H   UNL     1       4.142  -6.813  27.547  0.00  0.00    +0.145 HD
ATOM     26  H   UNL     1       5.580  -7.205  28.416  0.00  0.00    +0.145 HD
ATOM     27  N   UNL     1       7.118  -6.015  27.029  0.00  0.00    -0.199 NA
ATOM     28  C   UNL     1       7.788  -5.123  26.286  0.00  0.00    +0.137 A 
BRANCH  28  29
ATOM     29  N   UNL     1       9.141  -4.975  26.621  0.00  0.00    -0.342 N 
ATOM     30  H   UNL     1       9.604  -5.856  26.412  0.00  0.00    +0.144 HD
ATOM     31  H   UNL     1       9.563  -4.189  26.138  0.00  0.00    +0.144 HD
ENDBRANCH  28  29
ENDBRANCH  18  19
ENDBRANCH   1  17
TORSDOF 6
ENDMDL
MODEL 7
REMARK VINA RESULT:      -7.1      4.920      9.152
REMARK  Name = 
REMARK  9 active torsions:
REMARK  status: ('A' for Active; 'I' for Inactive)
REMARK    1  A    between atoms: C_2  and  C_3
REMARK    2  A    between atoms: C_2  and  C_4
REMARK    3  A    between atoms: C_2  and  C_15
REMARK    4  A    between atoms: C_5  and  C_6
REMARK    5  A    between atoms: C_7  and  N_8
REMARK    6  A    between atoms: C_13  and  C_14
REMARK    7  A    between atoms: C_17  and  O_18
REMARK    8  A    between atoms: O_18  and  C_19
REMARK    9  A    between atoms: C_20  and  C_23
REMARK                            x       y       z     vdW  Elec       q    Type
REMARK                         _______ _______ _______ _____ _____    ______ ____
ROOT
ATOM      1  C   UNL     1      10.149  -1.234  23.709  0.00  0.00    +0.091 C 
ATOM      2  C   UNL     1      10.115  -1.801  22.286  0.00  0.00    +0.026 C 
ENDROOT
BRANCH   1   3
ATOM      3  C   UNL     1       9.782   0.240  23.698  0.00  0.00    -0.029 A 
ATOM      4  C   UNL     1      10.146   1.055  22.624  0.00  0.00    +0.005 A 
ATOM      5  C   UNL     1       9.734   2.393  22.573  0.00  0.00    +0.012 A 
ATOM      6  C   UNL     1       8.957   2.980  23.596  0.00  0.00    +0.024 A 
ATOM      7  C   UNL     1       8.635   2.156  24.702  0.00  0.00    +0.128 A 
ATOM      8  C   UNL     1       9.041   0.812  24.741  0.00  0.00    +0.051 A 
BRANCH   6   9
ATOM      9  C   UNL     1       8.489   4.393  23.459  0.00  0.00    -0.014 A 
ATOM     10  C   UNL     1       7.291   4.716  22.791  0.00  0.00    +0.008 A 
ATOM     11  C   UNL     1       6.830   6.033  22.680  0.00  0.00    +0.001 A 
ATOM     12  C   UNL     1       7.585   7.077  23.196  0.00  0.00    +0.000 A 
ATOM     13  C   UNL     1       8.795   6.801  23.823  0.00  0.00    +0.001 A 
ATOM     14  C   UNL     1       9.235   5.477  23.961  0.00  0.00    +0.008 A 
ENDBRANCH   6   9
BRANCH   7  15
ATOM     15  O   UNL     1       7.983   2.732  25.768  0.00  0.00    -0.494 OA
ATOM     16  C   UNL     1       6.648   2.297  26.001  0.00  0.00    +0.277 C 
ENDBRANCH   7  15
ENDBRANCH   1   3
BRANCH   1  17
ATOM     17  C   UNL     1       9.278  -2.017  24.607  0.00  0.00    -0.089 C 
ATOM     18  C   UNL     1       8.592  -2.676  25.348  0.00  0.00    -0.060 C 
BRANCH  18  19
ATOM     19  C   UNL     1       7.803  -3.489  26.229  0.00  0.00    +0.085 A 
ATOM     20  C   UNL     1       6.572  -3.086  26.720  0.00  0.00    +0.060 A 
ATOM     21  C   UNL     1       5.967  -1.759  26.362  0.00  0.00    +0.067 C 
ATOM     22  N   UNL     1       5.831  -3.867  27.544  0.00  0.00    -0.219 NA
ATOM     23  C   UNL     1       6.333  -5.060  27.870  0.00  0.00    +0.215 A 
ATOM     24  N   UNL     1       5.592  -5.849  28.723  0.00  0.00    -0.327 N 
ATOM     25  H   UNL     1       4.980  -5.263  29.274  0.00  0.00    +0.145 HD
ATOM     26  H   UNL     1       6.206  -6.476  29.224  0.00  0.00    +0.145 HD
ATOM     27  N   UNL     1       7.515  -5.526  27.466  0.00  0.00    -0.199 NA
ATOM     28  C   UNL     1       8.228  -4.745  26.644  0.00  0.00    +0.137 A 
BRANCH  28  29
ATOM     29  N   UNL     1       9.475  -5.267  26.271  0.00  0.00    -0.342 N 
ATOM     30  H   UNL     1       9.370  -6.274  26.186  0.00  0.00    +0.144 HD
ATOM     31  H   UNL     1       9.822  -4.838  25.418  0.00  0.00    +0.144 HD
ENDBRANCH  28  29
ENDBRANCH  18  19
ENDBRANCH   1  17
TORSDOF 6
ENDMDL
MODEL 8
REMARK VINA RESULT:      -6.9      4.460      8.867
REMARK  Name = 
REMARK  9 active torsions:
REMARK  status: ('A' for Active; 'I' for Inactive)
REMARK    1  A    between atoms: C_2  and  C_3
REMARK    2  A    between atoms: C_2  and  C_4
REMARK    3  A    between atoms: C_2  and  C_15
REMARK    4  A    between atoms: C_5  and  C_6
REMARK    5  A    between atoms: C_7  and  N_8
REMARK    6  A    between atoms: C_13  and  C_14
REMARK    7  A    between atoms: C_17  and  O_18
REMARK    8  A    between atoms: O_18  and  C_19
REMARK    9  A    between atoms: C_20  and  C_23
REMARK                            x       y       z     vdW  Elec       q    Type
REMARK                         _______ _______ _______ _____ _____    ______ ____
ROOT
ATOM      1  C   UNL     1      10.045  -1.021  23.697  0.00  0.00    +0.091 C 
ATOM      2  C   UNL     1      10.475  -1.540  22.320  0.00  0.00    +0.026 C 
ENDROOT
BRANCH   1   3
ATOM      3  C   UNL     1       9.358   0.327  23.560  0.00  0.00    -0.029 A 
ATOM      4  C   UNL     1       8.010   0.405  23.203  0.00  0.00    +0.005 A 
ATOM      5  C   UNL     1       7.355   1.642  23.161  0.00  0.00    +0.012 A 
ATOM      6  C   UNL     1       8.016   2.854  23.457  0.00  0.00    +0.024 A 
ATOM      7  C   UNL     1       9.394   2.766  23.771  0.00  0.00    +0.128 A 
ATOM      8  C   UNL     1      10.043   1.520  23.824  0.00  0.00    +0.051 A 
BRANCH   6   9
ATOM      9  C   UNL     1       7.252   4.139  23.461  0.00  0.00    -0.014 A 
ATOM     10  C   UNL     1       7.302   5.036  22.375  0.00  0.00    +0.008 A 
ATOM     11  C   UNL     1       6.571   6.228  22.357  0.00  0.00    +0.001 A 
ATOM     12  C   UNL     1       5.799   6.584  23.455  0.00  0.00    +0.000 A 
ATOM     13  C   UNL     1       5.759   5.745  24.564  0.00  0.00    +0.001 A 
ATOM     14  C   UNL     1       6.467   4.536  24.561  0.00  0.00    +0.008 A 
ENDBRANCH   6   9
BRANCH   7  15
ATOM     15  O   UNL     1      10.093   3.938  23.947  0.00  0.00    -0.494 OA
ATOM     16  C   UNL     1      11.404   3.980  23.392  0.00  0.00    +0.277 C 
ENDBRANCH   7  15
ENDBRANCH   1   3
BRANCH   1  17
ATOM     17  C   UNL     1       9.197  -2.011  24.390  0.00  0.00    -0.089 C 
ATOM     18  C   UNL     1       8.509  -2.840  24.931  0.00  0.00    -0.060 C 
BRANCH  18  19
ATOM     19  C   UNL     1       7.686  -3.845  25.540  0.00  0.00    +0.085 A 
ATOM     20  C   UNL     1       6.318  -3.922  25.332  0.00  0.00    +0.060 A 
ATOM     21  C   UNL     1       5.592  -2.954  24.444  0.00  0.00    +0.067 C 
ATOM     22  N   UNL     1       5.553  -4.882  25.905  0.00  0.00    -0.219 NA
ATOM     23  C   UNL     1       6.170  -5.769  26.690  0.00  0.00    +0.215 A 
ATOM     24  N   UNL     1       5.392  -6.735  27.290  0.00  0.00    -0.327 N 
ATOM     25  H   UNL     1       4.441  -6.401  27.363  0.00  0.00    +0.145 HD
ATOM     26  H   UNL     1       5.838  -7.048  28.142  0.00  0.00    +0.145 HD
ATOM     27  N   UNL     1       7.474  -5.764  26.967  0.00  0.00    -0.199 NA
ATOM     28  C   UNL     1       8.217  -4.815  26.382  0.00  0.00    +0.137 A 
BRANCH  28  29
ATOM     29  N   UNL     1       9.576  -4.834  26.728  0.00  0.00    -0.342 N 
ATOM     30  H   UNL     1       9.830  -5.802  26.908  0.00  0.00    +0.144 HD
ATOM     31  H   UNL     1      10.152  -4.408  26.008  0.00  0.00    +0.144 HD
ENDBRANCH  28  29
ENDBRANCH  18  19
ENDBRANCH   1  17
TORSDOF 6
ENDMDL
MODEL 9
REMARK VINA RESULT:      -6.8      4.267      8.786
REMARK  Name = 
REMARK  9 active torsions:
REMARK  status: ('A' for Active; 'I' for Inactive)
REMARK    1  A    between atoms: C_2  and  C_3
REMARK    2  A    between atoms: C_2  and  C_4
REMARK    3  A    between atoms: C_2  and  C_15
REMARK    4  A    between atoms: C_5  and  C_6
REMARK    5  A    between atoms: C_7  and  N_8
REMARK    6  A    between atoms: C_13  and  C_14
REMARK    7  A    between atoms: C_17  and  O_18
REMARK    8  A    between atoms: O_18  and  C_19
REMARK    9  A    between atoms: C_20  and  C_23
REMARK                            x       y       z     vdW  Elec       q    Type
REMARK                         _______ _______ _______ _____ _____    ______ ____
ROOT
ATOM      1  C   UNL     1       8.584  -4.472  26.254  0.00  0.00    +0.091 C 
ATOM      2  C   UNL     1       9.723  -5.271  25.610  0.00  0.00    +0.026 C 
ENDROOT
BRANCH   1   3
ATOM      3  C   UNL     1       8.627  -3.027  25.789  0.00  0.00    -0.029 A 
ATOM      4  C   UNL     1       8.693  -1.984  26.716  0.00  0.00    +0.005 A 
ATOM      5  C   UNL     1       8.818  -0.657  26.286  0.00  0.00    +0.012 A 
ATOM      6  C   UNL     1       8.869  -0.310  24.918  0.00  0.00    +0.024 A 
ATOM      7  C   UNL     1       8.753  -1.373  23.989  0.00  0.00    +0.128 A 
ATOM      8  C   UNL     1       8.639  -2.703  24.426  0.00  0.00    +0.051 A 
BRANCH   6   9
ATOM      9  C   UNL     1       9.070   1.116  24.517  0.00  0.00    -0.014 A 
ATOM     10  C   UNL     1      10.323   1.594  24.082  0.00  0.00    +0.008 A 
ATOM     11  C   UNL     1      10.516   2.920  23.679  0.00  0.00    +0.001 A 
ATOM     12  C   UNL     1       9.466   3.824  23.745  0.00  0.00    +0.000 A 
ATOM     13  C   UNL     1       8.226   3.400  24.211  0.00  0.00    +0.001 A 
ATOM     14  C   UNL     1       8.029   2.062  24.581  0.00  0.00    +0.008 A 
ENDBRANCH   6   9
BRANCH   7  15
ATOM     15  O   UNL     1       8.678  -1.056  22.652  0.00  0.00    -0.494 OA
ATOM     16  C   UNL     1       9.814  -1.386  21.860  0.00  0.00    +0.277 C 
ENDBRANCH   7  15
ENDBRANCH   1   3
BRANCH   1  17
ATOM     17  C   UNL     1       7.279  -5.106  25.983  0.00  0.00    -0.089 C 
ATOM     18  C   UNL     1       6.216  -5.640  25.790  0.00  0.00    -0.060 C 
BRANCH  18  19
ATOM     19  C   UNL     1       4.959  -6.303  25.586  0.00  0.00    +0.085 A 
ATOM     20  C   UNL     1       4.053  -6.523  26.611  0.00  0.00    +0.060 A 
ATOM     21  C   UNL     1       4.319  -6.077  28.019  0.00  0.00    +0.067 C 
ATOM     22  N   UNL     1       2.865  -7.142  26.404  0.00  0.00    -0.219 NA
ATOM     23  C   UNL     1       2.590  -7.538  25.159  0.00  0.00    +0.215 A 
ATOM     24  N   UNL     1       1.392  -8.185  24.949  0.00  0.00    -0.327 N 
ATOM     25  H   UNL     1       1.081  -8.605  25.814  0.00  0.00    +0.145 HD
ATOM     26  H   UNL     1       1.471  -8.792  24.144  0.00  0.00    +0.145 HD
ATOM     27  N   UNL     1       3.406  -7.391  24.114  0.00  0.00    -0.199 NA
ATOM     28  C   UNL     1       4.571  -6.767  24.335  0.00  0.00    +0.137 A 
BRANCH  28  29
ATOM     29  N   UNL     1       5.405  -6.663  23.213  0.00  0.00    -0.342 N 
ATOM     30  H   UNL     1       6.179  -6.055  23.466  0.00  0.00    +0.144 HD
ATOM     31  H   UNL     1       5.715  -7.575  22.891  0.00  0.00    +0.144 HD
ENDBRANCH  28  29
ENDBRANCH  18  19
ENDBRANCH   1  17
TORSDOF 6
ENDMDL
