MODEL 1
REMARK VINA RESULT:      -6.9      0.000      0.000
REMARK  Name = 
REMARK  6 active torsions:
REMARK  status: ('A' for Active; 'I' for Inactive)
REMARK    1  A    between atoms: C_8  and  C_21
REMARK    2  A    between atoms: C_14  and  O_15
REMARK    3  A    between atoms: C_17  and  C_18
REMARK    4  A    between atoms: C_18  and  O_19
REMARK    5  A    between atoms: O_19  and  C_20
REMARK    6  A    between atoms: C_24  and  O_25
REMARK                            x       y       z     vdW  Elec       q    Type
REMARK                         _______ _______ _______ _____ _____    ______ ____
ROOT
ATOM      1  C   UNL     1       5.258  -4.787  22.751  0.00  0.00    +0.030 C 
ATOM      2  C   UNL     1       5.075  -5.451  24.097  0.00  0.00    +0.002 A 
ATOM      3  C   UNL     1       4.236  -6.572  24.213  0.00  0.00    +0.053 A 
ATOM      4  C   UNL     1       4.102  -7.223  25.433  0.00  0.00    +0.118 A 
ATOM      5  C   UNL     1       4.783  -6.771  26.553  0.00  0.00    +0.055 A 
ATOM      6  C   UNL     1       5.607  -5.637  26.471  0.00  0.00    +0.023 A 
ATOM      7  C   UNL     1       5.720  -4.958  25.245  0.00  0.00    +0.130 A 
ATOM      8  O   UNL     1       6.527  -3.848  25.224  0.00  0.00    -0.483 OA
ATOM      9  C   UNL     1       6.323  -2.968  24.109  0.00  0.00    +0.207 C 
ATOM     10  C   UNL     1       6.360  -3.727  22.780  0.00  0.00    +0.042 C 
ATOM     11  C   UNL     1       7.647  -4.527  22.528  0.00  0.00    +0.008 C 
ATOM     12  C   UNL     1       7.245  -5.653  21.589  0.00  0.00    +0.001 C 
ATOM     13  C   UNL     1       5.719  -5.731  21.630  0.00  0.00    +0.009 C 
ENDROOT
BRANCH   9  14
ATOM     14  C   UNL     1       7.360  -1.851  24.125  0.00  0.00    -0.007 A 
ATOM     15  C   UNL     1       8.384  -1.814  25.086  0.00  0.00    +0.011 A 
ATOM     16  C   UNL     1       9.378  -0.835  25.030  0.00  0.00    +0.046 A 
ATOM     17  C   UNL     1       9.355   0.115  24.018  0.00  0.00    +0.117 A 
ATOM     18  C   UNL     1       8.340   0.116  23.067  0.00  0.00    +0.046 A 
ATOM     19  C   UNL     1       7.347  -0.868  23.120  0.00  0.00    +0.011 A 
BRANCH  17  20
ATOM     20  O   UNL     1      10.363   1.033  23.986  0.00  0.00    -0.507 OA
ATOM     21  H   UNL     1       9.974   1.921  24.044  0.00  0.00    +0.292 HD
ENDBRANCH  17  20
ENDBRANCH   9  14
BRANCH   4  22
ATOM     22  O   UNL     1       3.322  -8.332  25.567  0.00  0.00    -0.507 OA
ATOM     23  H   UNL     1       2.993  -8.592  24.691  0.00  0.00    +0.292 HD
ENDBRANCH   4  22
BRANCH   6  24
ATOM     24  C   UNL     1       6.372  -5.207  27.698  0.00  0.00    +0.198 C 
BRANCH  24  25
ATOM     25  O   UNL     1       6.752  -6.329  28.504  0.00  0.00    -0.378 OA
ATOM     26  C   UNL     1       6.070  -6.356  29.755  0.00  0.00    +0.194 C 
ENDBRANCH  24  25
ENDBRANCH   6  24
TORSDOF 5
ENDMDL
MODEL 2
REMARK VINA RESULT:      -6.8      2.817      7.298
REMARK  Name = 
REMARK  6 active torsions:
REMARK  status: ('A' for Active; 'I' for Inactive)
REMARK    1  A    between atoms: C_8  and  C_21
REMARK    2  A    between atoms: C_14  and  O_15
REMARK    3  A    between atoms: C_17  and  C_18
REMARK    4  A    between atoms: C_18  and  O_19
REMARK    5  A    between atoms: O_19  and  C_20
REMARK    6  A    between atoms: C_24  and  O_25
REMARK                            x       y       z     vdW  Elec       q    Type
REMARK                         _______ _______ _______ _____ _____    ______ ____
ROOT
ATOM      1  C   UNL     1      10.198  -0.735  23.704  0.00  0.00    +0.030 C 
ATOM      2  C   UNL     1       9.595   0.582  24.135  0.00  0.00    +0.002 A 
ATOM      3  C   UNL     1      10.079   1.783  23.589  0.00  0.00    +0.053 A 
ATOM      4  C   UNL     1       9.497   2.996  23.937  0.00  0.00    +0.118 A 
ATOM      5  C   UNL     1       8.441   3.041  24.833  0.00  0.00    +0.055 A 
ATOM      6  C   UNL     1       7.955   1.858  25.414  0.00  0.00    +0.023 A 
ATOM      7  C   UNL     1       8.562   0.633  25.088  0.00  0.00    +0.130 A 
ATOM      8  O   UNL     1       8.057  -0.490  25.695  0.00  0.00    -0.483 OA
ATOM      9  C   UNL     1       8.915  -1.639  25.660  0.00  0.00    +0.207 C 
ATOM     10  C   UNL     1       9.407  -1.930  24.240  0.00  0.00    +0.042 C 
ATOM     11  C   UNL     1       8.295  -2.131  23.199  0.00  0.00    +0.008 C 
ATOM     12  C   UNL     1       8.917  -1.747  21.865  0.00  0.00    +0.001 C 
ATOM     13  C   UNL     1      10.195  -0.974  22.187  0.00  0.00    +0.009 C 
ENDROOT
BRANCH   9  14
ATOM     14  C   UNL     1       8.196  -2.849  26.243  0.00  0.00    -0.007 A 
ATOM     15  C   UNL     1       6.858  -2.775  26.666  0.00  0.00    +0.011 A 
ATOM     16  C   UNL     1       6.187  -3.916  27.112  0.00  0.00    +0.046 A 
ATOM     17  C   UNL     1       6.848  -5.136  27.143  0.00  0.00    +0.117 A 
ATOM     18  C   UNL     1       8.179  -5.235  26.751  0.00  0.00    +0.046 A 
ATOM     19  C   UNL     1       8.850  -4.093  26.300  0.00  0.00    +0.011 A 
BRANCH  17  20
ATOM     20  O   UNL     1       6.144  -6.228  27.558  0.00  0.00    -0.507 OA
ATOM     21  H   UNL     1       5.254  -5.941  27.821  0.00  0.00    +0.292 HD
ENDBRANCH  17  20
ENDBRANCH   9  14
BRANCH   4  22
ATOM     22  O   UNL     1       9.924   4.171  23.397  0.00  0.00    -0.507 OA
ATOM     23  H   UNL     1      10.853   4.313  23.646  0.00  0.00    +0.292 HD
ENDBRANCH   4  22
BRANCH   6  24
ATOM     24  C   UNL     1       6.770   1.942  26.345  0.00  0.00    +0.198 C 
BRANCH  24  25
ATOM     25  O   UNL     1       7.175   2.214  27.692  0.00  0.00    -0.378 OA
ATOM     26  C   UNL     1       6.822   1.165  28.590  0.00  0.00    +0.194 C 
ENDBRANCH  24  25
ENDBRANCH   6  24
TORSDOF 5
ENDMDL
MODEL 3
REMARK VINA RESULT:      -6.8      1.979      4.239
REMARK  Name = 
REMARK  6 active torsions:
REMARK  status: ('A' for Active; 'I' for Inactive)
REMARK    1  A    between atoms: C_8  and  C_21
REMARK    2  A    between atoms: C_14  and  O_15
REMARK    3  A    between atoms: C_17  and  C_18
REMARK    4  A    between atoms: C_18  and  O_19
REMARK    5  A    between atoms: O_19  and  C_20
REMARK    6  A    between atoms: C_24  and  O_25
REMARK                            x       y       z     vdW  Elec       q    Type
REMARK                         _______ _______ _______ _____ _____    ______ ____
ROOT
ATOM      1  C   UNL     1       6.871  -2.098  26.783  0.00  0.00    +0.030 C 
ATOM      2  C   UNL     1       6.755  -3.458  26.134  0.00  0.00    +0.002 A 
ATOM      3  C   UNL     1       6.105  -4.502  26.815  0.00  0.00    +0.053 A 
ATOM      4  C   UNL     1       5.944  -5.741  26.207  0.00  0.00    +0.118 A 
ATOM      5  C   UNL     1       6.430  -5.969  24.929  0.00  0.00    +0.055 A 
ATOM      6  C   UNL     1       7.107  -4.951  24.237  0.00  0.00    +0.023 A 
ATOM      7  C   UNL     1       7.298  -3.707  24.862  0.00  0.00    +0.130 A 
ATOM      8  O   UNL     1       7.979  -2.752  24.147  0.00  0.00    -0.483 OA
ATOM      9  C   UNL     1       8.496  -1.662  24.923  0.00  0.00    +0.207 C 
ATOM     10  C   UNL     1       7.415  -1.046  25.815  0.00  0.00    +0.042 C 
ATOM     11  C   UNL     1       6.166  -0.551  25.070  0.00  0.00    +0.008 C 
ATOM     12  C   UNL     1       5.038  -0.614  26.088  0.00  0.00    +0.001 C 
ATOM     13  C   UNL     1       5.536  -1.489  27.237  0.00  0.00    +0.009 C 
ENDROOT
BRANCH   9  14
ATOM     14  C   UNL     1       9.109  -0.610  24.008  0.00  0.00    -0.007 A 
ATOM     15  C   UNL     1       8.970  -0.680  22.612  0.00  0.00    +0.011 A 
ATOM     16  C   UNL     1       9.460   0.341  21.794  0.00  0.00    +0.046 A 
ATOM     17  C   UNL     1      10.094   1.436  22.364  0.00  0.00    +0.117 A 
ATOM     18  C   UNL     1      10.266   1.521  23.742  0.00  0.00    +0.046 A 
ATOM     19  C   UNL     1       9.771   0.500  24.561  0.00  0.00    +0.011 A 
BRANCH  17  20
ATOM     20  O   UNL     1      10.530   2.422  21.529  0.00  0.00    -0.507 OA
ATOM     21  H   UNL     1      10.477   3.271  21.998  0.00  0.00    +0.292 HD
ENDBRANCH  17  20
ENDBRANCH   9  14
BRANCH   4  22
ATOM     22  O   UNL     1       5.289  -6.760  26.829  0.00  0.00    -0.507 OA
ATOM     23  H   UNL     1       4.353  -6.736  26.572  0.00  0.00    +0.292 HD
ENDBRANCH   4  22
BRANCH   6  24
ATOM     24  C   UNL     1       7.575  -5.220  22.828  0.00  0.00    +0.198 C 
BRANCH  24  25
ATOM     25  O   UNL     1       6.807  -6.256  22.205  0.00  0.00    -0.378 OA
ATOM     26  C   UNL     1       6.109  -5.797  21.050  0.00  0.00    +0.194 C 
ENDBRANCH  24  25
ENDBRANCH   6  24
TORSDOF 5
ENDMDL
MODEL 4
REMARK VINA RESULT:      -6.6      3.421      7.756
REMARK  Name = 
REMARK  6 active torsions:
REMARK  status: ('A' for Active; 'I' for Inactive)
REMARK    1  A    between atoms: C_8  and  C_21
REMARK    2  A    between atoms: C_14  and  O_15
REMARK    3  A    between atoms: C_17  and  C_18
REMARK    4  A    between atoms: C_18  and  O_19
REMARK    5  A    between atoms: O_19  and  C_20
REMARK    6  A    between atoms: C_24  and  O_25
REMARK                            x       y       z     vdW  Elec       q    Type
REMARK                         _______ _______ _______ _____ _____    ______ ____
ROOT
ATOM      1  C   UNL     1      10.176   1.285  23.435  0.00  0.00    +0.030 C 
ATOM      2  C   UNL     1       9.346   2.251  24.249  0.00  0.00    +0.002 A 
ATOM      3  C   UNL     1       9.494   3.635  24.053  0.00  0.00    +0.053 A 
ATOM      4  C   UNL     1       8.699   4.531  24.756  0.00  0.00    +0.118 A 
ATOM      5  C   UNL     1       7.758   4.076  25.667  0.00  0.00    +0.055 A 
ATOM      6  C   UNL     1       7.608   2.700  25.901  0.00  0.00    +0.023 A 
ATOM      7  C   UNL     1       8.433   1.792  25.214  0.00  0.00    +0.130 A 
ATOM      8  O   UNL     1       8.255   0.460  25.492  0.00  0.00    -0.483 OA
ATOM      9  C   UNL     1       9.337  -0.396  25.096  0.00  0.00    +0.207 C 
ATOM     10  C   UNL     1       9.729  -0.164  23.634  0.00  0.00    +0.042 C 
ATOM     11  C   UNL     1       8.586  -0.338  22.622  0.00  0.00    +0.008 C 
ATOM     12  C   UNL     1       8.965   0.531  21.433  0.00  0.00    +0.001 C 
ATOM     13  C   UNL     1      10.068   1.472  21.914  0.00  0.00    +0.009 C 
ENDROOT
BRANCH   9  14
ATOM     14  C   UNL     1       8.966  -1.855  25.333  0.00  0.00    -0.007 A 
ATOM     15  C   UNL     1       9.604  -2.897  24.640  0.00  0.00    +0.011 A 
ATOM     16  C   UNL     1       9.317  -4.231  24.936  0.00  0.00    +0.046 A 
ATOM     17  C   UNL     1       8.388  -4.533  25.923  0.00  0.00    +0.117 A 
ATOM     18  C   UNL     1       7.725  -3.522  26.609  0.00  0.00    +0.046 A 
ATOM     19  C   UNL     1       8.016  -2.185  26.316  0.00  0.00    +0.011 A 
BRANCH  17  20
ATOM     20  O   UNL     1       8.162  -5.850  26.198  0.00  0.00    -0.507 OA
ATOM     21  H   UNL     1       8.352  -6.370  25.400  0.00  0.00    +0.292 HD
ENDBRANCH  17  20
ENDBRANCH   9  14
BRANCH   4  22
ATOM     22  O   UNL     1       8.798   5.875  24.562  0.00  0.00    -0.507 OA
ATOM     23  H   UNL     1       9.733   6.107  24.436  0.00  0.00    +0.292 HD
ENDBRANCH   4  22
BRANCH   6  24
ATOM     24  C   UNL     1       6.538   2.240  26.861  0.00  0.00    +0.198 C 
BRANCH  24  25
ATOM     25  O   UNL     1       6.933   2.435  28.225  0.00  0.00    -0.378 OA
ATOM     26  C   UNL     1       7.169   1.205  28.905  0.00  0.00    +0.194 C 
ENDBRANCH  24  25
ENDBRANCH   6  24
TORSDOF 5
ENDMDL
MODEL 5
REMARK VINA RESULT:      -6.3      1.637      3.993
REMARK  Name = 
REMARK  6 active torsions:
REMARK  status: ('A' for Active; 'I' for Inactive)
REMARK    1  A    between atoms: C_8  and  C_21
REMARK    2  A    between atoms: C_14  and  O_15
REMARK    3  A    between atoms: C_17  and  C_18
REMARK    4  A    between atoms: C_18  and  O_19
REMARK    5  A    between atoms: O_19  and  C_20
REMARK    6  A    between atoms: C_24  and  O_25
REMARK                            x       y       z     vdW  Elec       q    Type
REMARK                         _______ _______ _______ _____ _____    ______ ____
ROOT
ATOM      1  C   UNL     1       5.952  -4.739  27.439  0.00  0.00    +0.030 C 
ATOM      2  C   UNL     1       5.487  -5.522  26.232  0.00  0.00    +0.002 A 
ATOM      3  C   UNL     1       4.582  -6.584  26.396  0.00  0.00    +0.053 A 
ATOM      4  C   UNL     1       4.106  -7.277  25.290  0.00  0.00    +0.118 A 
ATOM      5  C   UNL     1       4.524  -6.939  24.012  0.00  0.00    +0.055 A 
ATOM      6  C   UNL     1       5.448  -5.900  23.822  0.00  0.00    +0.023 A 
ATOM      7  C   UNL     1       5.955  -5.218  24.942  0.00  0.00    +0.130 A 
ATOM      8  O   UNL     1       6.867  -4.220  24.700  0.00  0.00    -0.483 OA
ATOM      9  C   UNL     1       7.646  -3.819  25.836  0.00  0.00    +0.207 C 
ATOM     10  C   UNL     1       6.759  -3.501  27.042  0.00  0.00    +0.042 C 
ATOM     11  C   UNL     1       5.688  -2.428  26.793  0.00  0.00    +0.008 C 
ATOM     12  C   UNL     1       4.576  -2.730  27.785  0.00  0.00    +0.001 C 
ATOM     13  C   UNL     1       4.820  -4.150  28.294  0.00  0.00    +0.009 C 
ENDROOT
BRANCH   9  14
ATOM     14  C   UNL     1       8.521  -2.623  25.476  0.00  0.00    -0.007 A 
ATOM     15  C   UNL     1       9.170  -2.535  24.234  0.00  0.00    +0.011 A 
ATOM     16  C   UNL     1       9.892  -1.392  23.886  0.00  0.00    +0.046 A 
ATOM     17  C   UNL     1       9.974  -0.331  24.778  0.00  0.00    +0.117 A 
ATOM     18  C   UNL     1       9.360  -0.399  26.024  0.00  0.00    +0.046 A 
ATOM     19  C   UNL     1       8.633  -1.543  26.370  0.00  0.00    +0.011 A 
BRANCH  17  20
ATOM     20  O   UNL     1      10.665   0.777  24.383  0.00  0.00    -0.507 OA
ATOM     21  H   UNL     1      11.408   0.496  23.825  0.00  0.00    +0.292 HD
ENDBRANCH  17  20
ENDBRANCH   9  14
BRANCH   4  22
ATOM     22  O   UNL     1       3.202  -8.288  25.417  0.00  0.00    -0.507 OA
ATOM     23  H   UNL     1       2.880  -8.308  26.334  0.00  0.00    +0.292 HD
ENDBRANCH   4  22
BRANCH   6  24
ATOM     24  C   UNL     1       5.840  -5.527  22.413  0.00  0.00    +0.198 C 
BRANCH  24  25
ATOM     25  O   UNL     1       4.998  -4.494  21.887  0.00  0.00    -0.378 OA
ATOM     26  C   UNL     1       5.680  -3.249  21.755  0.00  0.00    +0.194 C 
ENDBRANCH  24  25
ENDBRANCH   6  24
TORSDOF 5
ENDMDL
MODEL 6
REMARK VINA RESULT:      -6.3      1.722      6.423
REMARK  Name = 
REMARK  6 active torsions:
REMARK  status: ('A' for Active; 'I' for Inactive)
REMARK    1  A    between atoms: C_8  and  C_21
REMARK    2  A    between atoms: C_14  and  O_15
REMARK    3  A    between atoms: C_17  and  C_18
REMARK    4  A    between atoms: C_18  and  O_19
REMARK    5  A    between atoms: O_19  and  C_20
REMARK    6  A    between atoms: C_24  and  O_25
REMARK                            x       y       z     vdW  Elec       q    Type
REMARK                         _______ _______ _______ _____ _____    ______ ____
ROOT
ATOM      1  C   UNL     1       7.750  -3.896  23.026  0.00  0.00    +0.030 C 
ATOM      2  C   UNL     1       8.411  -2.681  23.637  0.00  0.00    +0.002 A 
ATOM      3  C   UNL     1       9.172  -1.820  22.828  0.00  0.00    +0.053 A 
ATOM      4  C   UNL     1       9.739  -0.672  23.367  0.00  0.00    +0.118 A 
ATOM      5  C   UNL     1       9.573  -0.365  24.709  0.00  0.00    +0.055 A 
ATOM      6  C   UNL     1       8.840  -1.222  25.545  0.00  0.00    +0.023 A 
ATOM      7  C   UNL     1       8.292  -2.400  25.010  0.00  0.00    +0.130 A 
ATOM      8  O   UNL     1       7.597  -3.210  25.874  0.00  0.00    -0.483 OA
ATOM      9  C   UNL     1       7.393  -4.555  25.419  0.00  0.00    +0.207 C 
ATOM     10  C   UNL     1       6.801  -4.586  24.007  0.00  0.00    +0.042 C 
ATOM     11  C   UNL     1       5.480  -3.820  23.842  0.00  0.00    +0.008 C 
ATOM     12  C   UNL     1       5.427  -3.418  22.376  0.00  0.00    +0.001 C 
ATOM     13  C   UNL     1       6.841  -3.593  21.825  0.00  0.00    +0.009 C 
ENDROOT
BRANCH   9  14
ATOM     14  C   UNL     1       6.501  -5.310  26.397  0.00  0.00    -0.007 A 
ATOM     15  C   UNL     1       5.450  -6.128  25.952  0.00  0.00    +0.011 A 
ATOM     16  C   UNL     1       4.702  -6.884  26.857  0.00  0.00    +0.046 A 
ATOM     17  C   UNL     1       4.996  -6.826  28.212  0.00  0.00    +0.117 A 
ATOM     18  C   UNL     1       6.018  -6.008  28.684  0.00  0.00    +0.046 A 
ATOM     19  C   UNL     1       6.770  -5.254  27.777  0.00  0.00    +0.011 A 
BRANCH  17  20
ATOM     20  O   UNL     1       4.259  -7.604  29.056  0.00  0.00    -0.507 OA
ATOM     21  H   UNL     1       3.533  -7.069  29.416  0.00  0.00    +0.292 HD
ENDBRANCH  17  20
ENDBRANCH   9  14
BRANCH   4  22
ATOM     22  O   UNL     1      10.453   0.197  22.599  0.00  0.00    -0.507 OA
ATOM     23  H   UNL     1      11.373   0.210  22.911  0.00  0.00    +0.292 HD
ENDBRANCH   4  22
BRANCH   6  24
ATOM     24  C   UNL     1       8.638  -0.829  26.988  0.00  0.00    +0.198 C 
BRANCH  24  25
ATOM     25  O   UNL     1       7.723   0.268  27.112  0.00  0.00    -0.378 OA
ATOM     26  C   UNL     1       6.394  -0.161  27.396  0.00  0.00    +0.194 C 
ENDBRANCH  24  25
ENDBRANCH   6  24
TORSDOF 5
ENDMDL
MODEL 7
REMARK VINA RESULT:      -6.2      3.226      7.603
REMARK  Name = 
REMARK  6 active torsions:
REMARK  status: ('A' for Active; 'I' for Inactive)
REMARK    1  A    between atoms: C_8  and  C_21
REMARK    2  A    between atoms: C_14  and  O_15
REMARK    3  A    between atoms: C_17  and  C_18
REMARK    4  A    between atoms: C_18  and  O_19
REMARK    5  A    between atoms: O_19  and  C_20
REMARK    6  A    between atoms: C_24  and  O_25
REMARK                            x       y       z     vdW  Elec       q    Type
REMARK                         _______ _______ _______ _____ _____    ______ ____
ROOT
ATOM      1  C   UNL     1       5.448   0.475  25.044  0.00  0.00    +0.030 C 
ATOM      2  C   UNL     1       6.084   1.263  23.922  0.00  0.00    +0.002 A 
ATOM      3  C   UNL     1       5.564   2.521  23.572  0.00  0.00    +0.053 A 
ATOM      4  C   UNL     1       6.173   3.279  22.580  0.00  0.00    +0.118 A 
ATOM      5  C   UNL     1       7.291   2.803  21.914  0.00  0.00    +0.055 A 
ATOM      6  C   UNL     1       7.815   1.538  22.225  0.00  0.00    +0.023 A 
ATOM      7  C   UNL     1       7.183   0.756  23.207  0.00  0.00    +0.130 A 
ATOM      8  O   UNL     1       7.727  -0.479  23.461  0.00  0.00    -0.483 OA
ATOM      9  C   UNL     1       6.866  -1.393  24.155  0.00  0.00    +0.207 C 
ATOM     10  C   UNL     1       6.273  -0.759  25.416  0.00  0.00    +0.042 C 
ATOM     11  C   UNL     1       7.307  -0.222  26.418  0.00  0.00    +0.008 C 
ATOM     12  C   UNL     1       6.592   0.881  27.183  0.00  0.00    +0.001 C 
ATOM     13  C   UNL     1       5.341   1.230  26.377  0.00  0.00    +0.009 C 
ENDROOT
BRANCH   9  14
ATOM     14  C   UNL     1       7.623  -2.671  24.496  0.00  0.00    -0.007 A 
ATOM     15  C   UNL     1       8.999  -2.799  24.244  0.00  0.00    +0.011 A 
ATOM     16  C   UNL     1       9.694  -3.942  24.645  0.00  0.00    +0.046 A 
ATOM     17  C   UNL     1       9.020  -4.965  25.297  0.00  0.00    +0.117 A 
ATOM     18  C   UNL     1       7.653  -4.876  25.539  0.00  0.00    +0.046 A 
ATOM     19  C   UNL     1       6.958  -3.729  25.141  0.00  0.00    +0.011 A 
BRANCH  17  20
ATOM     20  O   UNL     1       9.745  -6.049  25.697  0.00  0.00    -0.507 OA
ATOM     21  H   UNL     1       9.727  -6.712  24.988  0.00  0.00    +0.292 HD
ENDBRANCH  17  20
ENDBRANCH   9  14
BRANCH   4  22
ATOM     22  O   UNL     1       5.711   4.516  22.244  0.00  0.00    -0.507 OA
ATOM     23  H   UNL     1       4.965   4.417  21.630  0.00  0.00    +0.292 HD
ENDBRANCH   4  22
BRANCH   6  24
ATOM     24  C   UNL     1       9.063   1.076  21.515  0.00  0.00    +0.198 C 
BRANCH  24  25
ATOM     25  O   UNL     1      10.205   1.854  21.894  0.00  0.00    -0.378 OA
ATOM     26  C   UNL     1      10.543   1.691  23.269  0.00  0.00    +0.194 C 
ENDBRANCH  24  25
ENDBRANCH   6  24
TORSDOF 5
ENDMDL
MODEL 8
REMARK VINA RESULT:      -6.2      4.247      7.060
REMARK  Name = 
REMARK  6 active torsions:
REMARK  status: ('A' for Active; 'I' for Inactive)
REMARK    1  A    between atoms: C_8  and  C_21
REMARK    2  A    between atoms: C_14  and  O_15
REMARK    3  A    between atoms: C_17  and  C_18
REMARK    4  A    between atoms: C_18  and  O_19
REMARK    5  A    between atoms: O_19  and  C_20
REMARK    6  A    between atoms: C_24  and  O_25
REMARK                            x       y       z     vdW  Elec       q    Type
REMARK                         _______ _______ _______ _____ _____    ______ ____
ROOT
ATOM      1  C   UNL     1       6.245   2.629  24.530  0.00  0.00    +0.030 C 
ATOM      2  C   UNL     1       6.649   1.176  24.626  0.00  0.00    +0.002 A 
ATOM      3  C   UNL     1       5.679   0.198  24.905  0.00  0.00    +0.053 A 
ATOM      4  C   UNL     1       6.029  -1.146  24.942  0.00  0.00    +0.118 A 
ATOM      5  C   UNL     1       7.338  -1.541  24.716  0.00  0.00    +0.055 A 
ATOM      6  C   UNL     1       8.332  -0.583  24.462  0.00  0.00    +0.023 A 
ATOM      7  C   UNL     1       7.987   0.780  24.455  0.00  0.00    +0.130 A 
ATOM      8  O   UNL     1       9.001   1.674  24.215  0.00  0.00    -0.483 OA
ATOM      9  C   UNL     1       8.719   3.029  24.594  0.00  0.00    +0.207 C 
ATOM     10  C   UNL     1       7.385   3.509  24.016  0.00  0.00    +0.042 C 
ATOM     11  C   UNL     1       7.268   3.405  22.487  0.00  0.00    +0.008 C 
ATOM     12  C   UNL     1       5.779   3.277  22.204  0.00  0.00    +0.001 C 
ATOM     13  C   UNL     1       5.113   2.914  23.531  0.00  0.00    +0.009 C 
ENDROOT
BRANCH   9  14
ATOM     14  C   UNL     1       9.858   3.943  24.159  0.00  0.00    -0.007 A 
ATOM     15  C   UNL     1       9.843   5.320  24.438  0.00  0.00    +0.011 A 
ATOM     16  C   UNL     1      10.936   6.125  24.113  0.00  0.00    +0.046 A 
ATOM     17  C   UNL     1      12.050   5.563  23.504  0.00  0.00    +0.117 A 
ATOM     18  C   UNL     1      12.084   4.207  23.196  0.00  0.00    +0.046 A 
ATOM     19  C   UNL     1      10.990   3.399  23.526  0.00  0.00    +0.011 A 
BRANCH  17  20
ATOM     20  O   UNL     1      13.106   6.383  23.233  0.00  0.00    -0.507 OA
ATOM     21  H   UNL     1      13.543   6.067  22.425  0.00  0.00    +0.292 HD
ENDBRANCH  17  20
ENDBRANCH   9  14
BRANCH   4  22
ATOM     22  O   UNL     1       5.102  -2.116  25.177  0.00  0.00    -0.507 OA
ATOM     23  H   UNL     1       5.530  -2.853  25.644  0.00  0.00    +0.292 HD
ENDBRANCH   4  22
BRANCH   6  24
ATOM     24  C   UNL     1       9.735  -1.055  24.170  0.00  0.00    +0.198 C 
BRANCH  24  25
ATOM     25  O   UNL     1       9.790  -1.840  22.972  0.00  0.00    -0.378 OA
ATOM     26  C   UNL     1       9.770  -1.037  21.794  0.00  0.00    +0.194 C 
ENDBRANCH  24  25
ENDBRANCH   6  24
TORSDOF 5
ENDMDL
MODEL 9
REMARK VINA RESULT:      -6.1      2.545      7.388
REMARK  Name = 
REMARK  6 active torsions:
REMARK  status: ('A' for Active; 'I' for Inactive)
REMARK    1  A    between atoms: C_8  and  C_21
REMARK    2  A    between atoms: C_14  and  O_15
REMARK    3  A    between atoms: C_17  and  C_18
REMARK    4  A    between atoms: C_18  and  O_19
REMARK    5  A    between atoms: O_19  and  C_20
REMARK    6  A    between atoms: C_24  and  O_25
REMARK                            x       y       z     vdW  Elec       q    Type
REMARK                         _______ _______ _______ _____ _____    ______ ____
ROOT
ATOM      1  C   UNL     1       5.908   0.350  24.851  0.00  0.00    +0.030 C 
ATOM      2  C   UNL     1       7.044   0.618  23.891  0.00  0.00    +0.002 A 
ATOM      3  C   UNL     1       7.537   1.926  23.741  0.00  0.00    +0.053 A 
ATOM      4  C   UNL     1       8.616   2.175  22.903  0.00  0.00    +0.118 A 
ATOM      5  C   UNL     1       9.214   1.144  22.194  0.00  0.00    +0.055 A 
ATOM      6  C   UNL     1       8.724  -0.167  22.305  0.00  0.00    +0.023 A 
ATOM      7  C   UNL     1       7.613  -0.417  23.129  0.00  0.00    +0.130 A 
ATOM      8  O   UNL     1       7.166  -1.714  23.189  0.00  0.00    -0.483 OA
ATOM      9  C   UNL     1       5.835  -1.877  23.701  0.00  0.00    +0.207 C 
ATOM     10  C   UNL     1       5.653  -1.147  25.035  0.00  0.00    +0.042 C 
ATOM     11  C   UNL     1       6.643  -1.556  26.136  0.00  0.00    +0.008 C 
ATOM     12  C   UNL     1       6.745  -0.349  27.056  0.00  0.00    +0.001 C 
ATOM     13  C   UNL     1       6.157   0.835  26.288  0.00  0.00    +0.009 C 
ENDROOT
BRANCH   9  14
ATOM     14  C   UNL     1       5.505  -3.357  23.844  0.00  0.00    -0.007 A 
ATOM     15  C   UNL     1       4.257  -3.789  24.321  0.00  0.00    +0.011 A 
ATOM     16  C   UNL     1       3.939  -5.148  24.359  0.00  0.00    +0.046 A 
ATOM     17  C   UNL     1       4.867  -6.085  23.925  0.00  0.00    +0.117 A 
ATOM     18  C   UNL     1       6.119  -5.688  23.470  0.00  0.00    +0.046 A 
ATOM     19  C   UNL     1       6.436  -4.326  23.427  0.00  0.00    +0.011 A 
BRANCH  17  20
ATOM     20  O   UNL     1       4.502  -7.399  23.953  0.00  0.00    -0.507 OA
ATOM     21  H   UNL     1       4.942  -7.858  23.219  0.00  0.00    +0.292 HD
ENDBRANCH  17  20
ENDBRANCH   9  14
BRANCH   4  22
ATOM     22  O   UNL     1       9.136   3.427  22.764  0.00  0.00    -0.507 OA
ATOM     23  H   UNL     1       9.991   3.465  23.224  0.00  0.00    +0.292 HD
ENDBRANCH   4  22
BRANCH   6  24
ATOM     24  C   UNL     1       9.433  -1.270  21.559  0.00  0.00    +0.198 C 
BRANCH  24  25
ATOM     25  O   UNL     1      10.619  -1.693  22.244  0.00  0.00    -0.378 OA
ATOM     26  C   UNL     1      10.333  -2.326  23.489  0.00  0.00    +0.194 C 
ENDBRANCH  24  25
ENDBRANCH   6  24
TORSDOF 5
ENDMDL
