MODEL 1
REMARK VINA RESULT:      -7.2      0.000      0.000
REMARK  Name = 
REMARK  14 active torsions:
REMARK  status: ('A' for Active; 'I' for Inactive)
REMARK    1  A    between atoms: C_1  and  C_2
REMARK    2  A    between atoms: C_5  and  O_6
REMARK    3  A    between atoms: O_6  and  C_7
REMARK    4  A    between atoms: C_7  and  C_8
REMARK    5  A    between atoms: C_8  and  N_9
REMARK    6  A    between atoms: N_9  and  C_10
REMARK    7  A    between atoms: C_12  and  C_13
REMARK    8  A    between atoms: C_13  and  CA_14
REMARK    9  A    between atoms: CA_14  and  N_16
REMARK   10  A    between atoms: CA_14  and  C_17
REMARK   11  A    between atoms: C_17  and  O_18
REMARK   12  A    between atoms: C_20  and  O_21
REMARK   13  A    between atoms: C_23  and  O_24
REMARK   14  A    between atoms: C_25  and  C_26
REMARK                            x       y       z     vdW  Elec       q    Type
REMARK                         _______ _______ _______ _____ _____    ______ ____
ROOT
ATOM      1  C   UNL     1       6.348  -5.207  23.682  0.00  0.00    +0.074 A 
ATOM      2  C   UNL     1       5.309  -5.299  22.744  0.00  0.00    +0.141 A 
ATOM      3  C   UNL     1       3.983  -5.424  23.142  0.00  0.00    +0.093 A 
ATOM      4  C   UNL     1       3.665  -5.495  24.500  0.00  0.00    +0.124 A 
ATOM      5  C   UNL     1       4.666  -5.492  25.477  0.00  0.00    -0.002 A 
ATOM      6  C   UNL     1       6.006  -5.306  25.041  0.00  0.00    +0.034 A 
ENDROOT
BRANCH   1   7
ATOM      7  N   UNL     1       7.643  -4.860  23.216  0.00  0.00    -0.312 N 
ATOM      8  H   UNL     1       8.193  -5.704  23.040  0.00  0.00    +0.152 HD
BRANCH   7   9
ATOM      9  C   UNL     1       8.375  -3.730  23.536  0.00  0.00    +0.049 C 
ATOM     10  C   UNL     1       9.286  -3.698  24.529  0.00  0.00    +0.064 C 
BRANCH  10  11
ATOM     11  C   UNL     1       9.587  -4.859  25.391  0.00  0.00    +0.252 C 
ATOM     12  O   UNL     1       9.445  -4.788  26.608  0.00  0.00    -0.296 OA
ENDBRANCH  10  11
BRANCH   9  13
ATOM     13  C   UNL     1       8.158  -2.462  22.712  0.00  0.00    +0.279 C 
BRANCH  13  14
ATOM     14  O   UNL     1       9.408  -1.945  22.252  0.00  0.00    -0.486 OA
BRANCH  14  19
ATOM     15  C   UNL     1      10.950   3.405  23.431  0.00  0.00    +0.044 C 
ATOM     16  C   UNL     1      10.442   2.021  23.143  0.00  0.00    -0.050 A 
ATOM     17  C   UNL     1       9.808   1.749  21.927  0.00  0.00    +0.007 A 
ATOM     18  C   UNL     1       9.418   0.442  21.602  0.00  0.00    +0.046 A 
ATOM     19  C   UNL     1       9.659  -0.612  22.483  0.00  0.00    +0.121 A 
ATOM     20  C   UNL     1      10.256  -0.332  23.716  0.00  0.00    +0.046 A 
ATOM     21  C   UNL     1      10.635   0.975  24.050  0.00  0.00    +0.007 A 
ENDBRANCH  14  19
ENDBRANCH  13  14
ENDBRANCH   9  13
ENDBRANCH   7   9
ENDBRANCH   1   7
BRANCH   2  22
ATOM     22  O   UNL     1       5.627  -5.235  21.410  0.00  0.00    -0.505 OA
ATOM     23  H   UNL     1       6.524  -4.865  21.330  0.00  0.00    +0.292 HD
ENDBRANCH   2  22
BRANCH   4  24
ATOM     24  O   UNL     1       2.327  -5.524  24.753  0.00  0.00    -0.506 OA
ATOM     25  H   UNL     1       1.776  -5.359  23.963  0.00  0.00    +0.292 HD
ENDBRANCH   4  24
BRANCH   5  26
ATOM     26  C   UNL     1       4.397  -5.558  26.969  0.00  0.00    +0.068 C 
BRANCH  26  27
ATOM     27  CA  UNL     1       5.101  -6.626  27.837  0.00  0.00    +0.165 C 
BRANCH  27  28
ATOM     28  N   UNL     1       4.228  -7.450  28.712  0.00  0.00    -0.318 NA
ATOM     29  H1  UNL     1       3.278  -7.428  28.331  0.00  0.00    +0.119 HD
ATOM     30  H2  UNL     1       4.143  -6.979  29.621  0.00  0.00    +0.119 HD
ENDBRANCH  27  28
BRANCH  27  31
ATOM     31  C   UNL     1       6.260  -6.080  28.676  0.00  0.00    +0.322 C 
ATOM     32  OXT UNL     1       6.138  -5.550  29.771  0.00  0.00    -0.249 OA
BRANCH  31  33
ATOM     33  O   UNL     1       7.448  -6.222  28.035  0.00  0.00    -0.480 OA
ATOM     34  H   UNL     1       8.147  -6.288  28.731  0.00  0.00    +0.295 HD
ENDBRANCH  31  33
ENDBRANCH  27  31
ENDBRANCH  26  27
ENDBRANCH   5  26
TORSDOF 13
ENDMDL
MODEL 2
REMARK VINA RESULT:      -7.1      3.380      7.192
REMARK  Name = 
REMARK  14 active torsions:
REMARK  status: ('A' for Active; 'I' for Inactive)
REMARK    1  A    between atoms: C_1  and  C_2
REMARK    2  A    between atoms: C_5  and  O_6
REMARK    3  A    between atoms: O_6  and  C_7
REMARK    4  A    between atoms: C_7  and  C_8
REMARK    5  A    between atoms: C_8  and  N_9
REMARK    6  A    between atoms: N_9  and  C_10
REMARK    7  A    between atoms: C_12  and  C_13
REMARK    8  A    between atoms: C_13  and  CA_14
REMARK    9  A    between atoms: CA_14  and  N_16
REMARK   10  A    between atoms: CA_14  and  C_17
REMARK   11  A    between atoms: C_17  and  O_18
REMARK   12  A    between atoms: C_20  and  O_21
REMARK   13  A    between atoms: C_23  and  O_24
REMARK   14  A    between atoms: C_25  and  C_26
REMARK                            x       y       z     vdW  Elec       q    Type
REMARK                         _______ _______ _______ _____ _____    ______ ____
ROOT
ATOM      1  C   UNL     1       8.375  -2.658  23.060  0.00  0.00    +0.074 A 
ATOM      2  C   UNL     1       9.523  -2.509  23.851  0.00  0.00    +0.141 A 
ATOM      3  C   UNL     1       9.932  -1.260  24.307  0.00  0.00    +0.093 A 
ATOM      4  C   UNL     1       9.214  -0.117  23.949  0.00  0.00    +0.124 A 
ATOM      5  C   UNL     1       8.110  -0.196  23.093  0.00  0.00    -0.002 A 
ATOM      6  C   UNL     1       7.685  -1.490  22.692  0.00  0.00    +0.034 A 
ENDROOT
BRANCH   1   7
ATOM      7  N   UNL     1       7.894  -3.971  22.818  0.00  0.00    -0.312 N 
ATOM      8  H   UNL     1       7.898  -4.170  21.815  0.00  0.00    +0.152 HD
BRANCH   7   9
ATOM      9  C   UNL     1       6.957  -4.671  23.557  0.00  0.00    +0.049 C 
ATOM     10  C   UNL     1       6.070  -5.524  23.007  0.00  0.00    +0.064 C 
BRANCH  10  11
ATOM     11  C   UNL     1       5.993  -5.790  21.557  0.00  0.00    +0.252 C 
ATOM     12  O   UNL     1       5.867  -4.867  20.757  0.00  0.00    -0.296 OA
ENDBRANCH  10  11
BRANCH   9  13
ATOM     13  C   UNL     1       6.937  -4.485  25.074  0.00  0.00    +0.279 C 
BRANCH  13  14
ATOM     14  O   UNL     1       5.771  -3.765  25.475  0.00  0.00    -0.486 OA
BRANCH  14  19
ATOM     15  C   UNL     1       7.011   1.638  26.760  0.00  0.00    +0.044 C 
ATOM     16  C   UNL     1       6.608   0.216  26.498  0.00  0.00    -0.050 A 
ATOM     17  C   UNL     1       5.462  -0.058  25.745  0.00  0.00    +0.007 A 
ATOM     18  C   UNL     1       5.129  -1.377  25.406  0.00  0.00    +0.046 A 
ATOM     19  C   UNL     1       5.935  -2.440  25.810  0.00  0.00    +0.121 A 
ATOM     20  C   UNL     1       7.059  -2.169  26.597  0.00  0.00    +0.046 A 
ATOM     21  C   UNL     1       7.388  -0.854  26.949  0.00  0.00    +0.007 A 
ENDBRANCH  14  19
ENDBRANCH  13  14
ENDBRANCH   9  13
ENDBRANCH   7   9
ENDBRANCH   1   7
BRANCH   2  22
ATOM     22  O   UNL     1      10.229  -3.634  24.195  0.00  0.00    -0.505 OA
ATOM     23  H   UNL     1      10.255  -4.224  23.421  0.00  0.00    +0.292 HD
ENDBRANCH   2  22
BRANCH   4  24
ATOM     24  O   UNL     1       9.668   1.025  24.535  0.00  0.00    -0.506 OA
ATOM     25  H   UNL     1       9.605   1.016  25.511  0.00  0.00    +0.292 HD
ENDBRANCH   4  24
BRANCH   5  26
ATOM     26  C   UNL     1       7.278   1.000  22.668  0.00  0.00    +0.068 C 
BRANCH  26  27
ATOM     27  CA  UNL     1       7.944   2.185  21.932  0.00  0.00    +0.165 C 
BRANCH  27  28
ATOM     28  N   UNL     1       9.297   1.941  21.369  0.00  0.00    -0.318 NA
ATOM     29  H1  UNL     1       9.840   2.805  21.452  0.00  0.00    +0.119 HD
ATOM     30  H2  UNL     1       9.205   1.801  20.356  0.00  0.00    +0.119 HD
ENDBRANCH  27  28
BRANCH  27  31
ATOM     31  C   UNL     1       7.979   3.482  22.747  0.00  0.00    +0.322 C 
ATOM     32  OXT UNL     1       8.193   3.543  23.949  0.00  0.00    -0.249 OA
BRANCH  31  33
ATOM     33  O   UNL     1       7.702   4.562  21.973  0.00  0.00    -0.480 OA
ATOM     34  H   UNL     1       8.562   5.015  21.790  0.00  0.00    +0.295 HD
ENDBRANCH  31  33
ENDBRANCH  27  31
ENDBRANCH  26  27
ENDBRANCH   5  26
TORSDOF 13
ENDMDL
MODEL 3
REMARK VINA RESULT:      -7.1      2.890      7.058
REMARK  Name = 
REMARK  14 active torsions:
REMARK  status: ('A' for Active; 'I' for Inactive)
REMARK    1  A    between atoms: C_1  and  C_2
REMARK    2  A    between atoms: C_5  and  O_6
REMARK    3  A    between atoms: O_6  and  C_7
REMARK    4  A    between atoms: C_7  and  C_8
REMARK    5  A    between atoms: C_8  and  N_9
REMARK    6  A    between atoms: N_9  and  C_10
REMARK    7  A    between atoms: C_12  and  C_13
REMARK    8  A    between atoms: C_13  and  CA_14
REMARK    9  A    between atoms: CA_14  and  N_16
REMARK   10  A    between atoms: CA_14  and  C_17
REMARK   11  A    between atoms: C_17  and  O_18
REMARK   12  A    between atoms: C_20  and  O_21
REMARK   13  A    between atoms: C_23  and  O_24
REMARK   14  A    between atoms: C_25  and  C_26
REMARK                            x       y       z     vdW  Elec       q    Type
REMARK                         _______ _______ _______ _____ _____    ______ ____
ROOT
ATOM      1  C   UNL     1       7.317  -2.849  26.376  0.00  0.00    +0.074 A 
ATOM      2  C   UNL     1       7.474  -4.166  26.831  0.00  0.00    +0.141 A 
ATOM      3  C   UNL     1       8.481  -4.988  26.338  0.00  0.00    +0.093 A 
ATOM      4  C   UNL     1       9.342  -4.518  25.344  0.00  0.00    +0.124 A 
ATOM      5  C   UNL     1       9.182  -3.242  24.793  0.00  0.00    -0.002 A 
ATOM      6  C   UNL     1       8.180  -2.407  25.358  0.00  0.00    +0.034 A 
ENDROOT
BRANCH   1   7
ATOM      7  N   UNL     1       6.419  -2.001  27.075  0.00  0.00    -0.312 N 
ATOM      8  H   UNL     1       6.481  -2.173  28.081  0.00  0.00    +0.152 HD
BRANCH   7   9
ATOM      9  C   UNL     1       5.200  -1.521  26.629  0.00  0.00    +0.049 C 
ATOM     10  C   UNL     1       4.970  -0.219  26.369  0.00  0.00    +0.064 C 
BRANCH  10  11
ATOM     11  C   UNL     1       5.987   0.836  26.549  0.00  0.00    +0.252 C 
ATOM     12  O   UNL     1       7.023   0.826  25.891  0.00  0.00    -0.296 OA
ENDBRANCH  10  11
BRANCH   9  13
ATOM     13  C   UNL     1       4.064  -2.517  26.398  0.00  0.00    +0.279 C 
BRANCH  13  14
ATOM     14  O   UNL     1       3.806  -2.666  25.001  0.00  0.00    -0.486 OA
BRANCH  14  19
ATOM     15  C   UNL     1       7.444  -5.970  22.131  0.00  0.00    +0.044 C 
ATOM     16  C   UNL     1       6.404  -5.145  22.833  0.00  0.00    -0.050 A 
ATOM     17  C   UNL     1       5.657  -5.702  23.876  0.00  0.00    +0.007 A 
ATOM     18  C   UNL     1       4.756  -4.916  24.607  0.00  0.00    +0.046 A 
ATOM     19  C   UNL     1       4.588  -3.564  24.311  0.00  0.00    +0.121 A 
ATOM     20  C   UNL     1       5.305  -3.018  23.241  0.00  0.00    +0.046 A 
ATOM     21  C   UNL     1       6.197  -3.803  22.501  0.00  0.00    +0.007 A 
ENDBRANCH  14  19
ENDBRANCH  13  14
ENDBRANCH   9  13
ENDBRANCH   7   9
ENDBRANCH   1   7
BRANCH   2  22
ATOM     22  O   UNL     1       6.621  -4.627  27.803  0.00  0.00    -0.505 OA
ATOM     23  H   UNL     1       6.077  -5.336  27.417  0.00  0.00    +0.292 HD
ENDBRANCH   2  22
BRANCH   4  24
ATOM     24  O   UNL     1      10.337  -5.389  25.017  0.00  0.00    -0.506 OA
ATOM     25  H   UNL     1      10.012  -6.222  24.621  0.00  0.00    +0.292 HD
ENDBRANCH   4  24
BRANCH   5  26
ATOM     26  C   UNL     1      10.081  -2.660  23.719  0.00  0.00    +0.068 C 
BRANCH  26  27
ATOM     27  CA  UNL     1       9.625  -1.424  22.912  0.00  0.00    +0.165 C 
BRANCH  27  28
ATOM     28  N   UNL     1       9.777  -1.502  21.435  0.00  0.00    -0.318 NA
ATOM     29  H1  UNL     1      10.710  -1.160  21.190  0.00  0.00    +0.119 HD
ATOM     30  H2  UNL     1       9.141  -0.819  21.008  0.00  0.00    +0.119 HD
ENDBRANCH  27  28
BRANCH  27  31
ATOM     31  C   UNL     1      10.234  -0.105  23.397  0.00  0.00    +0.322 C 
ATOM     32  OXT UNL     1      10.642   0.098  24.531  0.00  0.00    -0.249 OA
BRANCH  31  33
ATOM     33  O   UNL     1      10.230   0.834  22.417  0.00  0.00    -0.480 OA
ATOM     34  H   UNL     1      10.232   1.718  22.862  0.00  0.00    +0.295 HD
ENDBRANCH  31  33
ENDBRANCH  27  31
ENDBRANCH  26  27
ENDBRANCH   5  26
TORSDOF 13
ENDMDL
MODEL 4
REMARK VINA RESULT:      -7.0      1.480      3.824
REMARK  Name = 
REMARK  14 active torsions:
REMARK  status: ('A' for Active; 'I' for Inactive)
REMARK    1  A    between atoms: C_1  and  C_2
REMARK    2  A    between atoms: C_5  and  O_6
REMARK    3  A    between atoms: O_6  and  C_7
REMARK    4  A    between atoms: C_7  and  C_8
REMARK    5  A    between atoms: C_8  and  N_9
REMARK    6  A    between atoms: N_9  and  C_10
REMARK    7  A    between atoms: C_12  and  C_13
REMARK    8  A    between atoms: C_13  and  CA_14
REMARK    9  A    between atoms: CA_14  and  N_16
REMARK   10  A    between atoms: CA_14  and  C_17
REMARK   11  A    between atoms: C_17  and  O_18
REMARK   12  A    between atoms: C_20  and  O_21
REMARK   13  A    between atoms: C_23  and  O_24
REMARK   14  A    between atoms: C_25  and  C_26
REMARK                            x       y       z     vdW  Elec       q    Type
REMARK                         _______ _______ _______ _____ _____    ______ ____
ROOT
ATOM      1  C   UNL     1       7.180  -5.012  25.158  0.00  0.00    +0.074 A 
ATOM      2  C   UNL     1       7.689  -5.266  26.440  0.00  0.00    +0.141 A 
ATOM      3  C   UNL     1       6.865  -5.693  27.475  0.00  0.00    +0.093 A 
ATOM      4  C   UNL     1       5.494  -5.844  27.260  0.00  0.00    +0.124 A 
ATOM      5  C   UNL     1       4.917  -5.526  26.025  0.00  0.00    -0.002 A 
ATOM      6  C   UNL     1       5.793  -5.147  24.972  0.00  0.00    +0.034 A 
ENDROOT
BRANCH   1   7
ATOM      7  N   UNL     1       8.102  -4.797  24.102  0.00  0.00    -0.312 N 
ATOM      8  H   UNL     1       8.916  -5.405  24.213  0.00  0.00    +0.152 HD
BRANCH   7   9
ATOM      9  C   UNL     1       8.333  -3.615  23.418  0.00  0.00    +0.049 C 
ATOM     10  C   UNL     1       7.609  -3.228  22.349  0.00  0.00    +0.064 C 
BRANCH  10  11
ATOM     11  C   UNL     1       6.504  -4.029  21.784  0.00  0.00    +0.252 C 
ATOM     12  O   UNL     1       5.344  -3.635  21.858  0.00  0.00    -0.296 OA
ENDBRANCH  10  11
BRANCH   9  13
ATOM     13  C   UNL     1       9.449  -2.694  23.908  0.00  0.00    +0.279 C 
BRANCH  13  14
ATOM     14  O   UNL     1       9.948  -1.897  22.832  0.00  0.00    -0.486 OA
BRANCH  14  19
ATOM     15  C   UNL     1      10.238   3.744  23.526  0.00  0.00    +0.044 C 
ATOM     16  C   UNL     1      10.269   2.253  23.343  0.00  0.00    -0.050 A 
ATOM     17  C   UNL     1      10.516   1.420  24.438  0.00  0.00    +0.007 A 
ATOM     18  C   UNL     1      10.449   0.026  24.305  0.00  0.00    +0.046 A 
ATOM     19  C   UNL     1      10.131  -0.555  23.078  0.00  0.00    +0.121 A 
ATOM     20  C   UNL     1       9.925   0.278  21.974  0.00  0.00    +0.046 A 
ATOM     21  C   UNL     1      10.004   1.670  22.101  0.00  0.00    +0.007 A 
ENDBRANCH  14  19
ENDBRANCH  13  14
ENDBRANCH   9  13
ENDBRANCH   7   9
ENDBRANCH   1   7
BRANCH   2  22
ATOM     22  O   UNL     1       9.036  -5.109  26.650  0.00  0.00    -0.505 OA
ATOM     23  H   UNL     1       9.370  -5.911  27.090  0.00  0.00    +0.292 HD
ENDBRANCH   2  22
BRANCH   4  24
ATOM     24  O   UNL     1       4.820  -6.354  28.328  0.00  0.00    -0.506 OA
ATOM     25  H   UNL     1       4.547  -7.285  28.210  0.00  0.00    +0.292 HD
ENDBRANCH   4  24
BRANCH   5  26
ATOM     26  C   UNL     1       3.440  -5.673  25.714  0.00  0.00    +0.068 C 
BRANCH  26  27
ATOM     27  CA  UNL     1       2.975  -6.618  24.583  0.00  0.00    +0.165 C 
BRANCH  27  28
ATOM     28  N   UNL     1       3.757  -7.869  24.400  0.00  0.00    -0.318 NA
ATOM     29  H1  UNL     1       4.001  -7.953  23.410  0.00  0.00    +0.119 HD
ATOM     30  H2  UNL     1       3.135  -8.667  24.572  0.00  0.00    +0.119 HD
ENDBRANCH  27  28
BRANCH  27  31
ATOM     31  C   UNL     1       2.824  -5.932  23.222  0.00  0.00    +0.322 C 
ATOM     32  OXT UNL     1       1.883  -5.220  22.901  0.00  0.00    -0.249 OA
BRANCH  31  33
ATOM     33  O   UNL     1       3.852  -6.244  22.392  0.00  0.00    -0.480 OA
ATOM     34  H   UNL     1       3.688  -7.161  22.059  0.00  0.00    +0.295 HD
ENDBRANCH  31  33
ENDBRANCH  27  31
ENDBRANCH  26  27
ENDBRANCH   5  26
TORSDOF 13
ENDMDL
MODEL 5
REMARK VINA RESULT:      -7.0      1.249      3.349
REMARK  Name = 
REMARK  14 active torsions:
REMARK  status: ('A' for Active; 'I' for Inactive)
REMARK    1  A    between atoms: C_1  and  C_2
REMARK    2  A    between atoms: C_5  and  O_6
REMARK    3  A    between atoms: O_6  and  C_7
REMARK    4  A    between atoms: C_7  and  C_8
REMARK    5  A    between atoms: C_8  and  N_9
REMARK    6  A    between atoms: N_9  and  C_10
REMARK    7  A    between atoms: C_12  and  C_13
REMARK    8  A    between atoms: C_13  and  CA_14
REMARK    9  A    between atoms: CA_14  and  N_16
REMARK   10  A    between atoms: CA_14  and  C_17
REMARK   11  A    between atoms: C_17  and  O_18
REMARK   12  A    between atoms: C_20  and  O_21
REMARK   13  A    between atoms: C_23  and  O_24
REMARK   14  A    between atoms: C_25  and  C_26
REMARK                            x       y       z     vdW  Elec       q    Type
REMARK                         _______ _______ _______ _____ _____    ______ ____
ROOT
ATOM      1  C   UNL     1       7.756  -4.576  24.625  0.00  0.00    +0.074 A 
ATOM      2  C   UNL     1       8.762  -5.084  25.460  0.00  0.00    +0.141 A 
ATOM      3  C   UNL     1       8.474  -5.555  26.736  0.00  0.00    +0.093 A 
ATOM      4  C   UNL     1       7.167  -5.497  27.224  0.00  0.00    +0.124 A 
ATOM      5  C   UNL     1       6.139  -4.924  26.468  0.00  0.00    -0.002 A 
ATOM      6  C   UNL     1       6.453  -4.505  25.148  0.00  0.00    +0.034 A 
ENDROOT
BRANCH   1   7
ATOM      7  N   UNL     1       8.079  -4.322  23.267  0.00  0.00    -0.312 N 
ATOM      8  H   UNL     1       9.092  -4.344  23.133  0.00  0.00    +0.152 HD
BRANCH   7   9
ATOM      9  C   UNL     1       7.380  -3.528  22.373  0.00  0.00    +0.049 C 
ATOM     10  C   UNL     1       6.421  -4.006  21.555  0.00  0.00    +0.064 C 
BRANCH  10  11
ATOM     11  C   UNL     1       6.026  -5.428  21.512  0.00  0.00    +0.252 C 
ATOM     12  O   UNL     1       6.869  -6.315  21.611  0.00  0.00    -0.296 OA
ENDBRANCH  10  11
BRANCH   9  13
ATOM     13  C   UNL     1       7.694  -2.034  22.325  0.00  0.00    +0.279 C 
BRANCH  13  14
ATOM     14  O   UNL     1       9.021  -1.786  22.793  0.00  0.00    -0.486 OA
BRANCH  14  19
ATOM     15  C   UNL     1      11.144   3.459  23.397  0.00  0.00    +0.044 C 
ATOM     16  C   UNL     1      10.485   2.118  23.243  0.00  0.00    -0.050 A 
ATOM     17  C   UNL     1       9.960   1.736  22.005  0.00  0.00    +0.007 A 
ATOM     18  C   UNL     1       9.433   0.450  21.820  0.00  0.00    +0.046 A 
ATOM     19  C   UNL     1       9.426  -0.473  22.865  0.00  0.00    +0.121 A 
ATOM     20  C   UNL     1       9.914  -0.076  24.113  0.00  0.00    +0.046 A 
ATOM     21  C   UNL     1      10.429   1.212  24.306  0.00  0.00    +0.007 A 
ENDBRANCH  14  19
ENDBRANCH  13  14
ENDBRANCH   9  13
ENDBRANCH   7   9
ENDBRANCH   1   7
BRANCH   2  22
ATOM     22  O   UNL     1      10.046  -5.134  24.979  0.00  0.00    -0.505 OA
ATOM     23  H   UNL     1      10.070  -4.661  24.128  0.00  0.00    +0.292 HD
ENDBRANCH   2  22
BRANCH   4  24
ATOM     24  O   UNL     1       7.008  -6.073  28.448  0.00  0.00    -0.506 OA
ATOM     25  H   UNL     1       6.439  -5.557  29.052  0.00  0.00    +0.292 HD
ENDBRANCH   4  24
BRANCH   5  26
ATOM     26  C   UNL     1       4.696  -4.833  26.927  0.00  0.00    +0.068 C 
BRANCH  26  27
ATOM     27  CA  UNL     1       3.792  -6.087  26.897  0.00  0.00    +0.165 C 
BRANCH  27  28
ATOM     28  N   UNL     1       4.185  -7.211  27.785  0.00  0.00    -0.318 NA
ATOM     29  H1  UNL     1       3.555  -7.998  27.606  0.00  0.00    +0.119 HD
ATOM     30  H2  UNL     1       3.981  -6.944  28.755  0.00  0.00    +0.119 HD
ENDBRANCH  27  28
BRANCH  27  31
ATOM     31  C   UNL     1       3.542  -6.639  25.490  0.00  0.00    +0.322 C 
ATOM     32  OXT UNL     1       3.184  -5.969  24.532  0.00  0.00    -0.249 OA
BRANCH  31  33
ATOM     33  O   UNL     1       3.729  -7.983  25.444  0.00  0.00    -0.480 OA
ATOM     34  H   UNL     1       3.190  -8.376  26.174  0.00  0.00    +0.295 HD
ENDBRANCH  31  33
ENDBRANCH  27  31
ENDBRANCH  26  27
ENDBRANCH   5  26
TORSDOF 13
ENDMDL
MODEL 6
REMARK VINA RESULT:      -6.9      3.889      6.662
REMARK  Name = 
REMARK  14 active torsions:
REMARK  status: ('A' for Active; 'I' for Inactive)
REMARK    1  A    between atoms: C_1  and  C_2
REMARK    2  A    between atoms: C_5  and  O_6
REMARK    3  A    between atoms: O_6  and  C_7
REMARK    4  A    between atoms: C_7  and  C_8
REMARK    5  A    between atoms: C_8  and  N_9
REMARK    6  A    between atoms: N_9  and  C_10
REMARK    7  A    between atoms: C_12  and  C_13
REMARK    8  A    between atoms: C_13  and  CA_14
REMARK    9  A    between atoms: CA_14  and  N_16
REMARK   10  A    between atoms: CA_14  and  C_17
REMARK   11  A    between atoms: C_17  and  O_18
REMARK   12  A    between atoms: C_20  and  O_21
REMARK   13  A    between atoms: C_23  and  O_24
REMARK   14  A    between atoms: C_25  and  C_26
REMARK                            x       y       z     vdW  Elec       q    Type
REMARK                         _______ _______ _______ _____ _____    ______ ____
ROOT
ATOM      1  C   UNL     1       7.074  -0.872  24.550  0.00  0.00    +0.074 A 
ATOM      2  C   UNL     1       7.548  -0.968  25.866  0.00  0.00    +0.141 A 
ATOM      3  C   UNL     1       7.675   0.156  26.674  0.00  0.00    +0.093 A 
ATOM      4  C   UNL     1       7.360   1.419  26.168  0.00  0.00    +0.124 A 
ATOM      5  C   UNL     1       6.962   1.585  24.836  0.00  0.00    -0.002 A 
ATOM      6  C   UNL     1       6.788   0.412  24.055  0.00  0.00    +0.034 A 
ENDROOT
BRANCH   1   7
ATOM      7  N   UNL     1       6.761  -2.073  23.861  0.00  0.00    -0.312 N 
ATOM      8  H   UNL     1       6.040  -2.593  24.367  0.00  0.00    +0.152 HD
BRANCH   7   9
ATOM      9  C   UNL     1       7.611  -2.841  23.085  0.00  0.00    +0.049 C 
ATOM     10  C   UNL     1       7.704  -4.181  23.197  0.00  0.00    +0.064 C 
BRANCH  10  11
ATOM     11  C   UNL     1       6.923  -4.970  24.171  0.00  0.00    +0.252 C 
ATOM     12  O   UNL     1       6.669  -4.518  25.283  0.00  0.00    -0.296 OA
ENDBRANCH  10  11
BRANCH   9  13
ATOM     13  C   UNL     1       8.472  -2.142  22.034  0.00  0.00    +0.279 C 
BRANCH  13  14
ATOM     14  O   UNL     1       9.768  -1.852  22.561  0.00  0.00    -0.486 OA
BRANCH  14  19
ATOM     15  C   UNL     1      10.411   3.717  23.539  0.00  0.00    +0.044 C 
ATOM     16  C   UNL     1      10.348   2.242  23.264  0.00  0.00    -0.050 A 
ATOM     17  C   UNL     1      10.726   1.330  24.254  0.00  0.00    +0.007 A 
ATOM     18  C   UNL     1      10.576  -0.049  24.049  0.00  0.00    +0.046 A 
ATOM     19  C   UNL     1      10.046  -0.536  22.855  0.00  0.00    +0.121 A 
ATOM     20  C   UNL     1       9.707   0.375  21.850  0.00  0.00    +0.046 A 
ATOM     21  C   UNL     1       9.866   1.752  22.046  0.00  0.00    +0.007 A 
ENDBRANCH  14  19
ENDBRANCH  13  14
ENDBRANCH   9  13
ENDBRANCH   7   9
ENDBRANCH   1   7
BRANCH   2  22
ATOM     22  O   UNL     1       7.863  -2.210  26.357  0.00  0.00    -0.505 OA
ATOM     23  H   UNL     1       7.400  -2.876  25.818  0.00  0.00    +0.292 HD
ENDBRANCH   2  22
BRANCH   4  24
ATOM     24  O   UNL     1       7.441   2.419  27.088  0.00  0.00    -0.506 OA
ATOM     25  H   UNL     1       7.837   2.138  27.937  0.00  0.00    +0.292 HD
ENDBRANCH   4  24
BRANCH   5  26
ATOM     26  C   UNL     1       6.596   2.922  24.219  0.00  0.00    +0.068 C 
BRANCH  26  27
ATOM     27  CA  UNL     1       5.924   2.976  22.828  0.00  0.00    +0.165 C 
BRANCH  27  28
ATOM     28  N   UNL     1       6.690   3.647  21.746  0.00  0.00    -0.318 NA
ATOM     29  H1  UNL     1       6.224   4.531  21.524  0.00  0.00    +0.119 HD
ATOM     30  H2  UNL     1       6.593   3.092  20.888  0.00  0.00    +0.119 HD
ENDBRANCH  27  28
BRANCH  27  31
ATOM     31  C   UNL     1       4.502   3.544  22.846  0.00  0.00    +0.322 C 
ATOM     32  OXT UNL     1       4.208   4.697  22.562  0.00  0.00    -0.249 OA
BRANCH  31  33
ATOM     33  O   UNL     1       3.601   2.616  23.258  0.00  0.00    -0.480 OA
ATOM     34  H   UNL     1       2.997   3.063  23.900  0.00  0.00    +0.295 HD
ENDBRANCH  31  33
ENDBRANCH  27  31
ENDBRANCH  26  27
ENDBRANCH   5  26
TORSDOF 13
ENDMDL
MODEL 7
REMARK VINA RESULT:      -6.8      1.558      2.253
REMARK  Name = 
REMARK  14 active torsions:
REMARK  status: ('A' for Active; 'I' for Inactive)
REMARK    1  A    between atoms: C_1  and  C_2
REMARK    2  A    between atoms: C_5  and  O_6
REMARK    3  A    between atoms: O_6  and  C_7
REMARK    4  A    between atoms: C_7  and  C_8
REMARK    5  A    between atoms: C_8  and  N_9
REMARK    6  A    between atoms: N_9  and  C_10
REMARK    7  A    between atoms: C_12  and  C_13
REMARK    8  A    between atoms: C_13  and  CA_14
REMARK    9  A    between atoms: CA_14  and  N_16
REMARK   10  A    between atoms: CA_14  and  C_17
REMARK   11  A    between atoms: C_17  and  O_18
REMARK   12  A    between atoms: C_20  and  O_21
REMARK   13  A    between atoms: C_23  and  O_24
REMARK   14  A    between atoms: C_25  and  C_26
REMARK                            x       y       z     vdW  Elec       q    Type
REMARK                         _______ _______ _______ _____ _____    ______ ____
ROOT
ATOM      1  C   UNL     1       6.361  -5.266  24.143  0.00  0.00    +0.074 A 
ATOM      2  C   UNL     1       5.577  -6.207  23.460  0.00  0.00    +0.141 A 
ATOM      3  C   UNL     1       4.362  -6.646  23.974  0.00  0.00    +0.093 A 
ATOM      4  C   UNL     1       3.915  -6.177  25.210  0.00  0.00    +0.124 A 
ATOM      5  C   UNL     1       4.694  -5.302  25.975  0.00  0.00    -0.002 A 
ATOM      6  C   UNL     1       5.903  -4.828  25.398  0.00  0.00    +0.034 A 
ENDROOT
BRANCH   1   7
ATOM      7  N   UNL     1       7.470  -4.699  23.464  0.00  0.00    -0.312 N 
ATOM      8  H   UNL     1       8.292  -5.299  23.566  0.00  0.00    +0.152 HD
BRANCH   7   9
ATOM      9  C   UNL     1       7.738  -3.355  23.271  0.00  0.00    +0.049 C 
ATOM     10  C   UNL     1       6.933  -2.537  22.565  0.00  0.00    +0.064 C 
BRANCH  10  11
ATOM     11  C   UNL     1       5.689  -2.990  21.909  0.00  0.00    +0.252 C 
ATOM     12  O   UNL     1       5.724  -3.826  21.012  0.00  0.00    -0.296 OA
ENDBRANCH  10  11
BRANCH   9  13
ATOM     13  C   UNL     1       8.995  -2.763  23.904  0.00  0.00    +0.279 C 
BRANCH  13  14
ATOM     14  O   UNL     1       9.813  -2.145  22.909  0.00  0.00    -0.486 OA
BRANCH  14  19
ATOM     15  C   UNL     1      10.779   3.440  23.423  0.00  0.00    +0.044 C 
ATOM     16  C   UNL     1      10.418   1.988  23.290  0.00  0.00    -0.050 A 
ATOM     17  C   UNL     1      10.008   1.480  22.054  0.00  0.00    +0.007 A 
ATOM     18  C   UNL     1       9.766   0.108  21.891  0.00  0.00    +0.046 A 
ATOM     19  C   UNL     1       9.933  -0.775  22.956  0.00  0.00    +0.121 A 
ATOM     20  C   UNL     1      10.303  -0.260  24.203  0.00  0.00    +0.046 A 
ATOM     21  C   UNL     1      10.534   1.111  24.373  0.00  0.00    +0.007 A 
ENDBRANCH  14  19
ENDBRANCH  13  14
ENDBRANCH   9  13
ENDBRANCH   7   9
ENDBRANCH   1   7
BRANCH   2  22
ATOM     22  O   UNL     1       6.022  -6.671  22.248  0.00  0.00    -0.505 OA
ATOM     23  H   UNL     1       6.545  -7.477  22.406  0.00  0.00    +0.292 HD
ENDBRANCH   2  22
BRANCH   4  24
ATOM     24  O   UNL     1       2.672  -6.616  25.552  0.00  0.00    -0.506 OA
ATOM     25  H   UNL     1       2.650  -7.109  26.396  0.00  0.00    +0.292 HD
ENDBRANCH   4  24
BRANCH   5  26
ATOM     26  C   UNL     1       4.272  -4.744  27.321  0.00  0.00    +0.068 C 
BRANCH  26  27
ATOM     27  CA  UNL     1       4.749  -5.422  28.626  0.00  0.00    +0.165 C 
BRANCH  27  28
ATOM     28  N   UNL     1       6.060  -4.975  29.166  0.00  0.00    -0.318 NA
ATOM     29  H1  UNL     1       5.896  -4.177  29.785  0.00  0.00    +0.119 HD
ATOM     30  H2  UNL     1       6.611  -4.583  28.393  0.00  0.00    +0.119 HD
ENDBRANCH  27  28
BRANCH  27  31
ATOM     31  C   UNL     1       4.739  -6.953  28.570  0.00  0.00    +0.322 C 
ATOM     32  OXT UNL     1       5.739  -7.657  28.577  0.00  0.00    -0.249 OA
BRANCH  31  33
ATOM     33  O   UNL     1       3.476  -7.438  28.472  0.00  0.00    -0.480 OA
ATOM     34  H   UNL     1       2.965  -6.805  27.910  0.00  0.00    +0.295 HD
ENDBRANCH  31  33
ENDBRANCH  27  31
ENDBRANCH  26  27
ENDBRANCH   5  26
TORSDOF 13
ENDMDL
MODEL 8
REMARK VINA RESULT:      -6.8      3.597      6.404
REMARK  Name = 
REMARK  14 active torsions:
REMARK  status: ('A' for Active; 'I' for Inactive)
REMARK    1  A    between atoms: C_1  and  C_2
REMARK    2  A    between atoms: C_5  and  O_6
REMARK    3  A    between atoms: O_6  and  C_7
REMARK    4  A    between atoms: C_7  and  C_8
REMARK    5  A    between atoms: C_8  and  N_9
REMARK    6  A    between atoms: N_9  and  C_10
REMARK    7  A    between atoms: C_12  and  C_13
REMARK    8  A    between atoms: C_13  and  CA_14
REMARK    9  A    between atoms: CA_14  and  N_16
REMARK   10  A    between atoms: CA_14  and  C_17
REMARK   11  A    between atoms: C_17  and  O_18
REMARK   12  A    between atoms: C_20  and  O_21
REMARK   13  A    between atoms: C_23  and  O_24
REMARK   14  A    between atoms: C_25  and  C_26
REMARK                            x       y       z     vdW  Elec       q    Type
REMARK                         _______ _______ _______ _____ _____    ______ ____
ROOT
ATOM      1  C   UNL     1       6.676   1.110  25.178  0.00  0.00    +0.074 A 
ATOM      2  C   UNL     1       7.452   0.779  26.298  0.00  0.00    +0.141 A 
ATOM      3  C   UNL     1       8.076  -0.459  26.406  0.00  0.00    +0.093 A 
ATOM      4  C   UNL     1       7.910  -1.415  25.402  0.00  0.00    +0.124 A 
ATOM      5  C   UNL     1       7.081  -1.171  24.302  0.00  0.00    -0.002 A 
ATOM      6  C   UNL     1       6.503   0.122  24.193  0.00  0.00    +0.034 A 
ENDROOT
BRANCH   1   7
ATOM      7  N   UNL     1       6.255   2.457  25.030  0.00  0.00    -0.312 N 
ATOM      8  H   UNL     1       5.262   2.545  25.259  0.00  0.00    +0.152 HD
BRANCH   7   9
ATOM      9  C   UNL     1       6.742   3.395  24.136  0.00  0.00    +0.049 C 
ATOM     10  C   UNL     1       6.056   3.805  23.050  0.00  0.00    +0.064 C 
BRANCH  10  11
ATOM     11  C   UNL     1       4.721   3.286  22.690  0.00  0.00    +0.252 C 
ATOM     12  O   UNL     1       3.864   3.112  23.550  0.00  0.00    -0.296 OA
ENDBRANCH  10  11
BRANCH   9  13
ATOM     13  C   UNL     1       8.114   4.013  24.401  0.00  0.00    +0.279 C 
BRANCH  13  14
ATOM     14  O   UNL     1       8.970   3.832  23.272  0.00  0.00    -0.486 OA
BRANCH  14  19
ATOM     15  C   UNL     1      10.509  -1.611  22.647  0.00  0.00    +0.044 C 
ATOM     16  C   UNL     1      10.182  -0.149  22.743  0.00  0.00    -0.050 A 
ATOM     17  C   UNL     1       9.448   0.471  21.727  0.00  0.00    +0.007 A 
ATOM     18  C   UNL     1       9.048   1.809  21.850  0.00  0.00    +0.046 A 
ATOM     19  C   UNL     1       9.372   2.546  22.989  0.00  0.00    +0.121 A 
ATOM     20  C   UNL     1      10.141   1.937  23.985  0.00  0.00    +0.046 A 
ATOM     21  C   UNL     1      10.553   0.605  23.860  0.00  0.00    +0.007 A 
ENDBRANCH  14  19
ENDBRANCH  13  14
ENDBRANCH   9  13
ENDBRANCH   7   9
ENDBRANCH   1   7
BRANCH   2  22
ATOM     22  O   UNL     1       7.607   1.719  27.286  0.00  0.00    -0.505 OA
ATOM     23  H   UNL     1       6.895   2.376  27.193  0.00  0.00    +0.292 HD
ENDBRANCH   2  22
BRANCH   4  24
ATOM     24  O   UNL     1       8.647  -2.545  25.588  0.00  0.00    -0.506 OA
ATOM     25  H   UNL     1       9.560  -2.478  25.244  0.00  0.00    +0.292 HD
ENDBRANCH   4  24
BRANCH   5  26
ATOM     26  C   UNL     1       6.859  -2.156  23.170  0.00  0.00    +0.068 C 
BRANCH  26  27
ATOM     27  CA  UNL     1       6.254  -3.549  23.462  0.00  0.00    +0.165 C 
BRANCH  27  28
ATOM     28  N   UNL     1       7.218  -4.657  23.688  0.00  0.00    -0.318 NA
ATOM     29  H1  UNL     1       8.159  -4.311  23.483  0.00  0.00    +0.119 HD
ATOM     30  H2  UNL     1       7.055  -5.378  22.975  0.00  0.00    +0.119 HD
ENDBRANCH  27  28
BRANCH  27  31
ATOM     31  C   UNL     1       5.216  -4.005  22.432  0.00  0.00    +0.322 C 
ATOM     32  OXT UNL     1       4.185  -4.603  22.700  0.00  0.00    -0.249 OA
BRANCH  31  33
ATOM     33  O   UNL     1       5.603  -3.696  21.168  0.00  0.00    -0.480 OA
ATOM     34  H   UNL     1       6.399  -3.114  21.242  0.00  0.00    +0.295 HD
ENDBRANCH  31  33
ENDBRANCH  27  31
ENDBRANCH  26  27
ENDBRANCH   5  26
TORSDOF 13
ENDMDL
MODEL 9
REMARK VINA RESULT:      -6.7      3.717      7.135
REMARK  Name = 
REMARK  14 active torsions:
REMARK  status: ('A' for Active; 'I' for Inactive)
REMARK    1  A    between atoms: C_1  and  C_2
REMARK    2  A    between atoms: C_5  and  O_6
REMARK    3  A    between atoms: O_6  and  C_7
REMARK    4  A    between atoms: C_7  and  C_8
REMARK    5  A    between atoms: C_8  and  N_9
REMARK    6  A    between atoms: N_9  and  C_10
REMARK    7  A    between atoms: C_12  and  C_13
REMARK    8  A    between atoms: C_13  and  CA_14
REMARK    9  A    between atoms: CA_14  and  N_16
REMARK   10  A    between atoms: CA_14  and  C_17
REMARK   11  A    between atoms: C_17  and  O_18
REMARK   12  A    between atoms: C_20  and  O_21
REMARK   13  A    between atoms: C_23  and  O_24
REMARK   14  A    between atoms: C_25  and  C_26
REMARK                            x       y       z     vdW  Elec       q    Type
REMARK                         _______ _______ _______ _____ _____    ______ ____
ROOT
ATOM      1  C   UNL     1       7.208   0.974  22.490  0.00  0.00    +0.074 A 
ATOM      2  C   UNL     1       8.433   1.361  21.926  0.00  0.00    +0.141 A 
ATOM      3  C   UNL     1       9.415   0.427  21.618  0.00  0.00    +0.093 A 
ATOM      4  C   UNL     1       9.208  -0.925  21.900  0.00  0.00    +0.124 A 
ATOM      5  C   UNL     1       8.040  -1.358  22.537  0.00  0.00    -0.002 A 
ATOM      6  C   UNL     1       7.033  -0.389  22.788  0.00  0.00    +0.034 A 
ENDROOT
BRANCH   1   7
ATOM      7  N   UNL     1       6.173   1.941  22.572  0.00  0.00    -0.312 N 
ATOM      8  H   UNL     1       6.140   2.497  21.715  0.00  0.00    +0.152 HD
BRANCH   7   9
ATOM      9  C   UNL     1       5.708   2.577  23.710  0.00  0.00    +0.049 C 
ATOM     10  C   UNL     1       5.634   3.917  23.828  0.00  0.00    +0.064 C 
BRANCH  10  11
ATOM     11  C   UNL     1       6.056   4.850  22.764  0.00  0.00    +0.252 C 
ATOM     12  O   UNL     1       7.223   4.879  22.384  0.00  0.00    -0.296 OA
ENDBRANCH  10  11
BRANCH   9  13
ATOM     13  C   UNL     1       5.235   1.720  24.883  0.00  0.00    +0.279 C 
BRANCH  13  14
ATOM     14  O   UNL     1       6.224   1.692  25.913  0.00  0.00    -0.486 OA
BRANCH  14  19
ATOM     15  C   UNL     1       8.502  -3.493  26.474  0.00  0.00    +0.044 C 
ATOM     16  C   UNL     1       7.930  -2.105  26.428  0.00  0.00    -0.050 A 
ATOM     17  C   UNL     1       8.777  -1.006  26.248  0.00  0.00    +0.007 A 
ATOM     18  C   UNL     1       8.249   0.285  26.101  0.00  0.00    +0.046 A 
ATOM     19  C   UNL     1       6.872   0.497  26.130  0.00  0.00    +0.121 A 
ATOM     20  C   UNL     1       6.029  -0.596  26.351  0.00  0.00    +0.046 A 
ATOM     21  C   UNL     1       6.552  -1.885  26.510  0.00  0.00    +0.007 A 
ENDBRANCH  14  19
ENDBRANCH  13  14
ENDBRANCH   9  13
ENDBRANCH   7   9
ENDBRANCH   1   7
BRANCH   2  22
ATOM     22  O   UNL     1       8.635   2.691  21.657  0.00  0.00    -0.505 OA
ATOM     23  H   UNL     1       9.585   2.826  21.493  0.00  0.00    +0.292 HD
ENDBRANCH   2  22
BRANCH   4  24
ATOM     24  O   UNL     1      10.209  -1.739  21.466  0.00  0.00    -0.506 OA
ATOM     25  H   UNL     1      10.913  -1.268  20.978  0.00  0.00    +0.292 HD
ENDBRANCH   4  24
BRANCH   5  26
ATOM     26  C   UNL     1       7.742  -2.809  22.868  0.00  0.00    +0.068 C 
BRANCH  26  27
ATOM     27  CA  UNL     1       6.840  -3.647  21.933  0.00  0.00    +0.165 C 
BRANCH  27  28
ATOM     28  N   UNL     1       5.375  -3.430  22.053  0.00  0.00    -0.318 NA
ATOM     29  H1  UNL     1       5.173  -3.123  23.008  0.00  0.00    +0.119 HD
ATOM     30  H2  UNL     1       4.906  -4.340  21.979  0.00  0.00    +0.119 HD
ENDBRANCH  27  28
BRANCH  27  31
ATOM     31  C   UNL     1       7.118  -5.152  21.987  0.00  0.00    +0.322 C 
ATOM     32  OXT UNL     1       6.771  -5.956  21.133  0.00  0.00    -0.249 OA
BRANCH  31  33
ATOM     33  O   UNL     1       7.767  -5.497  23.128  0.00  0.00    -0.480 OA
ATOM     34  H   UNL     1       8.365  -6.253  22.904  0.00  0.00    +0.295 HD
ENDBRANCH  31  33
ENDBRANCH  27  31
ENDBRANCH  26  27
ENDBRANCH   5  26
TORSDOF 13
ENDMDL
