MODEL 1
REMARK VINA RESULT:      -6.5      0.000      0.000
REMARK  Name = 
REMARK  24 active torsions:
REMARK  status: ('A' for Active; 'I' for Inactive)
REMARK    1  A    between atoms: C_1  and  C_2
REMARK    2  A    between atoms: C_2  and  O_3
REMARK    3  A    between atoms: O_3  and  C_4
REMARK    4  A    between atoms: C_4  and  C_6
REMARK    5  A    between atoms: C_7  and  C_8
REMARK    6  A    between atoms: C_8  and  C_10
REMARK    7  A    between atoms: C_8  and  N_18
REMARK    8  A    between atoms: C_10  and  C_11
REMARK    9  A    between atoms: C_19  and  C_21
REMARK   10  A    between atoms: C_21  and  C_23
REMARK   11  A    between atoms: C_21  and  N_27
REMARK   12  A    between atoms: C_23  and  C_24
REMARK   13  A    between atoms: C_24  and  C_25
REMARK   14  A    between atoms: C_24  and  C_26
REMARK   15  A    between atoms: C_28  and  C_30
REMARK   16  A    between atoms: C_30  and  C_32
REMARK   17  A    between atoms: C_30  and  N_35
REMARK   18  A    between atoms: C_32  and  C_33
REMARK   19  A    between atoms: C_32  and  C_34
REMARK   20  A    between atoms: C_36  and  C_38
REMARK   21  A    between atoms: C_38  and  C_40
REMARK   22  A    between atoms: C_38  and  N_41
REMARK   23  A    between atoms: C_42  and  C_44
REMARK   24  A    between atoms: C_47  and  C_48
REMARK                            x       y       z     vdW  Elec       q    Type
REMARK                         _______ _______ _______ _____ _____    ______ ____
ROOT
ATOM      1  C   UNL     1       5.941   2.918  22.704  0.00  0.00    +0.159 C 
ENDROOT
BRANCH   1   2
ATOM      2  N   UNL     1       5.515   3.022  24.107  0.00  0.00    -0.302 N 
ATOM      3  H   UNL     1       6.264   3.178  24.765  0.00  0.00    +0.150 HD
ATOM      4  C   UNL     1       4.206   2.880  24.510  0.00  0.00    +0.234 C 
ATOM      5  O   UNL     1       3.304   2.750  23.683  0.00  0.00    -0.274 OA
BRANCH   4   6
ATOM      6  C   UNL     1       3.911   2.948  26.041  0.00  0.00    +0.161 C 
BRANCH   6   7
ATOM      7  N   UNL     1       3.796   1.626  26.669  0.00  0.00    -0.302 N 
ATOM      8  H   UNL     1       2.906   1.287  27.004  0.00  0.00    +0.150 HD
ATOM      9  C   UNL     1       4.830   0.716  26.707  0.00  0.00    +0.234 C 
ATOM     10  O   UNL     1       5.957   0.976  26.287  0.00  0.00    -0.274 OA
BRANCH   9  11
ATOM     11  C   UNL     1       4.512  -0.592  27.473  0.00  0.00    +0.156 C 
ATOM     12  C   UNL     1       4.174  -0.308  28.934  0.00  0.00    +0.038 C 
BRANCH  11  13
ATOM     13  N   UNL     1       5.519  -1.640  27.304  0.00  0.00    -0.299 N 
ATOM     14  H   UNL     1       6.484  -1.376  27.108  0.00  0.00    +0.150 HD
ATOM     15  C   UNL     1       5.228  -2.986  27.228  0.00  0.00    +0.266 C 
ATOM     16  O   UNL     1       4.088  -3.426  27.353  0.00  0.00    -0.268 OA
BRANCH  15  17
ATOM     17  C   UNL     1       6.384  -3.860  27.078  0.00  0.00    +0.168 A 
ATOM     18  C   UNL     1       7.369  -3.794  26.067  0.00  0.00    +0.080 A 
ATOM     19  C   UNL     1       8.191  -4.863  26.307  0.00  0.00    +0.135 A 
ATOM     20  C   UNL     1       9.391  -5.392  25.635  0.00  0.00    +0.089 C 
ATOM     21  O   UNL     1       7.745  -5.530  27.405  0.00  0.00    -0.359 OA
ATOM     22  N   UNL     1       6.613  -4.900  27.902  0.00  0.00    -0.073 NA
ENDBRANCH  15  17
ENDBRANCH  11  13
ENDBRANCH   9  11
ENDBRANCH   6   7
BRANCH   6  23
ATOM     23  C   UNL     1       4.852   3.899  26.836  0.00  0.00    +0.012 C 
ATOM     24  C   UNL     1       4.659   3.798  28.353  0.00  0.00    +0.009 C 
ATOM     25  C   UNL     1       4.785   5.362  26.399  0.00  0.00    +0.009 C 
ENDBRANCH   6  23
ENDBRANCH   4   6
ENDBRANCH   1   2
BRANCH   1  28
ATOM     26  N   UNL     1       6.507   0.591  23.434  0.00  0.00    -0.307 N 
ATOM     27  H   UNL     1       5.881   0.744  24.217  0.00  0.00    +0.149 HD
ATOM     28  C   UNL     1       6.782   1.622  22.556  0.00  0.00    +0.234 C 
ATOM     29  O   UNL     1       7.665   1.542  21.696  0.00  0.00    -0.274 OA
BRANCH  26  30
ATOM     30  C   UNL     1       7.268  -0.648  23.409  0.00  0.00    +0.097 C 
BRANCH  30  32
ATOM     31  C   UNL     1       6.182  -2.629  22.234  0.00  0.00    +0.089 C 
ATOM     32  C   UNL     1       6.362  -1.837  23.301  0.00  0.00    +0.002 C 
BRANCH  31  33
ATOM     33  C   UNL     1       5.320  -3.821  22.359  0.00  0.00    +0.332 C 
ATOM     34  O   UNL     1       4.604  -4.076  23.314  0.00  0.00    -0.246 OA
BRANCH  33  35
ATOM     35  O   UNL     1       5.597  -4.632  21.309  0.00  0.00    -0.462 OA
BRANCH  35  37
ATOM     36  C   UNL     1       7.349  -6.001  22.150  0.00  0.00    +0.048 C 
ATOM     37  C   UNL     1       5.908  -5.983  21.672  0.00  0.00    +0.229 C 
ENDBRANCH  35  37
ENDBRANCH  33  35
ENDBRANCH  31  33
ENDBRANCH  30  32
BRANCH  30  38
ATOM     38  C   UNL     1       8.243  -0.761  24.602  0.00  0.00    +0.039 C 
BRANCH  38  39
ATOM     39  C   UNL     1       9.736  -0.927  24.265  0.00  0.00    +0.078 C 
ATOM     40  C   UNL     1      10.060  -0.781  22.791  0.00  0.00    +0.216 C 
ATOM     41  O   UNL     1      10.025  -1.666  21.956  0.00  0.00    -0.276 OA
ATOM     42  N   UNL     1      10.380   0.536  22.545  0.00  0.00    -0.315 N 
ATOM     43  H   UNL     1      10.607   0.857  21.610  0.00  0.00    +0.149 HD
ATOM     44  C   UNL     1      10.480   1.310  23.744  0.00  0.00    +0.105 C 
ATOM     45  C   UNL     1      10.556   0.248  24.830  0.00  0.00    +0.031 C 
ENDBRANCH  38  39
ENDBRANCH  30  38
ENDBRANCH  26  30
ENDBRANCH   1  28
BRANCH   1  46
ATOM     46  C   UNL     1       6.635   4.205  22.230  0.00  0.00    +0.034 C 
BRANCH  46  47
ATOM     47  C   UNL     1       7.290   5.074  23.327  0.00  0.00    -0.015 C 
ATOM     48  C   UNL     1       7.348   6.531  22.858  0.00  0.00    +0.007 C 
ATOM     49  C   UNL     1       8.694   4.617  23.710  0.00  0.00    +0.007 C 
ENDBRANCH  46  47
ENDBRANCH   1  46
TORSDOF 17
ENDMDL
MODEL 2
REMARK VINA RESULT:      -5.8      1.811      4.060
REMARK  Name = 
REMARK  24 active torsions:
REMARK  status: ('A' for Active; 'I' for Inactive)
REMARK    1  A    between atoms: C_1  and  C_2
REMARK    2  A    between atoms: C_2  and  O_3
REMARK    3  A    between atoms: O_3  and  C_4
REMARK    4  A    between atoms: C_4  and  C_6
REMARK    5  A    between atoms: C_7  and  C_8
REMARK    6  A    between atoms: C_8  and  C_10
REMARK    7  A    between atoms: C_8  and  N_18
REMARK    8  A    between atoms: C_10  and  C_11
REMARK    9  A    between atoms: C_19  and  C_21
REMARK   10  A    between atoms: C_21  and  C_23
REMARK   11  A    between atoms: C_21  and  N_27
REMARK   12  A    between atoms: C_23  and  C_24
REMARK   13  A    between atoms: C_24  and  C_25
REMARK   14  A    between atoms: C_24  and  C_26
REMARK   15  A    between atoms: C_28  and  C_30
REMARK   16  A    between atoms: C_30  and  C_32
REMARK   17  A    between atoms: C_30  and  N_35
REMARK   18  A    between atoms: C_32  and  C_33
REMARK   19  A    between atoms: C_32  and  C_34
REMARK   20  A    between atoms: C_36  and  C_38
REMARK   21  A    between atoms: C_38  and  C_40
REMARK   22  A    between atoms: C_38  and  N_41
REMARK   23  A    between atoms: C_42  and  C_44
REMARK   24  A    between atoms: C_47  and  C_48
REMARK                            x       y       z     vdW  Elec       q    Type
REMARK                         _______ _______ _______ _____ _____    ______ ____
ROOT
ATOM      1  C   UNL     1       8.644   0.484  22.109  0.00  0.00    +0.159 C 
ENDROOT
BRANCH   1   2
ATOM      2  N   UNL     1       7.604   1.122  22.928  0.00  0.00    -0.302 N 
ATOM      3  H   UNL     1       7.422   0.667  23.809  0.00  0.00    +0.150 HD
ATOM      4  C   UNL     1       6.896   2.231  22.519  0.00  0.00    +0.234 C 
ATOM      5  O   UNL     1       7.178   2.803  21.467  0.00  0.00    -0.274 OA
BRANCH   4   6
ATOM      6  C   UNL     1       5.774   2.759  23.465  0.00  0.00    +0.161 C 
BRANCH   6   7
ATOM      7  N   UNL     1       5.827   2.175  24.812  0.00  0.00    -0.302 N 
ATOM      8  H   UNL     1       6.711   2.008  25.270  0.00  0.00    +0.150 HD
ATOM      9  C   UNL     1       4.708   1.961  25.585  0.00  0.00    +0.234 C 
ATOM     10  O   UNL     1       3.567   2.170  25.173  0.00  0.00    -0.274 OA
BRANCH   9  11
ATOM     11  C   UNL     1       4.983   1.277  26.947  0.00  0.00    +0.156 C 
ATOM     12  C   UNL     1       6.460   1.368  27.321  0.00  0.00    +0.038 C 
BRANCH  11  13
ATOM     13  N   UNL     1       4.441  -0.078  27.054  0.00  0.00    -0.299 N 
ATOM     14  H   UNL     1       4.048  -0.388  27.941  0.00  0.00    +0.150 HD
ATOM     15  C   UNL     1       4.568  -1.039  26.073  0.00  0.00    +0.266 C 
ATOM     16  O   UNL     1       5.105  -0.818  24.992  0.00  0.00    -0.268 OA
BRANCH  15  17
ATOM     17  C   UNL     1       3.934  -2.316  26.376  0.00  0.00    +0.168 A 
ATOM     18  C   UNL     1       4.261  -3.191  27.437  0.00  0.00    +0.080 A 
ATOM     19  C   UNL     1       3.450  -4.281  27.256  0.00  0.00    +0.135 A 
ATOM     20  C   UNL     1       3.285  -5.554  27.978  0.00  0.00    +0.089 C 
ATOM     21  O   UNL     1       2.668  -4.077  26.162  0.00  0.00    -0.359 OA
ATOM     22  N   UNL     1       2.960  -2.839  25.608  0.00  0.00    -0.073 NA
ENDBRANCH  15  17
ENDBRANCH  11  13
ENDBRANCH   9  11
ENDBRANCH   6   7
BRANCH   6  23
ATOM     23  C   UNL     1       5.638   4.309  23.499  0.00  0.00    +0.012 C 
ATOM     24  C   UNL     1       6.171   4.927  24.796  0.00  0.00    +0.009 C 
ATOM     25  C   UNL     1       4.227   4.825  23.219  0.00  0.00    +0.009 C 
ENDBRANCH   6  23
ENDBRANCH   4   6
ENDBRANCH   1   2
BRANCH   1  28
ATOM     26  N   UNL     1       7.697  -1.489  23.324  0.00  0.00    -0.307 N 
ATOM     27  H   UNL     1       7.070  -0.836  23.781  0.00  0.00    +0.149 HD
ATOM     28  C   UNL     1       8.685  -1.023  22.478  0.00  0.00    +0.234 C 
ATOM     29  O   UNL     1       9.579  -1.752  22.039  0.00  0.00    -0.274 OA
BRANCH  26  30
ATOM     30  C   UNL     1       7.672  -2.873  23.769  0.00  0.00    +0.097 C 
BRANCH  30  32
ATOM     31  C   UNL     1       6.123  -4.824  23.235  0.00  0.00    +0.089 C 
ATOM     32  C   UNL     1       6.779  -3.704  22.897  0.00  0.00    +0.002 C 
BRANCH  31  33
ATOM     33  C   UNL     1       5.204  -5.442  22.259  0.00  0.00    +0.332 C 
ATOM     34  O   UNL     1       5.540  -5.982  21.218  0.00  0.00    -0.246 OA
BRANCH  33  35
ATOM     35  O   UNL     1       3.940  -5.155  22.656  0.00  0.00    -0.462 OA
BRANCH  35  37
ATOM     36  C   UNL     1       1.912  -6.379  22.852  0.00  0.00    +0.048 C 
ATOM     37  C   UNL     1       3.309  -6.193  23.415  0.00  0.00    +0.229 C 
ENDBRANCH  35  37
ENDBRANCH  33  35
ENDBRANCH  31  33
ENDBRANCH  30  32
BRANCH  30  38
ATOM     38  C   UNL     1       7.314  -3.003  25.265  0.00  0.00    +0.039 C 
BRANCH  38  39
ATOM     39  C   UNL     1       8.391  -3.603  26.188  0.00  0.00    +0.078 C 
ATOM     40  C   UNL     1       7.991  -4.913  26.839  0.00  0.00    +0.216 C 
ATOM     41  O   UNL     1       7.376  -5.039  27.883  0.00  0.00    -0.276 OA
ATOM     42  N   UNL     1       8.421  -5.947  26.036  0.00  0.00    -0.315 N 
ATOM     43  H   UNL     1       8.233  -6.914  26.278  0.00  0.00    +0.149 HD
ATOM     44  C   UNL     1       9.242  -5.496  24.955  0.00  0.00    +0.105 C 
ATOM     45  C   UNL     1       9.606  -4.079  25.369  0.00  0.00    +0.031 C 
ENDBRANCH  38  39
ENDBRANCH  30  38
ENDBRANCH  26  30
ENDBRANCH   1  28
BRANCH   1  46
ATOM     46  C   UNL     1       9.987   1.224  22.230  0.00  0.00    +0.034 C 
BRANCH  46  47
ATOM     47  C   UNL     1      10.320   1.817  23.617  0.00  0.00    -0.015 C 
ATOM     48  C   UNL     1      11.040   3.156  23.441  0.00  0.00    +0.007 C 
ATOM     49  C   UNL     1      11.177   0.899  24.484  0.00  0.00    +0.007 C 
ENDBRANCH  46  47
ENDBRANCH   1  46
TORSDOF 17
ENDMDL
MODEL 3
REMARK VINA RESULT:      -5.8      2.252      7.513
REMARK  Name = 
REMARK  24 active torsions:
REMARK  status: ('A' for Active; 'I' for Inactive)
REMARK    1  A    between atoms: C_1  and  C_2
REMARK    2  A    between atoms: C_2  and  O_3
REMARK    3  A    between atoms: O_3  and  C_4
REMARK    4  A    between atoms: C_4  and  C_6
REMARK    5  A    between atoms: C_7  and  C_8
REMARK    6  A    between atoms: C_8  and  C_10
REMARK    7  A    between atoms: C_8  and  N_18
REMARK    8  A    between atoms: C_10  and  C_11
REMARK    9  A    between atoms: C_19  and  C_21
REMARK   10  A    between atoms: C_21  and  C_23
REMARK   11  A    between atoms: C_21  and  N_27
REMARK   12  A    between atoms: C_23  and  C_24
REMARK   13  A    between atoms: C_24  and  C_25
REMARK   14  A    between atoms: C_24  and  C_26
REMARK   15  A    between atoms: C_28  and  C_30
REMARK   16  A    between atoms: C_30  and  C_32
REMARK   17  A    between atoms: C_30  and  N_35
REMARK   18  A    between atoms: C_32  and  C_33
REMARK   19  A    between atoms: C_32  and  C_34
REMARK   20  A    between atoms: C_36  and  C_38
REMARK   21  A    between atoms: C_38  and  C_40
REMARK   22  A    between atoms: C_38  and  N_41
REMARK   23  A    between atoms: C_42  and  C_44
REMARK   24  A    between atoms: C_47  and  C_48
REMARK                            x       y       z     vdW  Elec       q    Type
REMARK                         _______ _______ _______ _____ _____    ______ ____
ROOT
ATOM      1  C   UNL     1       5.401  -3.967  27.781  0.00  0.00    +0.159 C 
ENDROOT
BRANCH   1   2
ATOM      2  N   UNL     1       4.912  -2.640  27.382  0.00  0.00    -0.302 N 
ATOM      3  H   UNL     1       5.064  -2.409  26.412  0.00  0.00    +0.150 HD
ATOM      4  C   UNL     1       4.326  -1.757  28.261  0.00  0.00    +0.234 C 
ATOM      5  O   UNL     1       4.097  -2.086  29.424  0.00  0.00    -0.274 OA
BRANCH   4   6
ATOM      6  C   UNL     1       3.916  -0.356  27.709  0.00  0.00    +0.161 C 
BRANCH   6   7
ATOM      7  N   UNL     1       4.478  -0.067  26.383  0.00  0.00    -0.302 N 
ATOM      8  H   UNL     1       4.217  -0.618  25.579  0.00  0.00    +0.150 HD
ATOM      9  C   UNL     1       5.259   1.036  26.119  0.00  0.00    +0.234 C 
ATOM     10  O   UNL     1       5.612   1.824  26.996  0.00  0.00    -0.274 OA
BRANCH   9  11
ATOM     11  C   UNL     1       5.799   1.115  24.670  0.00  0.00    +0.156 C 
ATOM     12  C   UNL     1       6.405  -0.217  24.234  0.00  0.00    +0.038 C 
BRANCH  11  13
ATOM     13  N   UNL     1       6.675   2.260  24.422  0.00  0.00    -0.299 N 
ATOM     14  H   UNL     1       7.402   2.486  25.100  0.00  0.00    +0.150 HD
ATOM     15  C   UNL     1       6.486   3.170  23.404  0.00  0.00    +0.266 C 
ATOM     16  O   UNL     1       5.587   3.062  22.575  0.00  0.00    -0.268 OA
BRANCH  15  17
ATOM     17  C   UNL     1       7.489   4.225  23.325  0.00  0.00    +0.168 A 
ATOM     18  C   UNL     1       8.740   4.252  23.983  0.00  0.00    +0.080 A 
ATOM     19  C   UNL     1       9.279   5.470  23.660  0.00  0.00    +0.135 A 
ATOM     20  C   UNL     1      10.537   6.150  24.016  0.00  0.00    +0.089 C 
ATOM     21  O   UNL     1       8.418   6.136  22.845  0.00  0.00    -0.359 OA
ATOM     22  N   UNL     1       7.293   5.356  22.621  0.00  0.00    -0.073 NA
ENDBRANCH  15  17
ENDBRANCH  11  13
ENDBRANCH   9  11
ENDBRANCH   6   7
BRANCH   6  23
ATOM     23  C   UNL     1       2.391  -0.056  27.782  0.00  0.00    +0.012 C 
ATOM     24  C   UNL     1       1.535  -1.168  27.165  0.00  0.00    +0.009 C 
ATOM     25  C   UNL     1       1.985   1.297  27.201  0.00  0.00    +0.009 C 
ENDBRANCH   6  23
ENDBRANCH   4   6
ENDBRANCH   1   2
BRANCH   1  28
ATOM     26  N   UNL     1       6.979  -3.495  25.896  0.00  0.00    -0.307 N 
ATOM     27  H   UNL     1       6.239  -2.935  25.490  0.00  0.00    +0.149 HD
ATOM     28  C   UNL     1       6.745  -4.221  27.049  0.00  0.00    +0.234 C 
ATOM     29  O   UNL     1       7.550  -5.051  27.484  0.00  0.00    -0.274 OA
BRANCH  26  30
ATOM     30  C   UNL     1       8.187  -3.691  25.110  0.00  0.00    +0.097 C 
BRANCH  30  32
ATOM     31  C   UNL     1       9.722  -2.060  23.899  0.00  0.00    +0.089 C 
ATOM     32  C   UNL     1       8.924  -2.400  24.921  0.00  0.00    +0.002 C 
BRANCH  31  33
ATOM     33  C   UNL     1      10.276  -0.692  23.841  0.00  0.00    +0.332 C 
ATOM     34  O   UNL     1      10.567  -0.009  24.809  0.00  0.00    -0.246 OA
BRANCH  33  35
ATOM     35  O   UNL     1      10.245  -0.299  22.545  0.00  0.00    -0.462 OA
BRANCH  35  37
ATOM     36  C   UNL     1       8.800   1.198  21.395  0.00  0.00    +0.048 C 
ATOM     37  C   UNL     1       9.969   1.095  22.357  0.00  0.00    +0.229 C 
ENDBRANCH  35  37
ENDBRANCH  33  35
ENDBRANCH  31  33
ENDBRANCH  30  32
BRANCH  30  38
ATOM     38  C   UNL     1       7.906  -4.407  23.771  0.00  0.00    +0.039 C 
BRANCH  38  39
ATOM     39  C   UNL     1       6.428  -4.621  23.394  0.00  0.00    +0.078 C 
ATOM     40  C   UNL     1       5.992  -3.878  22.146  0.00  0.00    +0.216 C 
ATOM     41  O   UNL     1       5.584  -2.732  22.097  0.00  0.00    -0.276 OA
ATOM     42  N   UNL     1       6.156  -4.713  21.063  0.00  0.00    -0.315 N 
ATOM     43  H   UNL     1       5.945  -4.402  20.121  0.00  0.00    +0.149 HD
ATOM     44  C   UNL     1       6.511  -6.046  21.447  0.00  0.00    +0.105 C 
ATOM     45  C   UNL     1       6.187  -6.071  22.933  0.00  0.00    +0.031 C 
ENDBRANCH  38  39
ENDBRANCH  30  38
ENDBRANCH  26  30
ENDBRANCH   1  28
BRANCH   1  46
ATOM     46  C   UNL     1       4.328  -5.048  27.571  0.00  0.00    +0.034 C 
BRANCH  46  47
ATOM     47  C   UNL     1       4.084  -5.497  26.113  0.00  0.00    -0.015 C 
ATOM     48  C   UNL     1       2.704  -5.019  25.655  0.00  0.00    +0.007 C 
ATOM     49  C   UNL     1       4.181  -7.006  25.914  0.00  0.00    +0.007 C 
ENDBRANCH  46  47
ENDBRANCH   1  46
TORSDOF 17
ENDMDL
MODEL 4
REMARK VINA RESULT:      -5.8      2.444      5.879
REMARK  Name = 
REMARK  24 active torsions:
REMARK  status: ('A' for Active; 'I' for Inactive)
REMARK    1  A    between atoms: C_1  and  C_2
REMARK    2  A    between atoms: C_2  and  O_3
REMARK    3  A    between atoms: O_3  and  C_4
REMARK    4  A    between atoms: C_4  and  C_6
REMARK    5  A    between atoms: C_7  and  C_8
REMARK    6  A    between atoms: C_8  and  C_10
REMARK    7  A    between atoms: C_8  and  N_18
REMARK    8  A    between atoms: C_10  and  C_11
REMARK    9  A    between atoms: C_19  and  C_21
REMARK   10  A    between atoms: C_21  and  C_23
REMARK   11  A    between atoms: C_21  and  N_27
REMARK   12  A    between atoms: C_23  and  C_24
REMARK   13  A    between atoms: C_24  and  C_25
REMARK   14  A    between atoms: C_24  and  C_26
REMARK   15  A    between atoms: C_28  and  C_30
REMARK   16  A    between atoms: C_30  and  C_32
REMARK   17  A    between atoms: C_30  and  N_35
REMARK   18  A    between atoms: C_32  and  C_33
REMARK   19  A    between atoms: C_32  and  C_34
REMARK   20  A    between atoms: C_36  and  C_38
REMARK   21  A    between atoms: C_38  and  C_40
REMARK   22  A    between atoms: C_38  and  N_41
REMARK   23  A    between atoms: C_42  and  C_44
REMARK   24  A    between atoms: C_47  and  C_48
REMARK                            x       y       z     vdW  Elec       q    Type
REMARK                         _______ _______ _______ _____ _____    ______ ____
ROOT
ATOM      1  C   UNL     1       5.890   0.569  26.510  0.00  0.00    +0.159 C 
ENDROOT
BRANCH   1   2
ATOM      2  N   UNL     1       6.895   1.198  25.641  0.00  0.00    -0.302 N 
ATOM      3  H   UNL     1       7.082   0.700  24.784  0.00  0.00    +0.150 HD
ATOM      4  C   UNL     1       7.563   2.354  25.976  0.00  0.00    +0.234 C 
ATOM      5  O   UNL     1       7.274   2.974  26.999  0.00  0.00    -0.274 OA
BRANCH   4   6
ATOM      6  C   UNL     1       8.652   2.870  24.985  0.00  0.00    +0.161 C 
BRANCH   6   7
ATOM      7  N   UNL     1       8.709   2.102  23.734  0.00  0.00    -0.302 N 
ATOM      8  H   UNL     1       8.016   2.235  23.013  0.00  0.00    +0.150 HD
ATOM      9  C   UNL     1       9.765   1.283  23.401  0.00  0.00    +0.234 C 
ATOM     10  O   UNL     1      10.707   1.070  24.164  0.00  0.00    -0.274 OA
BRANCH   9  11
ATOM     11  C   UNL     1       9.593   0.518  22.065  0.00  0.00    +0.156 C 
ATOM     12  C   UNL     1       8.702   1.292  21.097  0.00  0.00    +0.038 C 
BRANCH  11  13
ATOM     13  N   UNL     1       9.196  -0.881  22.227  0.00  0.00    -0.299 N 
ATOM     14  H   UNL     1       9.823  -1.616  21.905  0.00  0.00    +0.150 HD
ATOM     15  C   UNL     1       7.945  -1.285  22.644  0.00  0.00    +0.266 C 
ATOM     16  O   UNL     1       7.067  -0.491  22.971  0.00  0.00    -0.268 OA
BRANCH  15  17
ATOM     17  C   UNL     1       7.768  -2.727  22.756  0.00  0.00    +0.168 A 
ATOM     18  C   UNL     1       6.807  -3.515  22.084  0.00  0.00    +0.080 A 
ATOM     19  C   UNL     1       6.987  -4.782  22.575  0.00  0.00    +0.135 A 
ATOM     20  C   UNL     1       6.321  -6.072  22.324  0.00  0.00    +0.089 C 
ATOM     21  O   UNL     1       8.004  -4.769  23.478  0.00  0.00    -0.359 OA
ATOM     22  N   UNL     1       8.507  -3.481  23.591  0.00  0.00    -0.073 NA
ENDBRANCH  15  17
ENDBRANCH  11  13
ENDBRANCH   9  11
ENDBRANCH   6   7
BRANCH   6  23
ATOM     23  C   UNL     1       8.618   4.406  24.734  0.00  0.00    +0.012 C 
ATOM     24  C   UNL     1       7.364   4.859  23.979  0.00  0.00    +0.009 C 
ATOM     25  C   UNL     1       9.866   4.962  24.050  0.00  0.00    +0.009 C 
ENDBRANCH   6  23
ENDBRANCH   4   6
ENDBRANCH   1   2
BRANCH   1  28
ATOM     26  N   UNL     1       4.723  -1.634  26.287  0.00  0.00    -0.307 N 
ATOM     27  H   UNL     1       3.884  -1.159  26.601  0.00  0.00    +0.149 HD
ATOM     28  C   UNL     1       5.930  -0.962  26.255  0.00  0.00    +0.234 C 
ATOM     29  O   UNL     1       7.003  -1.537  26.052  0.00  0.00    -0.274 OA
BRANCH  26  30
ATOM     30  C   UNL     1       4.655  -3.076  26.106  0.00  0.00    +0.097 C 
BRANCH  30  32
ATOM     31  C   UNL     1       3.193  -4.319  24.432  0.00  0.00    +0.089 C 
ATOM     32  C   UNL     1       3.362  -3.480  25.463  0.00  0.00    +0.002 C 
BRANCH  31  33
ATOM     33  C   UNL     1       1.823  -4.673  24.009  0.00  0.00    +0.332 C 
ATOM     34  O   UNL     1       0.811  -4.477  24.661  0.00  0.00    -0.246 OA
BRANCH  33  35
ATOM     35  O   UNL     1       1.927  -5.386  22.860  0.00  0.00    -0.462 OA
BRANCH  35  37
ATOM     36  C   UNL     1       1.667  -7.672  23.456  0.00  0.00    +0.048 C 
ATOM     37  C   UNL     1       2.652  -6.615  22.991  0.00  0.00    +0.229 C 
ENDBRANCH  35  37
ENDBRANCH  33  35
ENDBRANCH  31  33
ENDBRANCH  30  32
BRANCH  30  38
ATOM     38  C   UNL     1       4.920  -3.845  27.419  0.00  0.00    +0.039 C 
BRANCH  38  39
ATOM     39  C   UNL     1       6.062  -4.878  27.400  0.00  0.00    +0.078 C 
ATOM     40  C   UNL     1       5.916  -5.983  28.428  0.00  0.00    +0.216 C 
ATOM     41  O   UNL     1       6.298  -5.946  29.583  0.00  0.00    -0.276 OA
ATOM     42  N   UNL     1       5.252  -7.038  27.841  0.00  0.00    -0.315 N 
ATOM     43  H   UNL     1       5.028  -7.877  28.366  0.00  0.00    +0.149 HD
ATOM     44  C   UNL     1       5.061  -6.852  26.435  0.00  0.00    +0.105 C 
ATOM     45  C   UNL     1       6.018  -5.716  26.108  0.00  0.00    +0.031 C 
ENDBRANCH  38  39
ENDBRANCH  30  38
ENDBRANCH  26  30
ENDBRANCH   1  28
BRANCH   1  46
ATOM     46  C   UNL     1       4.510   1.224  26.341  0.00  0.00    +0.034 C 
BRANCH  46  47
ATOM     47  C   UNL     1       3.873   1.820  27.616  0.00  0.00    -0.015 C 
ATOM     48  C   UNL     1       3.771   3.341  27.474  0.00  0.00    +0.007 C 
ATOM     49  C   UNL     1       4.638   1.487  28.893  0.00  0.00    +0.007 C 
ENDBRANCH  46  47
ENDBRANCH   1  46
TORSDOF 17
ENDMDL
MODEL 5
REMARK VINA RESULT:      -5.6      2.952      7.067
REMARK  Name = 
REMARK  24 active torsions:
REMARK  status: ('A' for Active; 'I' for Inactive)
REMARK    1  A    between atoms: C_1  and  C_2
REMARK    2  A    between atoms: C_2  and  O_3
REMARK    3  A    between atoms: O_3  and  C_4
REMARK    4  A    between atoms: C_4  and  C_6
REMARK    5  A    between atoms: C_7  and  C_8
REMARK    6  A    between atoms: C_8  and  C_10
REMARK    7  A    between atoms: C_8  and  N_18
REMARK    8  A    between atoms: C_10  and  C_11
REMARK    9  A    between atoms: C_19  and  C_21
REMARK   10  A    between atoms: C_21  and  C_23
REMARK   11  A    between atoms: C_21  and  N_27
REMARK   12  A    between atoms: C_23  and  C_24
REMARK   13  A    between atoms: C_24  and  C_25
REMARK   14  A    between atoms: C_24  and  C_26
REMARK   15  A    between atoms: C_28  and  C_30
REMARK   16  A    between atoms: C_30  and  C_32
REMARK   17  A    between atoms: C_30  and  N_35
REMARK   18  A    between atoms: C_32  and  C_33
REMARK   19  A    between atoms: C_32  and  C_34
REMARK   20  A    between atoms: C_36  and  C_38
REMARK   21  A    between atoms: C_38  and  C_40
REMARK   22  A    between atoms: C_38  and  N_41
REMARK   23  A    between atoms: C_42  and  C_44
REMARK   24  A    between atoms: C_47  and  C_48
REMARK                            x       y       z     vdW  Elec       q    Type
REMARK                         _______ _______ _______ _____ _____    ______ ____
ROOT
ATOM      1  C   UNL     1       8.351  -4.702  24.859  0.00  0.00    +0.159 C 
ENDROOT
BRANCH   1   2
ATOM      2  N   UNL     1       7.220  -4.492  25.774  0.00  0.00    -0.302 N 
ATOM      3  H   UNL     1       6.531  -3.831  25.448  0.00  0.00    +0.150 HD
ATOM      4  C   UNL     1       7.118  -5.110  27.000  0.00  0.00    +0.234 C 
ATOM      5  O   UNL     1       7.941  -5.957  27.348  0.00  0.00    -0.274 OA
BRANCH   4   6
ATOM      6  C   UNL     1       5.895  -4.740  27.895  0.00  0.00    +0.161 C 
BRANCH   6   7
ATOM      7  N   UNL     1       4.717  -4.323  27.123  0.00  0.00    -0.302 N 
ATOM      8  H   UNL     1       4.354  -4.901  26.379  0.00  0.00    +0.150 HD
ATOM      9  C   UNL     1       3.953  -3.224  27.448  0.00  0.00    +0.234 C 
ATOM     10  O   UNL     1       4.249  -2.459  28.366  0.00  0.00    -0.274 OA
BRANCH   9  11
ATOM     11  C   UNL     1       2.793  -2.928  26.465  0.00  0.00    +0.156 C 
ATOM     12  C   UNL     1       1.680  -2.137  27.147  0.00  0.00    +0.038 C 
BRANCH  11  13
ATOM     13  N   UNL     1       2.310  -4.105  25.743  0.00  0.00    -0.299 N 
ATOM     14  H   UNL     1       1.651  -4.733  26.200  0.00  0.00    +0.150 HD
ATOM     15  C   UNL     1       2.810  -4.525  24.528  0.00  0.00    +0.266 C 
ATOM     16  O   UNL     1       3.676  -3.905  23.917  0.00  0.00    -0.268 OA
BRANCH  15  17
ATOM     17  C   UNL     1       2.171  -5.711  23.974  0.00  0.00    +0.168 A 
ATOM     18  C   UNL     1       1.621  -6.792  24.701  0.00  0.00    +0.080 A 
ATOM     19  C   UNL     1       1.215  -7.687  23.746  0.00  0.00    +0.135 A 
ATOM     20  C   UNL     1       0.584  -9.017  23.803  0.00  0.00    +0.089 C 
ATOM     21  O   UNL     1       1.488  -7.178  22.514  0.00  0.00    -0.359 OA
ATOM     22  N   UNL     1       2.081  -5.931  22.649  0.00  0.00    -0.073 NA
ENDBRANCH  15  17
ENDBRANCH  11  13
ENDBRANCH   9  11
ENDBRANCH   6   7
BRANCH   6  23
ATOM     23  C   UNL     1       5.546  -5.800  28.979  0.00  0.00    +0.012 C 
ATOM     24  C   UNL     1       4.402  -6.729  28.558  0.00  0.00    +0.009 C 
ATOM     25  C   UNL     1       5.262  -5.218  30.363  0.00  0.00    +0.009 C 
ENDBRANCH   6  23
ENDBRANCH   4   6
ENDBRANCH   1   2
BRANCH   1  28
ATOM     26  N   UNL     1       8.485  -2.230  25.234  0.00  0.00    -0.307 N 
ATOM     27  H   UNL     1       7.532  -2.286  25.574  0.00  0.00    +0.149 HD
ATOM     28  C   UNL     1       9.099  -3.350  24.706  0.00  0.00    +0.234 C 
ATOM     29  O   UNL     1      10.185  -3.296  24.120  0.00  0.00    -0.274 OA
BRANCH  26  30
ATOM     30  C   UNL     1       9.079  -0.909  25.103  0.00  0.00    +0.097 C 
BRANCH  30  32
ATOM     31  C   UNL     1       7.522  -0.195  26.988  0.00  0.00    +0.089 C 
ATOM     32  C   UNL     1       8.511   0.041  26.113  0.00  0.00    +0.002 C 
BRANCH  31  33
ATOM     33  C   UNL     1       7.174   0.843  27.979  0.00  0.00    +0.332 C 
ATOM     34  O   UNL     1       7.491   0.827  29.157  0.00  0.00    -0.246 OA
BRANCH  33  35
ATOM     35  O   UNL     1       6.322   1.707  27.377  0.00  0.00    -0.462 OA
BRANCH  35  37
ATOM     36  C   UNL     1       4.813   1.746  25.540  0.00  0.00    +0.048 C 
ATOM     37  C   UNL     1       5.122   1.103  26.880  0.00  0.00    +0.229 C 
ENDBRANCH  35  37
ENDBRANCH  33  35
ENDBRANCH  31  33
ENDBRANCH  30  32
BRANCH  30  38
ATOM     38  C   UNL     1       8.980  -0.360  23.663  0.00  0.00    +0.039 C 
BRANCH  38  39
ATOM     39  C   UNL     1       8.678   1.142  23.511  0.00  0.00    +0.078 C 
ATOM     40  C   UNL     1       9.848   1.962  23.004  0.00  0.00    +0.216 C 
ATOM     41  O   UNL     1      10.728   2.458  23.685  0.00  0.00    -0.276 OA
ATOM     42  N   UNL     1       9.765   2.035  21.631  0.00  0.00    -0.315 N 
ATOM     43  H   UNL     1      10.469   2.522  21.086  0.00  0.00    +0.149 HD
ATOM     44  C   UNL     1       8.546   1.484  21.125  0.00  0.00    +0.105 C 
ATOM     45  C   UNL     1       7.675   1.384  22.367  0.00  0.00    +0.031 C 
ENDBRANCH  38  39
ENDBRANCH  30  38
ENDBRANCH  26  30
ENDBRANCH   1  28
BRANCH   1  46
ATOM     46  C   UNL     1       7.895  -5.348  23.541  0.00  0.00    +0.034 C 
BRANCH  46  47
ATOM     47  C   UNL     1       6.567  -4.829  22.946  0.00  0.00    -0.015 C 
ATOM     48  C   UNL     1       5.911  -5.936  22.116  0.00  0.00    +0.007 C 
ATOM     49  C   UNL     1       6.731  -3.585  22.079  0.00  0.00    +0.007 C 
ENDBRANCH  46  47
ENDBRANCH   1  46
TORSDOF 17
ENDMDL
MODEL 6
REMARK VINA RESULT:      -5.5      2.301      7.237
REMARK  Name = 
REMARK  24 active torsions:
REMARK  status: ('A' for Active; 'I' for Inactive)
REMARK    1  A    between atoms: C_1  and  C_2
REMARK    2  A    between atoms: C_2  and  O_3
REMARK    3  A    between atoms: O_3  and  C_4
REMARK    4  A    between atoms: C_4  and  C_6
REMARK    5  A    between atoms: C_7  and  C_8
REMARK    6  A    between atoms: C_8  and  C_10
REMARK    7  A    between atoms: C_8  and  N_18
REMARK    8  A    between atoms: C_10  and  C_11
REMARK    9  A    between atoms: C_19  and  C_21
REMARK   10  A    between atoms: C_21  and  C_23
REMARK   11  A    between atoms: C_21  and  N_27
REMARK   12  A    between atoms: C_23  and  C_24
REMARK   13  A    between atoms: C_24  and  C_25
REMARK   14  A    between atoms: C_24  and  C_26
REMARK   15  A    between atoms: C_28  and  C_30
REMARK   16  A    between atoms: C_30  and  C_32
REMARK   17  A    between atoms: C_30  and  N_35
REMARK   18  A    between atoms: C_32  and  C_33
REMARK   19  A    between atoms: C_32  and  C_34
REMARK   20  A    between atoms: C_36  and  C_38
REMARK   21  A    between atoms: C_38  and  C_40
REMARK   22  A    between atoms: C_38  and  N_41
REMARK   23  A    between atoms: C_42  and  C_44
REMARK   24  A    between atoms: C_47  and  C_48
REMARK                            x       y       z     vdW  Elec       q    Type
REMARK                         _______ _______ _______ _____ _____    ______ ____
ROOT
ATOM      1  C   UNL     1       5.526  -4.858  28.062  0.00  0.00    +0.159 C 
ENDROOT
BRANCH   1   2
ATOM      2  N   UNL     1       5.059  -3.478  27.872  0.00  0.00    -0.302 N 
ATOM      3  H   UNL     1       5.372  -3.040  27.019  0.00  0.00    +0.150 HD
ATOM      4  C   UNL     1       4.289  -2.809  28.797  0.00  0.00    +0.234 C 
ATOM      5  O   UNL     1       3.870  -3.384  29.801  0.00  0.00    -0.274 OA
BRANCH   4   6
ATOM      6  C   UNL     1       3.924  -1.323  28.491  0.00  0.00    +0.161 C 
BRANCH   6   7
ATOM      7  N   UNL     1       5.094  -0.487  28.193  0.00  0.00    -0.302 N 
ATOM      8  H   UNL     1       5.668  -0.669  27.383  0.00  0.00    +0.150 HD
ATOM      9  C   UNL     1       5.397   0.662  28.889  0.00  0.00    +0.234 C 
ATOM     10  O   UNL     1       4.751   1.034  29.869  0.00  0.00    -0.274 OA
BRANCH   9  11
ATOM     11  C   UNL     1       6.711   1.356  28.451  0.00  0.00    +0.156 C 
ATOM     12  C   UNL     1       7.182   2.358  29.503  0.00  0.00    +0.038 C 
BRANCH  11  13
ATOM     13  N   UNL     1       6.668   1.912  27.099  0.00  0.00    -0.299 N 
ATOM     14  H   UNL     1       6.420   2.892  26.971  0.00  0.00    +0.150 HD
ATOM     15  C   UNL     1       6.784   1.157  25.950  0.00  0.00    +0.266 C 
ATOM     16  O   UNL     1       6.991  -0.053  25.970  0.00  0.00    -0.268 OA
BRANCH  15  17
ATOM     17  C   UNL     1       6.735   1.915  24.707  0.00  0.00    +0.168 A 
ATOM     18  C   UNL     1       7.416   3.120  24.424  0.00  0.00    +0.080 A 
ATOM     19  C   UNL     1       6.992   3.478  23.171  0.00  0.00    +0.135 A 
ATOM     20  C   UNL     1       7.285   4.620  22.287  0.00  0.00    +0.089 C 
ATOM     21  O   UNL     1       6.119   2.541  22.713  0.00  0.00    -0.359 OA
ATOM     22  N   UNL     1       5.958   1.549  23.669  0.00  0.00    -0.073 NA
ENDBRANCH  15  17
ENDBRANCH  11  13
ENDBRANCH   9  11
ENDBRANCH   6   7
BRANCH   6  23
ATOM     23  C   UNL     1       2.786  -1.141  27.445  0.00  0.00    +0.012 C 
ATOM     24  C   UNL     1       2.492   0.330  27.133  0.00  0.00    +0.009 C 
ATOM     25  C   UNL     1       1.488  -1.869  27.791  0.00  0.00    +0.009 C 
ENDBRANCH   6  23
ENDBRANCH   4   6
ENDBRANCH   1   2
BRANCH   1  28
ATOM     26  N   UNL     1       7.053  -4.150  26.209  0.00  0.00    -0.307 N 
ATOM     27  H   UNL     1       6.318  -3.514  25.921  0.00  0.00    +0.149 HD
ATOM     28  C   UNL     1       6.835  -5.036  27.247  0.00  0.00    +0.234 C 
ATOM     29  O   UNL     1       7.625  -5.946  27.519  0.00  0.00    -0.274 OA
BRANCH  26  30
ATOM     30  C   UNL     1       8.225  -4.259  25.354  0.00  0.00    +0.097 C 
BRANCH  30  32
ATOM     31  C   UNL     1       9.466  -2.451  24.060  0.00  0.00    +0.089 C 
ATOM     32  C   UNL     1       8.885  -2.926  25.171  0.00  0.00    +0.002 C 
BRANCH  31  33
ATOM     33  C   UNL     1       9.971  -1.063  24.049  0.00  0.00    +0.332 C 
ATOM     34  O   UNL     1      10.005  -0.317  25.014  0.00  0.00    -0.246 OA
BRANCH  33  35
ATOM     35  O   UNL     1      10.230  -0.738  22.759  0.00  0.00    -0.462 OA
BRANCH  35  37
ATOM     36  C   UNL     1       8.853   0.712  21.473  0.00  0.00    +0.048 C 
ATOM     37  C   UNL     1      10.018   0.643  22.444  0.00  0.00    +0.229 C 
ENDBRANCH  35  37
ENDBRANCH  33  35
ENDBRANCH  31  33
ENDBRANCH  30  32
BRANCH  30  38
ATOM     38  C   UNL     1       7.908  -4.945  24.007  0.00  0.00    +0.039 C 
BRANCH  38  39
ATOM     39  C   UNL     1       6.432  -4.971  23.571  0.00  0.00    +0.078 C 
ATOM     40  C   UNL     1       6.034  -3.825  22.661  0.00  0.00    +0.216 C 
ATOM     41  O   UNL     1       5.656  -2.723  23.014  0.00  0.00    -0.276 OA
ATOM     42  N   UNL     1       6.195  -4.232  21.354  0.00  0.00    -0.315 N 
ATOM     43  H   UNL     1       6.005  -3.604  20.581  0.00  0.00    +0.149 HD
ATOM     44  C   UNL     1       6.509  -5.624  21.248  0.00  0.00    +0.105 C 
ATOM     45  C   UNL     1       6.162  -6.159  22.628  0.00  0.00    +0.031 C 
ENDBRANCH  38  39
ENDBRANCH  30  38
ENDBRANCH  26  30
ENDBRANCH   1  28
BRANCH   1  46
ATOM     46  C   UNL     1       4.416  -5.875  27.746  0.00  0.00    +0.034 C 
BRANCH  46  47
ATOM     47  C   UNL     1       3.834  -5.832  26.316  0.00  0.00    -0.015 C 
ATOM     48  C   UNL     1       2.343  -5.494  26.381  0.00  0.00    +0.007 C 
ATOM     49  C   UNL     1       4.018  -7.135  25.543  0.00  0.00    +0.007 C 
ENDBRANCH  46  47
ENDBRANCH   1  46
TORSDOF 17
ENDMDL
MODEL 7
REMARK VINA RESULT:      -5.5      2.273      8.458
REMARK  Name = 
REMARK  24 active torsions:
REMARK  status: ('A' for Active; 'I' for Inactive)
REMARK    1  A    between atoms: C_1  and  C_2
REMARK    2  A    between atoms: C_2  and  O_3
REMARK    3  A    between atoms: O_3  and  C_4
REMARK    4  A    between atoms: C_4  and  C_6
REMARK    5  A    between atoms: C_7  and  C_8
REMARK    6  A    between atoms: C_8  and  C_10
REMARK    7  A    between atoms: C_8  and  N_18
REMARK    8  A    between atoms: C_10  and  C_11
REMARK    9  A    between atoms: C_19  and  C_21
REMARK   10  A    between atoms: C_21  and  C_23
REMARK   11  A    between atoms: C_21  and  N_27
REMARK   12  A    between atoms: C_23  and  C_24
REMARK   13  A    between atoms: C_24  and  C_25
REMARK   14  A    between atoms: C_24  and  C_26
REMARK   15  A    between atoms: C_28  and  C_30
REMARK   16  A    between atoms: C_30  and  C_32
REMARK   17  A    between atoms: C_30  and  N_35
REMARK   18  A    between atoms: C_32  and  C_33
REMARK   19  A    between atoms: C_32  and  C_34
REMARK   20  A    between atoms: C_36  and  C_38
REMARK   21  A    between atoms: C_38  and  C_40
REMARK   22  A    between atoms: C_38  and  N_41
REMARK   23  A    between atoms: C_42  and  C_44
REMARK   24  A    between atoms: C_47  and  C_48
REMARK                            x       y       z     vdW  Elec       q    Type
REMARK                         _______ _______ _______ _____ _____    ______ ____
ROOT
ATOM      1  C   UNL     1       4.970  -4.387  23.367  0.00  0.00    +0.159 C 
ENDROOT
BRANCH   1   2
ATOM      2  N   UNL     1       6.219  -3.979  24.026  0.00  0.00    -0.302 N 
ATOM      3  H   UNL     1       6.538  -4.606  24.750  0.00  0.00    +0.150 HD
ATOM      4  C   UNL     1       6.890  -2.817  23.718  0.00  0.00    +0.234 C 
ATOM      5  O   UNL     1       6.513  -2.101  22.790  0.00  0.00    -0.274 OA
BRANCH   4   6
ATOM      6  C   UNL     1       8.168  -2.480  24.547  0.00  0.00    +0.161 C 
BRANCH   6   7
ATOM      7  N   UNL     1       8.707  -1.144  24.263  0.00  0.00    -0.302 N 
ATOM      8  H   UNL     1       8.339  -0.327  24.728  0.00  0.00    +0.150 HD
ATOM      9  C   UNL     1       9.822  -0.931  23.482  0.00  0.00    +0.234 C 
ATOM     10  O   UNL     1      10.404  -1.843  22.895  0.00  0.00    -0.274 OA
BRANCH   9  11
ATOM     11  C   UNL     1      10.182   0.559  23.260  0.00  0.00    +0.156 C 
ATOM     12  C   UNL     1      11.279   1.010  24.221  0.00  0.00    +0.038 C 
BRANCH  11  13
ATOM     13  N   UNL     1       9.025   1.454  23.239  0.00  0.00    -0.299 N 
ATOM     14  H   UNL     1       8.641   1.792  24.121  0.00  0.00    +0.150 HD
ATOM     15  C   UNL     1       8.301   1.753  22.104  0.00  0.00    +0.266 C 
ATOM     16  O   UNL     1       8.605   1.330  20.992  0.00  0.00    -0.268 OA
BRANCH  15  17
ATOM     17  C   UNL     1       7.197   2.683  22.303  0.00  0.00    +0.168 A 
ATOM     18  C   UNL     1       7.271   4.095  22.299  0.00  0.00    +0.080 A 
ATOM     19  C   UNL     1       6.003   4.514  22.605  0.00  0.00    +0.135 A 
ATOM     20  C   UNL     1       5.387   5.840  22.783  0.00  0.00    +0.089 C 
ATOM     21  O   UNL     1       5.203   3.426  22.771  0.00  0.00    -0.359 OA
ATOM     22  N   UNL     1       5.945   2.271  22.574  0.00  0.00    -0.073 NA
ENDBRANCH  15  17
ENDBRANCH  11  13
ENDBRANCH   9  11
ENDBRANCH   6   7
BRANCH   6  23
ATOM     23  C   UNL     1       8.035  -2.752  26.073  0.00  0.00    +0.012 C 
ATOM     24  C   UNL     1       8.510  -1.575  26.932  0.00  0.00    +0.009 C 
ATOM     25  C   UNL     1       8.702  -4.043  26.545  0.00  0.00    +0.009 C 
ENDBRANCH   6  23
ENDBRANCH   4   6
ENDBRANCH   1   2
BRANCH   1  28
ATOM     26  N   UNL     1       4.148  -3.739  25.641  0.00  0.00    -0.307 N 
ATOM     27  H   UNL     1       5.121  -3.689  25.918  0.00  0.00    +0.149 HD
ATOM     28  C   UNL     1       3.809  -4.183  24.377  0.00  0.00    +0.234 C 
ATOM     29  O   UNL     1       2.644  -4.430  24.051  0.00  0.00    -0.274 OA
BRANCH  26  30
ATOM     30  C   UNL     1       3.141  -3.560  26.675  0.00  0.00    +0.097 C 
BRANCH  30  32
ATOM     31  C   UNL     1       3.968  -1.158  26.859  0.00  0.00    +0.089 C 
ATOM     32  C   UNL     1       3.103  -2.140  27.153  0.00  0.00    +0.002 C 
BRANCH  31  33
ATOM     33  C   UNL     1       3.698   0.210  27.347  0.00  0.00    +0.332 C 
ATOM     34  O   UNL     1       2.882   0.504  28.204  0.00  0.00    -0.246 OA
BRANCH  33  35
ATOM     35  O   UNL     1       4.397   1.064  26.560  0.00  0.00    -0.462 OA
BRANCH  35  37
ATOM     36  C   UNL     1       6.656   1.524  25.979  0.00  0.00    +0.048 C 
ATOM     37  C   UNL     1       5.551   0.484  25.939  0.00  0.00    +0.229 C 
ENDBRANCH  35  37
ENDBRANCH  33  35
ENDBRANCH  31  33
ENDBRANCH  30  32
BRANCH  30  38
ATOM     38  C   UNL     1       3.308  -4.564  27.837  0.00  0.00    +0.039 C 
BRANCH  38  39
ATOM     39  C   UNL     1       3.249  -6.060  27.476  0.00  0.00    +0.078 C 
ATOM     40  C   UNL     1       4.603  -6.740  27.431  0.00  0.00    +0.216 C 
ATOM     41  O   UNL     1       5.352  -6.790  26.472  0.00  0.00    -0.276 OA
ATOM     42  N   UNL     1       4.861  -7.280  28.673  0.00  0.00    -0.315 N 
ATOM     43  H   UNL     1       5.731  -7.762  28.866  0.00  0.00    +0.149 HD
ATOM     44  C   UNL     1       3.736  -7.192  29.552  0.00  0.00    +0.105 C 
ATOM     45  C   UNL     1       2.588  -6.868  28.609  0.00  0.00    +0.031 C 
ENDBRANCH  38  39
ENDBRANCH  30  38
ENDBRANCH  26  30
ENDBRANCH   1  28
BRANCH   1  46
ATOM     46  C   UNL     1       5.082  -5.802  22.777  0.00  0.00    +0.034 C 
BRANCH  46  47
ATOM     47  C   UNL     1       6.066  -5.977  21.599  0.00  0.00    -0.015 C 
ATOM     48  C   UNL     1       7.485  -6.168  22.143  0.00  0.00    +0.007 C 
ATOM     49  C   UNL     1       6.060  -4.809  20.619  0.00  0.00    +0.007 C 
ENDBRANCH  46  47
ENDBRANCH   1  46
TORSDOF 17
ENDMDL
MODEL 8
REMARK VINA RESULT:      -5.4      2.014      4.157
REMARK  Name = 
REMARK  24 active torsions:
REMARK  status: ('A' for Active; 'I' for Inactive)
REMARK    1  A    between atoms: C_1  and  C_2
REMARK    2  A    between atoms: C_2  and  O_3
REMARK    3  A    between atoms: O_3  and  C_4
REMARK    4  A    between atoms: C_4  and  C_6
REMARK    5  A    between atoms: C_7  and  C_8
REMARK    6  A    between atoms: C_8  and  C_10
REMARK    7  A    between atoms: C_8  and  N_18
REMARK    8  A    between atoms: C_10  and  C_11
REMARK    9  A    between atoms: C_19  and  C_21
REMARK   10  A    between atoms: C_21  and  C_23
REMARK   11  A    between atoms: C_21  and  N_27
REMARK   12  A    between atoms: C_23  and  C_24
REMARK   13  A    between atoms: C_24  and  C_25
REMARK   14  A    between atoms: C_24  and  C_26
REMARK   15  A    between atoms: C_28  and  C_30
REMARK   16  A    between atoms: C_30  and  C_32
REMARK   17  A    between atoms: C_30  and  N_35
REMARK   18  A    between atoms: C_32  and  C_33
REMARK   19  A    between atoms: C_32  and  C_34
REMARK   20  A    between atoms: C_36  and  C_38
REMARK   21  A    between atoms: C_38  and  C_40
REMARK   22  A    between atoms: C_38  and  N_41
REMARK   23  A    between atoms: C_42  and  C_44
REMARK   24  A    between atoms: C_47  and  C_48
REMARK                            x       y       z     vdW  Elec       q    Type
REMARK                         _______ _______ _______ _____ _____    ______ ____
ROOT
ATOM      1  C   UNL     1       4.171   2.616  24.706  0.00  0.00    +0.159 C 
ENDROOT
BRANCH   1   2
ATOM      2  N   UNL     1       4.936   1.819  25.676  0.00  0.00    -0.302 N 
ATOM      3  H   UNL     1       5.927   2.005  25.686  0.00  0.00    +0.150 HD
ATOM      4  C   UNL     1       4.363   0.863  26.484  0.00  0.00    +0.234 C 
ATOM      5  O   UNL     1       3.143   0.698  26.496  0.00  0.00    -0.274 OA
BRANCH   4   6
ATOM      6  C   UNL     1       5.310   0.047  27.418  0.00  0.00    +0.161 C 
BRANCH   6   7
ATOM      7  N   UNL     1       5.231  -1.403  27.199  0.00  0.00    -0.302 N 
ATOM      8  H   UNL     1       5.797  -1.853  26.494  0.00  0.00    +0.150 HD
ATOM      9  C   UNL     1       4.516  -2.251  28.015  0.00  0.00    +0.234 C 
ATOM     10  O   UNL     1       3.822  -1.846  28.947  0.00  0.00    -0.274 OA
BRANCH   9  11
ATOM     11  C   UNL     1       4.516  -3.734  27.567  0.00  0.00    +0.156 C 
ATOM     12  C   UNL     1       5.364  -4.593  28.501  0.00  0.00    +0.038 C 
BRANCH  11  13
ATOM     13  N   UNL     1       4.834  -3.928  26.152  0.00  0.00    -0.299 N 
ATOM     14  H   UNL     1       5.498  -3.300  25.701  0.00  0.00    +0.150 HD
ATOM     15  C   UNL     1       4.173  -4.812  25.326  0.00  0.00    +0.266 C 
ATOM     16  O   UNL     1       3.286  -5.560  25.730  0.00  0.00    -0.268 OA
BRANCH  15  17
ATOM     17  C   UNL     1       4.664  -4.862  23.955  0.00  0.00    +0.168 A 
ATOM     18  C   UNL     1       5.561  -5.810  23.413  0.00  0.00    +0.080 A 
ATOM     19  C   UNL     1       5.775  -5.394  22.125  0.00  0.00    +0.135 A 
ATOM     20  C   UNL     1       6.604  -5.902  21.019  0.00  0.00    +0.089 C 
ATOM     21  O   UNL     1       5.044  -4.270  21.893  0.00  0.00    -0.359 OA
ATOM     22  N   UNL     1       4.335  -3.934  23.037  0.00  0.00    -0.073 NA
ENDBRANCH  15  17
ENDBRANCH  11  13
ENDBRANCH   9  11
ENDBRANCH   6   7
BRANCH   6  23
ATOM     23  C   UNL     1       6.778   0.560  27.453  0.00  0.00    +0.012 C 
ATOM     24  C   UNL     1       7.801  -0.535  27.130  0.00  0.00    +0.009 C 
ATOM     25  C   UNL     1       7.168   1.269  28.750  0.00  0.00    +0.009 C 
ENDBRANCH   6  23
ENDBRANCH   4   6
ENDBRANCH   1   2
BRANCH   1  28
ATOM     26  N   UNL     1       6.320   2.257  23.473  0.00  0.00    -0.307 N 
ATOM     27  H   UNL     1       6.699   1.910  24.346  0.00  0.00    +0.149 HD
ATOM     28  C   UNL     1       5.042   2.783  23.432  0.00  0.00    +0.234 C 
ATOM     29  O   UNL     1       4.601   3.376  22.443  0.00  0.00    -0.274 OA
BRANCH  26  30
ATOM     30  C   UNL     1       7.233   2.400  22.349  0.00  0.00    +0.097 C 
BRANCH  30  32
ATOM     31  C   UNL     1       7.823  -0.057  22.672  0.00  0.00    +0.089 C 
ATOM     32  C   UNL     1       8.056   1.161  22.161  0.00  0.00    +0.002 C 
BRANCH  31  33
ATOM     33  C   UNL     1       8.699  -1.180  22.282  0.00  0.00    +0.332 C 
ATOM     34  O   UNL     1       9.771  -1.073  21.711  0.00  0.00    -0.246 OA
BRANCH  33  35
ATOM     35  O   UNL     1       8.018  -2.326  22.529  0.00  0.00    -0.462 OA
BRANCH  35  37
ATOM     36  C   UNL     1       8.293  -3.627  24.500  0.00  0.00    +0.048 C 
ATOM     37  C   UNL     1       7.553  -2.457  23.878  0.00  0.00    +0.229 C 
ENDBRANCH  35  37
ENDBRANCH  33  35
ENDBRANCH  31  33
ENDBRANCH  30  32
BRANCH  30  38
ATOM     38  C   UNL     1       8.104   3.670  22.458  0.00  0.00    +0.039 C 
BRANCH  38  39
ATOM     39  C   UNL     1       8.894   3.861  23.766  0.00  0.00    +0.078 C 
ATOM     40  C   UNL     1      10.391   3.671  23.618  0.00  0.00    +0.216 C 
ATOM     41  O   UNL     1      10.994   2.615  23.695  0.00  0.00    -0.276 OA
ATOM     42  N   UNL     1      10.962   4.898  23.358  0.00  0.00    -0.315 N 
ATOM     43  H   UNL     1      11.959   4.991  23.200  0.00  0.00    +0.149 HD
ATOM     44  C   UNL     1      10.026   5.973  23.474  0.00  0.00    +0.105 C 
ATOM     45  C   UNL     1       8.861   5.334  24.214  0.00  0.00    +0.031 C 
ENDBRANCH  38  39
ENDBRANCH  30  38
ENDBRANCH  26  30
ENDBRANCH   1  28
BRANCH   1  46
ATOM     46  C   UNL     1       3.668   3.929  25.330  0.00  0.00    +0.034 C 
BRANCH  46  47
ATOM     47  C   UNL     1       4.751   4.896  25.857  0.00  0.00    -0.015 C 
ATOM     48  C   UNL     1       4.471   5.225  27.326  0.00  0.00    +0.007 C 
ATOM     49  C   UNL     1       4.848   6.195  25.063  0.00  0.00    +0.007 C 
ENDBRANCH  46  47
ENDBRANCH   1  46
TORSDOF 17
ENDMDL
MODEL 9
REMARK VINA RESULT:      -5.4      2.354      7.027
REMARK  Name = 
REMARK  24 active torsions:
REMARK  status: ('A' for Active; 'I' for Inactive)
REMARK    1  A    between atoms: C_1  and  C_2
REMARK    2  A    between atoms: C_2  and  O_3
REMARK    3  A    between atoms: O_3  and  C_4
REMARK    4  A    between atoms: C_4  and  C_6
REMARK    5  A    between atoms: C_7  and  C_8
REMARK    6  A    between atoms: C_8  and  C_10
REMARK    7  A    between atoms: C_8  and  N_18
REMARK    8  A    between atoms: C_10  and  C_11
REMARK    9  A    between atoms: C_19  and  C_21
REMARK   10  A    between atoms: C_21  and  C_23
REMARK   11  A    between atoms: C_21  and  N_27
REMARK   12  A    between atoms: C_23  and  C_24
REMARK   13  A    between atoms: C_24  and  C_25
REMARK   14  A    between atoms: C_24  and  C_26
REMARK   15  A    between atoms: C_28  and  C_30
REMARK   16  A    between atoms: C_30  and  C_32
REMARK   17  A    between atoms: C_30  and  N_35
REMARK   18  A    between atoms: C_32  and  C_33
REMARK   19  A    between atoms: C_32  and  C_34
REMARK   20  A    between atoms: C_36  and  C_38
REMARK   21  A    between atoms: C_38  and  C_40
REMARK   22  A    between atoms: C_38  and  N_41
REMARK   23  A    between atoms: C_42  and  C_44
REMARK   24  A    between atoms: C_47  and  C_48
REMARK                            x       y       z     vdW  Elec       q    Type
REMARK                         _______ _______ _______ _____ _____    ______ ____
ROOT
ATOM      1  C   UNL     1       7.521  -3.451  25.119  0.00  0.00    +0.159 C 
ENDROOT
BRANCH   1   2
ATOM      2  N   UNL     1       6.256  -4.104  25.487  0.00  0.00    -0.302 N 
ATOM      3  H   UNL     1       5.427  -3.586  25.241  0.00  0.00    +0.150 HD
ATOM      4  C   UNL     1       6.195  -5.308  26.152  0.00  0.00    +0.234 C 
ATOM      5  O   UNL     1       7.219  -5.949  26.388  0.00  0.00    -0.274 OA
BRANCH   4   6
ATOM      6  C   UNL     1       4.783  -5.848  26.537  0.00  0.00    +0.161 C 
BRANCH   6   7
ATOM      7  N   UNL     1       3.768  -4.793  26.644  0.00  0.00    -0.302 N 
ATOM      8  H   UNL     1       3.255  -4.483  25.832  0.00  0.00    +0.150 HD
ATOM      9  C   UNL     1       3.346  -4.272  27.847  0.00  0.00    +0.234 C 
ATOM     10  O   UNL     1       3.847  -4.597  28.923  0.00  0.00    -0.274 OA
BRANCH   9  11
ATOM     11  C   UNL     1       2.313  -3.123  27.729  0.00  0.00    +0.156 C 
ATOM     12  C   UNL     1       1.467  -3.271  26.467  0.00  0.00    +0.038 C 
BRANCH  11  13
ATOM     13  N   UNL     1       2.887  -1.787  27.890  0.00  0.00    -0.299 N 
ATOM     14  H   UNL     1       2.557  -1.192  28.648  0.00  0.00    +0.150 HD
ATOM     15  C   UNL     1       3.742  -1.200  26.981  0.00  0.00    +0.266 C 
ATOM     16  O   UNL     1       4.141  -1.780  25.975  0.00  0.00    -0.268 OA
BRANCH  15  17
ATOM     17  C   UNL     1       4.213   0.130  27.347  0.00  0.00    +0.168 A 
ATOM     18  C   UNL     1       5.350   0.438  28.127  0.00  0.00    +0.080 A 
ATOM     19  C   UNL     1       5.327   1.802  28.257  0.00  0.00    +0.135 A 
ATOM     20  C   UNL     1       6.194   2.771  28.951  0.00  0.00    +0.089 C 
ATOM     21  O   UNL     1       4.252   2.295  27.586  0.00  0.00    -0.359 OA
ATOM     22  N   UNL     1       3.550   1.250  27.002  0.00  0.00    -0.073 NA
ENDBRANCH  15  17
ENDBRANCH  11  13
ENDBRANCH   9  11
ENDBRANCH   6   7
BRANCH   6  23
ATOM     23  C   UNL     1       4.297  -7.051  25.677  0.00  0.00    +0.012 C 
ATOM     24  C   UNL     1       4.584  -6.869  24.182  0.00  0.00    +0.009 C 
ATOM     25  C   UNL     1       2.830  -7.423  25.884  0.00  0.00    +0.009 C 
ENDBRANCH   6  23
ENDBRANCH   4   6
ENDBRANCH   1   2
BRANCH   1  28
ATOM     26  N   UNL     1       7.031  -1.038  24.668  0.00  0.00    -0.307 N 
ATOM     27  H   UNL     1       6.913  -1.300  23.697  0.00  0.00    +0.149 HD
ATOM     28  C   UNL     1       7.452  -1.975  25.593  0.00  0.00    +0.234 C 
ATOM     29  O   UNL     1       7.779  -1.669  26.744  0.00  0.00    -0.274 OA
BRANCH  26  30
ATOM     30  C   UNL     1       6.976   0.378  24.997  0.00  0.00    +0.097 C 
BRANCH  30  32
ATOM     31  C   UNL     1       5.557   2.366  24.276  0.00  0.00    +0.089 C 
ATOM     32  C   UNL     1       5.915   1.076  24.201  0.00  0.00    +0.002 C 
BRANCH  31  33
ATOM     33  C   UNL     1       4.555   2.892  23.327  0.00  0.00    +0.332 C 
ATOM     34  O   UNL     1       4.807   3.407  22.250  0.00  0.00    -0.246 OA
BRANCH  33  35
ATOM     35  O   UNL     1       3.349   2.840  23.943  0.00  0.00    -0.462 OA
BRANCH  35  37
ATOM     36  C   UNL     1       1.752   4.590  23.761  0.00  0.00    +0.048 C 
ATOM     37  C   UNL     1       2.255   3.300  23.140  0.00  0.00    +0.229 C 
ENDBRANCH  35  37
ENDBRANCH  33  35
ENDBRANCH  31  33
ENDBRANCH  30  32
BRANCH  30  38
ATOM     38  C   UNL     1       8.353   1.065  24.867  0.00  0.00    +0.039 C 
BRANCH  38  39
ATOM     39  C   UNL     1       9.191   0.713  23.624  0.00  0.00    +0.078 C 
ATOM     40  C   UNL     1       8.960   1.631  22.440  0.00  0.00    +0.216 C 
ATOM     41  O   UNL     1       8.096   1.507  21.590  0.00  0.00    -0.276 OA
ATOM     42  N   UNL     1       9.883   2.653  22.496  0.00  0.00    -0.315 N 
ATOM     43  H   UNL     1       9.888   3.395  21.805  0.00  0.00    +0.149 HD
ATOM     44  C   UNL     1      10.861   2.452  23.520  0.00  0.00    +0.105 C 
ATOM     45  C   UNL     1      10.686   0.985  23.878  0.00  0.00    +0.031 C 
ENDBRANCH  38  39
ENDBRANCH  30  38
ENDBRANCH  26  30
ENDBRANCH   1  28
BRANCH   1  46
ATOM     46  C   UNL     1       7.840  -3.644  23.627  0.00  0.00    +0.034 C 
BRANCH  46  47
ATOM     47  C   UNL     1       6.694  -4.191  22.747  0.00  0.00    -0.015 C 
ATOM     48  C   UNL     1       7.222  -5.331  21.872  0.00  0.00    +0.007 C 
ATOM     49  C   UNL     1       6.052  -3.133  21.855  0.00  0.00    +0.007 C 
ENDBRANCH  46  47
ENDBRANCH   1  46
TORSDOF 17
ENDMDL
