MODEL 1
REMARK VINA RESULT:      -7.2      0.000      0.000
REMARK  Name = 
REMARK  5 active torsions:
REMARK  status: ('A' for Active; 'I' for Inactive)
REMARK    1  A    between atoms: C_1  and  N_2
REMARK    2  A    between atoms: N_2  and  C_18
REMARK    3  A    between atoms: C_3  and  C_5
REMARK    4  A    between atoms: C_6  and  O_7
REMARK    5  A    between atoms: N_14  and  C_15
REMARK                            x       y       z     vdW  Elec       q    Type
REMARK                         _______ _______ _______ _____ _____    ______ ____
ROOT
ATOM      1  C   UNL     1       6.950  -2.241  22.975  0.00  0.00    +0.143 A 
ATOM      2  C   UNL     1       6.194  -1.489  24.018  0.00  0.00    +0.267 A 
ATOM      3  O   UNL     1       5.307  -2.035  24.675  0.00  0.00    -0.267 OA
ATOM      4  N   UNL     1       6.550  -0.158  24.233  0.00  0.00    -0.310 N 
ATOM      5  C   UNL     1       5.567   0.674  24.903  0.00  0.00    +0.152 C 
ATOM      6  C   UNL     1       7.909   0.238  24.060  0.00  0.00    +0.055 A 
ATOM      7  C   UNL     1       8.436   1.395  24.649  0.00  0.00    +0.026 A 
ATOM      8  C   UNL     1       9.805   1.682  24.562  0.00  0.00    +0.002 A 
ATOM      9  C   UNL     1      10.650   0.824  23.876  0.00  0.00    +0.001 A 
ATOM     10  C   UNL     1      10.131  -0.319  23.266  0.00  0.00    +0.013 A 
ATOM     11  C   UNL     1       8.766  -0.626  23.356  0.00  0.00    +0.041 A 
ATOM     12  C   UNL     1       8.210  -1.837  22.718  0.00  0.00    +0.143 A 
ENDROOT
BRANCH   1  15
ATOM     13  C   UNL     1       6.535  -5.934  21.949  0.00  0.00    +0.138 C 
ATOM     14  N   UNL     1       6.797  -4.754  22.767  0.00  0.00    -0.270 N 
ATOM     15  C   UNL     1       6.435  -3.491  22.302  0.00  0.00    +0.259 C 
ATOM     16  O   UNL     1       5.692  -3.356  21.319  0.00  0.00    -0.269 OA
BRANCH  14  17
ATOM     17  C   UNL     1       7.239  -5.006  24.091  0.00  0.00    +0.036 A 
ATOM     18  C   UNL     1       8.608  -4.952  24.378  0.00  0.00    +0.023 A 
ATOM     19  C   UNL     1       9.036  -4.944  25.706  0.00  0.00    +0.002 A 
ATOM     20  C   UNL     1       8.109  -5.077  26.739  0.00  0.00    +0.000 A 
ATOM     21  C   UNL     1       6.752  -5.230  26.447  0.00  0.00    +0.002 A 
ATOM     22  C   UNL     1       6.314  -5.181  25.124  0.00  0.00    +0.023 A 
ENDBRANCH  14  17
ENDBRANCH   1  15
BRANCH  12  23
ATOM     23  O   UNL     1       9.089  -2.507  21.878  0.00  0.00    -0.505 OA
ATOM     24  H   UNL     1       9.853  -2.814  22.418  0.00  0.00    +0.292 HD
ENDBRANCH  12  23
TORSDOF 3
ENDMDL
MODEL 2
REMARK VINA RESULT:      -7.0      1.933      2.939
REMARK  Name = 
REMARK  5 active torsions:
REMARK  status: ('A' for Active; 'I' for Inactive)
REMARK    1  A    between atoms: C_1  and  N_2
REMARK    2  A    between atoms: N_2  and  C_18
REMARK    3  A    between atoms: C_3  and  C_5
REMARK    4  A    between atoms: C_6  and  O_7
REMARK    5  A    between atoms: N_14  and  C_15
REMARK                            x       y       z     vdW  Elec       q    Type
REMARK                         _______ _______ _______ _____ _____    ______ ____
ROOT
ATOM      1  C   UNL     1       8.135  -2.086  25.203  0.00  0.00    +0.143 A 
ATOM      2  C   UNL     1       7.178  -0.992  25.538  0.00  0.00    +0.267 A 
ATOM      3  O   UNL     1       6.703  -0.889  26.668  0.00  0.00    -0.267 OA
ATOM      4  N   UNL     1       6.867  -0.081  24.527  0.00  0.00    -0.310 N 
ATOM      5  C   UNL     1       5.650   0.689  24.704  0.00  0.00    +0.152 C 
ATOM      6  C   UNL     1       7.857   0.249  23.556  0.00  0.00    +0.055 A 
ATOM      7  C   UNL     1       7.803   1.426  22.797  0.00  0.00    +0.026 A 
ATOM      8  C   UNL     1       8.860   1.779  21.947  0.00  0.00    +0.002 A 
ATOM      9  C   UNL     1       9.968   0.952  21.841  0.00  0.00    +0.001 A 
ATOM     10  C   UNL     1      10.022  -0.233  22.575  0.00  0.00    +0.013 A 
ATOM     11  C   UNL     1       8.978  -0.592  23.440  0.00  0.00    +0.041 A 
ATOM     12  C   UNL     1       9.030  -1.842  24.225  0.00  0.00    +0.143 A 
ENDROOT
BRANCH   1  15
ATOM     13  C   UNL     1       7.364  -5.616  26.548  0.00  0.00    +0.138 C 
ATOM     14  N   UNL     1       7.470  -4.485  25.631  0.00  0.00    -0.270 N 
ATOM     15  C   UNL     1       8.240  -3.377  25.981  0.00  0.00    +0.259 C 
ATOM     16  O   UNL     1       9.020  -3.412  26.942  0.00  0.00    -0.269 OA
BRANCH  14  17
ATOM     17  C   UNL     1       6.924  -4.685  24.338  0.00  0.00    +0.036 A 
ATOM     18  C   UNL     1       7.712  -5.277  23.345  0.00  0.00    +0.023 A 
ATOM     19  C   UNL     1       7.120  -5.710  22.158  0.00  0.00    +0.002 A 
ATOM     20  C   UNL     1       5.765  -5.474  21.928  0.00  0.00    +0.000 A 
ATOM     21  C   UNL     1       5.001  -4.796  22.878  0.00  0.00    +0.002 A 
ATOM     22  C   UNL     1       5.575  -4.412  24.090  0.00  0.00    +0.023 A 
ENDBRANCH  14  17
ENDBRANCH   1  15
BRANCH  12  23
ATOM     23  O   UNL     1      10.069  -2.699  23.886  0.00  0.00    -0.505 OA
ATOM     24  H   UNL     1      10.403  -3.116  24.712  0.00  0.00    +0.292 HD
ENDBRANCH  12  23
TORSDOF 3
ENDMDL
MODEL 3
REMARK VINA RESULT:      -6.9      0.794      2.567
REMARK  Name = 
REMARK  5 active torsions:
REMARK  status: ('A' for Active; 'I' for Inactive)
REMARK    1  A    between atoms: C_1  and  N_2
REMARK    2  A    between atoms: N_2  and  C_18
REMARK    3  A    between atoms: C_3  and  C_5
REMARK    4  A    between atoms: C_6  and  O_7
REMARK    5  A    between atoms: N_14  and  C_15
REMARK                            x       y       z     vdW  Elec       q    Type
REMARK                         _______ _______ _______ _____ _____    ______ ____
ROOT
ATOM      1  C   UNL     1       7.019  -2.275  22.989  0.00  0.00    +0.143 A 
ATOM      2  C   UNL     1       8.322  -1.616  22.686  0.00  0.00    +0.267 A 
ATOM      3  O   UNL     1       8.897  -1.811  21.615  0.00  0.00    -0.267 OA
ATOM      4  N   UNL     1       8.845  -0.756  23.651  0.00  0.00    -0.310 N 
ATOM      5  C   UNL     1      10.265  -0.469  23.560  0.00  0.00    +0.152 C 
ATOM      6  C   UNL     1       7.955   0.000  24.469  0.00  0.00    +0.055 A 
ATOM      7  C   UNL     1       8.352   1.168  25.134  0.00  0.00    +0.026 A 
ATOM      8  C   UNL     1       7.417   1.952  25.823  0.00  0.00    +0.002 A 
ATOM      9  C   UNL     1       6.086   1.569  25.861  0.00  0.00    +0.001 A 
ATOM     10  C   UNL     1       5.683   0.396  25.221  0.00  0.00    +0.013 A 
ATOM     11  C   UNL     1       6.605  -0.393  24.517  0.00  0.00    +0.041 A 
ATOM     12  C   UNL     1       6.187  -1.633  23.832  0.00  0.00    +0.143 A 
ENDROOT
BRANCH   1  15
ATOM     13  C   UNL     1       6.694  -5.973  21.948  0.00  0.00    +0.138 C 
ATOM     14  N   UNL     1       6.926  -4.790  22.771  0.00  0.00    -0.270 N 
ATOM     15  C   UNL     1       6.536  -3.535  22.309  0.00  0.00    +0.259 C 
ATOM     16  O   UNL     1       5.795  -3.413  21.323  0.00  0.00    -0.269 OA
BRANCH  14  17
ATOM     17  C   UNL     1       7.367  -5.037  24.096  0.00  0.00    +0.036 A 
ATOM     18  C   UNL     1       8.735  -4.974  24.385  0.00  0.00    +0.023 A 
ATOM     19  C   UNL     1       9.161  -4.960  25.713  0.00  0.00    +0.002 A 
ATOM     20  C   UNL     1       8.233  -5.097  26.745  0.00  0.00    +0.000 A 
ATOM     21  C   UNL     1       6.878  -5.259  26.452  0.00  0.00    +0.002 A 
ATOM     22  C   UNL     1       6.442  -5.216  25.128  0.00  0.00    +0.023 A 
ENDBRANCH  14  17
ENDBRANCH   1  15
BRANCH  12  23
ATOM     23  O   UNL     1       4.889  -2.041  24.112  0.00  0.00    -0.505 OA
ATOM     24  H   UNL     1       4.477  -1.369  24.701  0.00  0.00    +0.292 HD
ENDBRANCH  12  23
TORSDOF 3
ENDMDL
MODEL 4
REMARK VINA RESULT:      -6.8      1.895      2.953
REMARK  Name = 
REMARK  5 active torsions:
REMARK  status: ('A' for Active; 'I' for Inactive)
REMARK    1  A    between atoms: C_1  and  N_2
REMARK    2  A    between atoms: N_2  and  C_18
REMARK    3  A    between atoms: C_3  and  C_5
REMARK    4  A    between atoms: C_6  and  O_7
REMARK    5  A    between atoms: N_14  and  C_15
REMARK                            x       y       z     vdW  Elec       q    Type
REMARK                         _______ _______ _______ _____ _____    ______ ____
ROOT
ATOM      1  C   UNL     1       8.552  -2.070  23.959  0.00  0.00    +0.143 A 
ATOM      2  C   UNL     1       7.653  -1.386  24.932  0.00  0.00    +0.267 A 
ATOM      3  O   UNL     1       7.688  -1.663  26.131  0.00  0.00    -0.267 OA
ATOM      4  N   UNL     1       6.794  -0.406  24.432  0.00  0.00    -0.310 N 
ATOM      5  C   UNL     1       5.653  -0.064  25.261  0.00  0.00    +0.152 C 
ATOM      6  C   UNL     1       7.211   0.388  23.323  0.00  0.00    +0.055 A 
ATOM      7  C   UNL     1       6.641   1.635  23.036  0.00  0.00    +0.026 A 
ATOM      8  C   UNL     1       7.164   2.442  22.016  0.00  0.00    +0.002 A 
ATOM      9  C   UNL     1       8.248   2.002  21.272  0.00  0.00    +0.001 A 
ATOM     10  C   UNL     1       8.809   0.752  21.536  0.00  0.00    +0.013 A 
ATOM     11  C   UNL     1       8.305  -0.061  22.562  0.00  0.00    +0.041 A 
ATOM     12  C   UNL     1       8.896  -1.383  22.851  0.00  0.00    +0.143 A 
ENDROOT
BRANCH   1  15
ATOM     13  C   UNL     1       9.038  -5.754  24.986  0.00  0.00    +0.138 C 
ATOM     14  N   UNL     1       8.415  -4.541  24.467  0.00  0.00    -0.270 N 
ATOM     15  C   UNL     1       9.194  -3.414  24.210  0.00  0.00    +0.259 C 
ATOM     16  O   UNL     1      10.431  -3.478  24.193  0.00  0.00    -0.269 OA
BRANCH  14  17
ATOM     17  C   UNL     1       7.059  -4.664  24.070  0.00  0.00    +0.036 A 
ATOM     18  C   UNL     1       6.054  -4.631  25.044  0.00  0.00    +0.023 A 
ATOM     19  C   UNL     1       4.721  -4.495  24.658  0.00  0.00    +0.002 A 
ATOM     20  C   UNL     1       4.384  -4.481  23.305  0.00  0.00    +0.000 A 
ATOM     21  C   UNL     1       5.378  -4.612  22.335  0.00  0.00    +0.002 A 
ATOM     22  C   UNL     1       6.718  -4.692  22.715  0.00  0.00    +0.023 A 
ENDBRANCH  14  17
ENDBRANCH   1  15
BRANCH  12  23
ATOM     23  O   UNL     1       9.825  -1.821  21.917  0.00  0.00    -0.505 OA
ATOM     24  H   UNL     1      10.563  -1.171  21.892  0.00  0.00    +0.292 HD
ENDBRANCH  12  23
TORSDOF 3
ENDMDL
MODEL 5
REMARK VINA RESULT:      -6.6      1.890      5.915
REMARK  Name = 
REMARK  5 active torsions:
REMARK  status: ('A' for Active; 'I' for Inactive)
REMARK    1  A    between atoms: C_1  and  N_2
REMARK    2  A    between atoms: N_2  and  C_18
REMARK    3  A    between atoms: C_3  and  C_5
REMARK    4  A    between atoms: C_6  and  O_7
REMARK    5  A    between atoms: N_14  and  C_15
REMARK                            x       y       z     vdW  Elec       q    Type
REMARK                         _______ _______ _______ _____ _____    ______ ____
ROOT
ATOM      1  C   UNL     1       6.768  -2.585  25.612  0.00  0.00    +0.143 A 
ATOM      2  C   UNL     1       7.598  -3.769  25.977  0.00  0.00    +0.267 A 
ATOM      3  O   UNL     1       7.745  -4.102  27.153  0.00  0.00    -0.267 OA
ATOM      4  N   UNL     1       8.175  -4.494  24.934  0.00  0.00    -0.310 N 
ATOM      5  C   UNL     1       9.298  -5.345  25.282  0.00  0.00    +0.152 C 
ATOM      6  C   UNL     1       7.488  -4.590  23.687  0.00  0.00    +0.055 A 
ATOM      7  C   UNL     1       7.750  -5.609  22.762  0.00  0.00    +0.026 A 
ATOM      8  C   UNL     1       6.966  -5.745  21.607  0.00  0.00    +0.002 A 
ATOM      9  C   UNL     1       5.928  -4.858  21.366  0.00  0.00    +0.001 A 
ATOM     10  C   UNL     1       5.674  -3.826  22.270  0.00  0.00    +0.013 A 
ATOM     11  C   UNL     1       6.441  -3.685  23.436  0.00  0.00    +0.041 A 
ATOM     12  C   UNL     1       6.175  -2.599  24.401  0.00  0.00    +0.143 A 
ENDROOT
BRANCH   1  15
ATOM     13  C   UNL     1       7.149   0.573  27.790  0.00  0.00    +0.138 C 
ATOM     14  N   UNL     1       7.307  -0.359  26.678  0.00  0.00    -0.270 N 
ATOM     15  C   UNL     1       6.453  -1.455  26.563  0.00  0.00    +0.259 C 
ATOM     16  O   UNL     1       5.421  -1.541  27.243  0.00  0.00    -0.269 OA
BRANCH  14  17
ATOM     17  C   UNL     1       8.218   0.035  25.666  0.00  0.00    +0.036 A 
ATOM     18  C   UNL     1       7.770   0.851  24.620  0.00  0.00    +0.023 A 
ATOM     19  C   UNL     1       8.696   1.451  23.766  0.00  0.00    +0.002 A 
ATOM     20  C   UNL     1      10.054   1.169  23.901  0.00  0.00    +0.000 A 
ATOM     21  C   UNL     1      10.491   0.278  24.882  0.00  0.00    +0.002 A 
ATOM     22  C   UNL     1       9.575  -0.280  25.774  0.00  0.00    +0.023 A 
ENDBRANCH  14  17
ENDBRANCH   1  15
BRANCH  12  23
ATOM     23  O   UNL     1       5.268  -1.643  23.964  0.00  0.00    -0.505 OA
ATOM     24  H   UNL     1       5.775  -0.854  23.667  0.00  0.00    +0.292 HD
ENDBRANCH  12  23
TORSDOF 3
ENDMDL
MODEL 6
REMARK VINA RESULT:      -6.5      2.254      6.149
REMARK  Name = 
REMARK  5 active torsions:
REMARK  status: ('A' for Active; 'I' for Inactive)
REMARK    1  A    between atoms: C_1  and  N_2
REMARK    2  A    between atoms: N_2  and  C_18
REMARK    3  A    between atoms: C_3  and  C_5
REMARK    4  A    between atoms: C_6  and  O_7
REMARK    5  A    between atoms: N_14  and  C_15
REMARK                            x       y       z     vdW  Elec       q    Type
REMARK                         _______ _______ _______ _____ _____    ______ ____
ROOT
ATOM      1  C   UNL     1       7.796  -4.696  24.749  0.00  0.00    +0.143 A 
ATOM      2  C   UNL     1       6.914  -5.241  23.678  0.00  0.00    +0.267 A 
ATOM      3  O   UNL     1       7.367  -5.529  22.570  0.00  0.00    -0.267 OA
ATOM      4  N   UNL     1       5.568  -5.433  23.991  0.00  0.00    -0.310 N 
ATOM      5  C   UNL     1       4.653  -5.539  22.870  0.00  0.00    +0.152 C 
ATOM      6  C   UNL     1       5.206  -5.794  25.322  0.00  0.00    +0.055 A 
ATOM      7  C   UNL     1       3.987  -6.415  25.627  0.00  0.00    +0.026 A 
ATOM      8  C   UNL     1       3.722  -6.870  26.927  0.00  0.00    +0.002 A 
ATOM      9  C   UNL     1       4.666  -6.695  27.927  0.00  0.00    +0.001 A 
ATOM     10  C   UNL     1       5.873  -6.058  27.639  0.00  0.00    +0.013 A 
ATOM     11  C   UNL     1       6.158  -5.609  26.341  0.00  0.00    +0.041 A 
ATOM     12  C   UNL     1       7.436  -4.939  26.025  0.00  0.00    +0.143 A 
ENDROOT
BRANCH   1  15
ATOM     13  C   UNL     1      10.413  -2.154  23.503  0.00  0.00    +0.138 C 
ATOM     14  N   UNL     1       9.164  -2.699  24.025  0.00  0.00    -0.270 N 
ATOM     15  C   UNL     1       9.118  -4.015  24.484  0.00  0.00    +0.259 C 
ATOM     16  O   UNL     1      10.154  -4.667  24.676  0.00  0.00    -0.269 OA
BRANCH  14  17
ATOM     17  C   UNL     1       8.112  -1.767  24.209  0.00  0.00    +0.036 A 
ATOM     18  C   UNL     1       7.881  -1.237  25.484  0.00  0.00    +0.023 A 
ATOM     19  C   UNL     1       7.030  -0.142  25.633  0.00  0.00    +0.002 A 
ATOM     20  C   UNL     1       6.345   0.366  24.530  0.00  0.00    +0.000 A 
ATOM     21  C   UNL     1       6.502  -0.226  23.276  0.00  0.00    +0.002 A 
ATOM     22  C   UNL     1       7.395  -1.284  23.111  0.00  0.00    +0.023 A 
ENDBRANCH  14  17
ENDBRANCH   1  15
BRANCH  12  23
ATOM     23  O   UNL     1       8.212  -4.619  27.131  0.00  0.00    -0.505 OA
ATOM     24  H   UNL     1       8.912  -5.305  27.222  0.00  0.00    +0.292 HD
ENDBRANCH  12  23
TORSDOF 3
ENDMDL
MODEL 7
REMARK VINA RESULT:      -6.5      2.506      6.370
REMARK  Name = 
REMARK  5 active torsions:
REMARK  status: ('A' for Active; 'I' for Inactive)
REMARK    1  A    between atoms: C_1  and  N_2
REMARK    2  A    between atoms: N_2  and  C_18
REMARK    3  A    between atoms: C_3  and  C_5
REMARK    4  A    between atoms: C_6  and  O_7
REMARK    5  A    between atoms: N_14  and  C_15
REMARK                            x       y       z     vdW  Elec       q    Type
REMARK                         _______ _______ _______ _____ _____    ______ ____
ROOT
ATOM      1  C   UNL     1       9.698  -0.453  24.289  0.00  0.00    +0.143 A 
ATOM      2  C   UNL     1       9.490  -1.312  23.088  0.00  0.00    +0.267 A 
ATOM      3  O   UNL     1      10.291  -1.300  22.154  0.00  0.00    -0.267 OA
ATOM      4  N   UNL     1       8.370  -2.144  23.081  0.00  0.00    -0.310 N 
ATOM      5  C   UNL     1       7.937  -2.633  21.784  0.00  0.00    +0.152 C 
ATOM      6  C   UNL     1       7.897  -2.689  24.311  0.00  0.00    +0.055 A 
ATOM      7  C   UNL     1       7.090  -3.834  24.365  0.00  0.00    +0.026 A 
ATOM      8  C   UNL     1       6.753  -4.413  25.596  0.00  0.00    +0.002 A 
ATOM      9  C   UNL     1       7.207  -3.846  26.776  0.00  0.00    +0.001 A 
ATOM     10  C   UNL     1       7.992  -2.693  26.734  0.00  0.00    +0.013 A 
ATOM     11  C   UNL     1       8.349  -2.109  25.509  0.00  0.00    +0.041 A 
ATOM     12  C   UNL     1       9.184  -0.892  25.455  0.00  0.00    +0.143 A 
ENDROOT
BRANCH   1  15
ATOM     13  C   UNL     1      11.043   3.059  23.443  0.00  0.00    +0.138 C 
ATOM     14  N   UNL     1      10.108   1.965  23.685  0.00  0.00    -0.270 N 
ATOM     15  C   UNL     1      10.552   0.793  24.293  0.00  0.00    +0.259 C 
ATOM     16  O   UNL     1      11.661   0.733  24.843  0.00  0.00    -0.269 OA
BRANCH  14  17
ATOM     17  C   UNL     1       8.741   2.258  23.449  0.00  0.00    +0.036 A 
ATOM     18  C   UNL     1       8.232   2.159  22.149  0.00  0.00    +0.023 A 
ATOM     19  C   UNL     1       6.853   2.194  21.941  0.00  0.00    +0.002 A 
ATOM     20  C   UNL     1       5.991   2.414  23.015  0.00  0.00    +0.000 A 
ATOM     21  C   UNL     1       6.505   2.610  24.297  0.00  0.00    +0.002 A 
ATOM     22  C   UNL     1       7.879   2.520  24.519  0.00  0.00    +0.023 A 
ENDBRANCH  14  17
ENDBRANCH   1  15
BRANCH  12  23
ATOM     23  O   UNL     1       9.402  -0.282  26.684  0.00  0.00    -0.505 OA
ATOM     24  H   UNL     1      10.243  -0.634  27.055  0.00  0.00    +0.292 HD
ENDBRANCH  12  23
TORSDOF 3
ENDMDL
MODEL 8
REMARK VINA RESULT:      -6.5      1.843      5.785
REMARK  Name = 
REMARK  5 active torsions:
REMARK  status: ('A' for Active; 'I' for Inactive)
REMARK    1  A    between atoms: C_1  and  N_2
REMARK    2  A    between atoms: N_2  and  C_18
REMARK    3  A    between atoms: C_3  and  C_5
REMARK    4  A    between atoms: C_6  and  O_7
REMARK    5  A    between atoms: N_14  and  C_15
REMARK                            x       y       z     vdW  Elec       q    Type
REMARK                         _______ _______ _______ _____ _____    ______ ____
ROOT
ATOM      1  C   UNL     1       8.342  -3.183  24.098  0.00  0.00    +0.143 A 
ATOM      2  C   UNL     1       8.163  -3.595  25.520  0.00  0.00    +0.267 A 
ATOM      3  O   UNL     1       8.615  -2.912  26.439  0.00  0.00    -0.267 OA
ATOM      4  N   UNL     1       7.445  -4.766  25.763  0.00  0.00    -0.310 N 
ATOM      5  C   UNL     1       7.638  -5.384  27.062  0.00  0.00    +0.152 C 
ATOM      6  C   UNL     1       6.382  -5.128  24.884  0.00  0.00    +0.055 A 
ATOM      7  C   UNL     1       5.356  -6.004  25.266  0.00  0.00    +0.026 A 
ATOM      8  C   UNL     1       4.261  -6.234  24.421  0.00  0.00    +0.002 A 
ATOM      9  C   UNL     1       4.192  -5.602  23.189  0.00  0.00    +0.001 A 
ATOM     10  C   UNL     1       5.219  -4.745  22.790  0.00  0.00    +0.013 A 
ATOM     11  C   UNL     1       6.314  -4.495  23.630  0.00  0.00    +0.041 A 
ATOM     12  C   UNL     1       7.402  -3.585  23.219  0.00  0.00    +0.143 A 
ENDROOT
BRANCH   1  15
ATOM     13  C   UNL     1      10.135  -0.031  22.788  0.00  0.00    +0.138 C 
ATOM     14  N   UNL     1       9.189  -0.877  23.510  0.00  0.00    -0.270 N 
ATOM     15  C   UNL     1       9.428  -2.245  23.625  0.00  0.00    +0.259 C 
ATOM     16  O   UNL     1      10.528  -2.734  23.332  0.00  0.00    -0.269 OA
BRANCH  14  17
ATOM     17  C   UNL     1       8.170  -0.195  24.222  0.00  0.00    +0.036 A 
ATOM     18  C   UNL     1       8.455   0.338  25.484  0.00  0.00    +0.023 A 
ATOM     19  C   UNL     1       7.555   1.220  26.082  0.00  0.00    +0.002 A 
ATOM     20  C   UNL     1       6.337   1.501  25.463  0.00  0.00    +0.000 A 
ATOM     21  C   UNL     1       6.012   0.892  24.250  0.00  0.00    +0.002 A 
ATOM     22  C   UNL     1       6.932   0.053  23.621  0.00  0.00    +0.023 A 
ENDBRANCH  14  17
ENDBRANCH   1  15
BRANCH  12  23
ATOM     23  O   UNL     1       7.349  -3.178  21.892  0.00  0.00    -0.505 OA
ATOM     24  H   UNL     1       8.265  -2.973  21.598  0.00  0.00    +0.292 HD
ENDBRANCH  12  23
TORSDOF 3
ENDMDL
MODEL 9
REMARK VINA RESULT:      -6.4      1.672      3.084
REMARK  Name = 
REMARK  5 active torsions:
REMARK  status: ('A' for Active; 'I' for Inactive)
REMARK    1  A    between atoms: C_1  and  N_2
REMARK    2  A    between atoms: N_2  and  C_18
REMARK    3  A    between atoms: C_3  and  C_5
REMARK    4  A    between atoms: C_6  and  O_7
REMARK    5  A    between atoms: N_14  and  C_15
REMARK                            x       y       z     vdW  Elec       q    Type
REMARK                         _______ _______ _______ _____ _____    ______ ____
ROOT
ATOM      1  C   UNL     1       6.597  -1.032  24.535  0.00  0.00    +0.143 A 
ATOM      2  C   UNL     1       7.081  -1.409  23.176  0.00  0.00    +0.267 A 
ATOM      3  O   UNL     1       6.368  -2.050  22.405  0.00  0.00    -0.267 OA
ATOM      4  N   UNL     1       8.358  -0.985  22.809  0.00  0.00    -0.310 N 
ATOM      5  C   UNL     1       8.984  -1.694  21.708  0.00  0.00    +0.152 C 
ATOM      6  C   UNL     1       8.853   0.255  23.311  0.00  0.00    +0.055 A 
ATOM      7  C   UNL     1       9.892   0.958  22.687  0.00  0.00    +0.026 A 
ATOM      8  C   UNL     1      10.263   2.233  23.134  0.00  0.00    +0.002 A 
ATOM      9  C   UNL     1       9.608   2.806  24.213  0.00  0.00    +0.001 A 
ATOM     10  C   UNL     1       8.586   2.106  24.856  0.00  0.00    +0.013 A 
ATOM     11  C   UNL     1       8.195   0.834  24.411  0.00  0.00    +0.041 A 
ATOM     12  C   UNL     1       7.111   0.088  25.082  0.00  0.00    +0.143 A 
ENDROOT
BRANCH   1  15
ATOM     13  C   UNL     1       4.372  -3.848  25.942  0.00  0.00    +0.138 C 
ATOM     14  N   UNL     1       5.560  -3.120  25.507  0.00  0.00    -0.270 N 
ATOM     15  C   UNL     1       5.484  -1.750  25.260  0.00  0.00    +0.259 C 
ATOM     16  O   UNL     1       4.500  -1.086  25.615  0.00  0.00    -0.269 OA
BRANCH  14  17
ATOM     17  C   UNL     1       6.779  -3.843  25.554  0.00  0.00    +0.036 A 
ATOM     18  C   UNL     1       7.122  -4.677  24.484  0.00  0.00    +0.023 A 
ATOM     19  C   UNL     1       8.416  -5.190  24.395  0.00  0.00    +0.002 A 
ATOM     20  C   UNL     1       9.336  -4.944  25.414  0.00  0.00    +0.000 A 
ATOM     21  C   UNL     1       8.962  -4.193  26.529  0.00  0.00    +0.002 A 
ATOM     22  C   UNL     1       7.687  -3.630  26.594  0.00  0.00    +0.023 A 
ENDBRANCH  14  17
ENDBRANCH   1  15
BRANCH  12  23
ATOM     23  O   UNL     1       6.672   0.648  26.274  0.00  0.00    -0.505 OA
ATOM     24  H   UNL     1       6.713   1.627  26.185  0.00  0.00    +0.292 HD
ENDBRANCH  12  23
TORSDOF 3
ENDMDL
