MODEL 1
REMARK VINA RESULT:      -7.6      0.000      0.000
REMARK  Name = 
REMARK  3 active torsions:
REMARK  status: ('A' for Active; 'I' for Inactive)
REMARK    1  A    between atoms: C_2  and  N_13
REMARK    2  A    between atoms: C_10  and  O_12
REMARK    3  A    between atoms: C_14  and  C_16
REMARK                            x       y       z     vdW  Elec       q    Type
REMARK                         _______ _______ _______ _____ _____    ______ ____
ROOT
ATOM      1  N   UNL     1       8.500  -2.795  24.277  0.00  0.00    -0.304 N 
ATOM      2  H   UNL     1       7.589  -2.446  24.018  0.00  0.00    +0.149 HD
ATOM      3  C   UNL     1       8.623  -4.142  24.531  0.00  0.00    +0.261 C 
ATOM      4  O   UNL     1       9.708  -4.703  24.627  0.00  0.00    -0.269 OA
ENDROOT
BRANCH   3   5
ATOM      5  C   UNL     1       7.370  -4.852  24.662  0.00  0.00    +0.103 A 
ATOM      6  N   UNL     1       6.881  -5.223  25.919  0.00  0.00    -0.345 N 
ATOM      7  H   UNL     1       7.342  -5.019  26.798  0.00  0.00    +0.167 HD
ATOM      8  C   UNL     1       5.737  -5.918  25.730  0.00  0.00    +0.087 A 
ATOM      9  S   UNL     1       4.624  -6.714  26.674  0.00  0.00    -0.059 S 
ATOM     10  C   UNL     1       3.759  -7.146  25.242  0.00  0.00    +0.081 A 
ATOM     11  C   UNL     1       4.320  -6.662  24.073  0.00  0.00    +0.037 A 
ATOM     12 CL   UNL     1       2.342  -8.109  25.375  0.00  0.00    -0.076 Cl
ATOM     13  C   UNL     1       5.471  -5.963  24.423  0.00  0.00    +0.009 A 
ATOM     14  C   UNL     1       6.448  -5.291  23.703  0.00  0.00    +0.041 A 
ENDBRANCH   3   5
BRANCH   1  15
ATOM     15  C   UNL     1       9.664  -1.950  24.015  0.00  0.00    +0.110 C 
ATOM     16  C   UNL     1       9.647  -1.362  22.569  0.00  0.00    +0.165 C 
ATOM     17  C   UNL     1       9.647   0.119  22.779  0.00  0.00    -0.014 A 
ATOM     18  C   UNL     1       9.591   1.110  21.808  0.00  0.00    +0.006 A 
ATOM     19  C   UNL     1       9.555   2.445  22.215  0.00  0.00    +0.000 A 
ATOM     20  C   UNL     1       9.579   2.773  23.579  0.00  0.00    +0.000 A 
ATOM     21  C   UNL     1       9.646   1.771  24.547  0.00  0.00    +0.004 A 
ATOM     22  C   UNL     1       9.677   0.449  24.131  0.00  0.00    -0.040 A 
ATOM     23  C   UNL     1       9.747  -0.760  25.006  0.00  0.00    +0.060 C 
BRANCH  16  24
ATOM     24  O   UNL     1      10.784  -1.793  21.835  0.00  0.00    -0.385 OA
ATOM     25  H   UNL     1      11.039  -1.070  21.236  0.00  0.00    +0.210 HD
ENDBRANCH  16  24
ENDBRANCH   1  15
TORSDOF 3
ENDMDL
MODEL 2
REMARK VINA RESULT:      -7.5      0.908      1.156
REMARK  Name = 
REMARK  3 active torsions:
REMARK  status: ('A' for Active; 'I' for Inactive)
REMARK    1  A    between atoms: C_2  and  N_13
REMARK    2  A    between atoms: C_10  and  O_12
REMARK    3  A    between atoms: C_14  and  C_16
REMARK                            x       y       z     vdW  Elec       q    Type
REMARK                         _______ _______ _______ _____ _____    ______ ____
ROOT
ATOM      1  N   UNL     1       8.499  -2.780  24.198  0.00  0.00    -0.304 N 
ATOM      2  H   UNL     1       7.565  -2.538  23.905  0.00  0.00    +0.149 HD
ATOM      3  C   UNL     1       8.718  -4.060  24.652  0.00  0.00    +0.261 C 
ATOM      4  O   UNL     1       9.841  -4.525  24.814  0.00  0.00    -0.269 OA
ENDROOT
BRANCH   3   5
ATOM      5  C   UNL     1       7.519  -4.826  24.911  0.00  0.00    +0.103 A 
ATOM      6  N   UNL     1       6.590  -5.075  23.894  0.00  0.00    -0.345 N 
ATOM      7  H   UNL     1       6.690  -4.761  22.936  0.00  0.00    +0.167 HD
ATOM      8  C   UNL     1       5.554  -5.753  24.437  0.00  0.00    +0.087 A 
ATOM      9  S   UNL     1       4.089  -6.351  23.928  0.00  0.00    -0.059 S 
ATOM     10  C   UNL     1       3.792  -6.914  25.534  0.00  0.00    +0.081 A 
ATOM     11  C   UNL     1       4.820  -6.655  26.425  0.00  0.00    +0.037 A 
ATOM     12 CL   UNL     1       2.307  -7.704  25.886  0.00  0.00    -0.076 Cl
ATOM     13  C   UNL     1       5.811  -5.971  25.728  0.00  0.00    +0.009 A 
ATOM     14  C   UNL     1       7.040  -5.433  26.079  0.00  0.00    +0.041 A 
ENDBRANCH   3   5
BRANCH   1  15
ATOM     15  C   UNL     1       9.600  -1.907  23.790  0.00  0.00    +0.110 C 
ATOM     16  C   UNL     1       9.344  -1.255  22.396  0.00  0.00    +0.165 C 
ATOM     17  C   UNL     1       9.368   0.215  22.671  0.00  0.00    -0.014 A 
ATOM     18  C   UNL     1       9.149   1.247  21.769  0.00  0.00    +0.006 A 
ATOM     19  C   UNL     1       9.170   2.562  22.239  0.00  0.00    +0.000 A 
ATOM     20  C   UNL     1       9.414   2.828  23.594  0.00  0.00    +0.000 A 
ATOM     21  C   UNL     1       9.644   1.785  24.491  0.00  0.00    +0.004 A 
ATOM     22  C   UNL     1       9.615   0.484  24.014  0.00  0.00    -0.040 A 
ATOM     23  C   UNL     1       9.835  -0.762  24.809  0.00  0.00    +0.060 C 
BRANCH  16  24
ATOM     24  O   UNL     1      10.350  -1.637  21.467  0.00  0.00    -0.385 OA
ATOM     25  H   UNL     1      11.117  -1.056  21.610  0.00  0.00    +0.210 HD
ENDBRANCH  16  24
ENDBRANCH   1  15
TORSDOF 3
ENDMDL
MODEL 3
REMARK VINA RESULT:      -7.5      4.071      8.124
REMARK  Name = 
REMARK  3 active torsions:
REMARK  status: ('A' for Active; 'I' for Inactive)
REMARK    1  A    between atoms: C_2  and  N_13
REMARK    2  A    between atoms: C_10  and  O_12
REMARK    3  A    between atoms: C_14  and  C_16
REMARK                            x       y       z     vdW  Elec       q    Type
REMARK                         _______ _______ _______ _____ _____    ______ ____
ROOT
ATOM      1  N   UNL     1       8.448  -2.933  24.479  0.00  0.00    -0.304 N 
ATOM      2  H   UNL     1       7.799  -2.358  24.994  0.00  0.00    +0.149 HD
ATOM      3  C   UNL     1       9.604  -2.345  24.021  0.00  0.00    +0.261 C 
ATOM      4  O   UNL     1      10.553  -2.991  23.591  0.00  0.00    -0.269 OA
ENDROOT
BRANCH   3   5
ATOM      5  C   UNL     1       9.622  -0.902  24.099  0.00  0.00    +0.103 A 
ATOM      6  N   UNL     1       8.588  -0.201  24.729  0.00  0.00    -0.345 N 
ATOM      7  H   UNL     1       7.787  -0.636  25.172  0.00  0.00    +0.167 HD
ATOM      8  C   UNL     1       8.841   1.120  24.596  0.00  0.00    +0.087 A 
ATOM      9  S   UNL     1       8.098   2.550  25.004  0.00  0.00    -0.059 S 
ATOM     10  C   UNL     1       9.399   3.407  24.257  0.00  0.00    +0.081 A 
ATOM     11  C   UNL     1      10.385   2.592  23.727  0.00  0.00    +0.037 A 
ATOM     12 CL   UNL     1       9.363   5.125  24.221  0.00  0.00    -0.076 Cl
ATOM     13  C   UNL     1       9.998   1.274  23.949  0.00  0.00    +0.009 A 
ATOM     14  C   UNL     1      10.548   0.041  23.632  0.00  0.00    +0.041 A 
ENDBRANCH   3   5
BRANCH   1  15
ATOM     15  C   UNL     1       8.304  -4.387  24.567  0.00  0.00    +0.110 C 
ATOM     16  C   UNL     1       7.656  -4.829  25.916  0.00  0.00    +0.165 C 
ATOM     17  C   UNL     1       6.416  -5.556  25.503  0.00  0.00    -0.014 A 
ATOM     18  C   UNL     1       5.451  -6.117  26.329  0.00  0.00    +0.006 A 
ATOM     19  C   UNL     1       4.335  -6.716  25.742  0.00  0.00    +0.000 A 
ATOM     20  C   UNL     1       4.198  -6.751  24.346  0.00  0.00    +0.000 A 
ATOM     21  C   UNL     1       5.177  -6.194  23.524  0.00  0.00    +0.004 A 
ATOM     22  C   UNL     1       6.279  -5.598  24.118  0.00  0.00    -0.040 A 
ATOM     23  C   UNL     1       7.428  -4.949  23.417  0.00  0.00    +0.060 C 
BRANCH  16  24
ATOM     24  O   UNL     1       8.540  -5.666  26.650  0.00  0.00    -0.385 OA
ATOM     25  H   UNL     1       7.997  -6.266  27.190  0.00  0.00    +0.210 HD
ENDBRANCH  16  24
ENDBRANCH   1  15
TORSDOF 3
ENDMDL
MODEL 4
REMARK VINA RESULT:      -7.0      2.581      3.463
REMARK  Name = 
REMARK  3 active torsions:
REMARK  status: ('A' for Active; 'I' for Inactive)
REMARK    1  A    between atoms: C_2  and  N_13
REMARK    2  A    between atoms: C_10  and  O_12
REMARK    3  A    between atoms: C_14  and  C_16
REMARK                            x       y       z     vdW  Elec       q    Type
REMARK                         _______ _______ _______ _____ _____    ______ ____
ROOT
ATOM      1  N   UNL     1       9.235  -0.247  23.817  0.00  0.00    -0.304 N 
ATOM      2  H   UNL     1       8.626  -0.036  24.593  0.00  0.00    +0.149 HD
ATOM      3  C   UNL     1       9.351  -1.563  23.431  0.00  0.00    +0.261 C 
ATOM      4  O   UNL     1       9.874  -1.901  22.375  0.00  0.00    -0.269 OA
ENDROOT
BRANCH   3   5
ATOM      5  C   UNL     1       8.794  -2.519  24.360  0.00  0.00    +0.103 A 
ATOM      6  N   UNL     1       7.562  -2.286  24.982  0.00  0.00    -0.345 N 
ATOM      7  H   UNL     1       6.985  -1.468  24.825  0.00  0.00    +0.167 HD
ATOM      8  C   UNL     1       7.327  -3.309  25.834  0.00  0.00    +0.087 A 
ATOM      9  S   UNL     1       6.157  -3.734  26.936  0.00  0.00    -0.059 S 
ATOM     10  C   UNL     1       7.064  -5.156  27.309  0.00  0.00    +0.081 A 
ATOM     11  C   UNL     1       8.231  -5.294  26.577  0.00  0.00    +0.037 A 
ATOM     12 CL   UNL     1       6.480  -6.233  28.514  0.00  0.00    -0.076 Cl
ATOM     13  C   UNL     1       8.331  -4.185  25.742  0.00  0.00    +0.009 A 
ATOM     14  C   UNL     1       9.270  -3.755  24.817  0.00  0.00    +0.041 A 
ENDBRANCH   3   5
BRANCH   1  15
ATOM     15  C   UNL     1       9.653   0.852  22.947  0.00  0.00    +0.110 C 
ATOM     16  C   UNL     1       8.453   1.459  22.155  0.00  0.00    +0.165 C 
ATOM     17  C   UNL     1       8.426   2.893  22.577  0.00  0.00    -0.014 A 
ATOM     18  C   UNL     1       7.517   3.870  22.194  0.00  0.00    +0.006 A 
ATOM     19  C   UNL     1       7.638   5.149  22.742  0.00  0.00    +0.000 A 
ATOM     20  C   UNL     1       8.661   5.436  23.657  0.00  0.00    +0.000 A 
ATOM     21  C   UNL     1       9.577   4.452  24.028  0.00  0.00    +0.004 A 
ATOM     22  C   UNL     1       9.444   3.184  23.481  0.00  0.00    -0.040 A 
ATOM     23  C   UNL     1      10.316   2.002  23.750  0.00  0.00    +0.060 C 
BRANCH  16  24
ATOM     24  O   UNL     1       8.654   1.324  20.754  0.00  0.00    -0.385 OA
ATOM     25  H   UNL     1       9.613   1.281  20.597  0.00  0.00    +0.210 HD
ENDBRANCH  16  24
ENDBRANCH   1  15
TORSDOF 3
ENDMDL
MODEL 5
REMARK VINA RESULT:      -7.0      4.076      8.291
REMARK  Name = 
REMARK  3 active torsions:
REMARK  status: ('A' for Active; 'I' for Inactive)
REMARK    1  A    between atoms: C_2  and  N_13
REMARK    2  A    between atoms: C_10  and  O_12
REMARK    3  A    between atoms: C_14  and  C_16
REMARK                            x       y       z     vdW  Elec       q    Type
REMARK                         _______ _______ _______ _____ _____    ______ ____
ROOT
ATOM      1  N   UNL     1       7.830  -3.644  24.899  0.00  0.00    -0.304 N 
ATOM      2  H   UNL     1       7.149  -2.947  25.163  0.00  0.00    +0.149 HD
ATOM      3  C   UNL     1       9.091  -3.212  24.561  0.00  0.00    +0.261 C 
ATOM      4  O   UNL     1      10.046  -3.974  24.449  0.00  0.00    -0.269 OA
ENDROOT
BRANCH   3   5
ATOM      5  C   UNL     1       9.211  -1.786  24.360  0.00  0.00    +0.103 A 
ATOM      6  N   UNL     1       9.508  -1.258  23.099  0.00  0.00    -0.345 N 
ATOM      7  H   UNL     1       9.643  -1.813  22.262  0.00  0.00    +0.167 HD
ATOM      8  C   UNL     1       9.617   0.083  23.226  0.00  0.00    +0.087 A 
ATOM      9  S   UNL     1       9.986   1.374  22.246  0.00  0.00    -0.059 S 
ATOM     10  C   UNL     1       9.807   2.423  23.607  0.00  0.00    +0.081 A 
ATOM     11  C   UNL     1       9.451   1.777  24.778  0.00  0.00    +0.037 A 
ATOM     12 CL   UNL     1      10.083   4.108  23.411  0.00  0.00    -0.076 Cl
ATOM     13  C   UNL     1       9.364   0.418  24.493  0.00  0.00    +0.009 A 
ATOM     14  C   UNL     1       9.080  -0.710  25.248  0.00  0.00    +0.041 A 
ENDBRANCH   3   5
BRANCH   1  15
ATOM     15  C   UNL     1       7.557  -5.041  25.237  0.00  0.00    +0.110 C 
ATOM     16  C   UNL     1       7.128  -5.208  26.729  0.00  0.00    +0.165 C 
ATOM     17  C   UNL     1       5.765  -5.819  26.649  0.00  0.00    -0.014 A 
ATOM     18  C   UNL     1       4.917  -6.133  27.702  0.00  0.00    +0.006 A 
ATOM     19  C   UNL     1       3.656  -6.659  27.412  0.00  0.00    +0.000 A 
ATOM     20  C   UNL     1       3.261  -6.866  26.082  0.00  0.00    +0.000 A 
ATOM     21  C   UNL     1       4.124  -6.557  25.031  0.00  0.00    +0.004 A 
ATOM     22  C   UNL     1       5.371  -6.032  25.331  0.00  0.00    -0.040 A 
ATOM     23  C   UNL     1       6.431  -5.638  24.354  0.00  0.00    +0.060 C 
BRANCH  16  24
ATOM     24  O   UNL     1       8.042  -6.043  27.427  0.00  0.00    -0.385 OA
ATOM     25  H   UNL     1       8.513  -6.580  26.766  0.00  0.00    +0.210 HD
ENDBRANCH  16  24
ENDBRANCH   1  15
TORSDOF 3
ENDMDL
MODEL 6
REMARK VINA RESULT:      -6.9      4.352      8.223
REMARK  Name = 
REMARK  3 active torsions:
REMARK  status: ('A' for Active; 'I' for Inactive)
REMARK    1  A    between atoms: C_2  and  N_13
REMARK    2  A    between atoms: C_10  and  O_12
REMARK    3  A    between atoms: C_14  and  C_16
REMARK                            x       y       z     vdW  Elec       q    Type
REMARK                         _______ _______ _______ _____ _____    ______ ____
ROOT
ATOM      1  N   UNL     1       8.290  -2.059  23.119  0.00  0.00    -0.304 N 
ATOM      2  H   UNL     1       7.555  -1.523  23.557  0.00  0.00    +0.149 HD
ATOM      3  C   UNL     1       9.513  -1.453  22.950  0.00  0.00    +0.261 C 
ATOM      4  O   UNL     1      10.526  -2.074  22.645  0.00  0.00    -0.269 OA
ENDROOT
BRANCH   3   5
ATOM      5  C   UNL     1       9.519  -0.025  23.174  0.00  0.00    +0.103 A 
ATOM      6  N   UNL     1       8.324   0.701  23.222  0.00  0.00    -0.345 N 
ATOM      7  H   UNL     1       7.401   0.295  23.121  0.00  0.00    +0.167 HD
ATOM      8  C   UNL     1       8.638   2.006  23.381  0.00  0.00    +0.087 A 
ATOM      9  S   UNL     1       7.825   3.453  23.474  0.00  0.00    -0.059 S 
ATOM     10  C   UNL     1       9.342   4.264  23.630  0.00  0.00    +0.081 A 
ATOM     11  C   UNL     1      10.439   3.421  23.629  0.00  0.00    +0.037 A 
ATOM     12 CL   UNL     1       9.369   5.978  23.759  0.00  0.00    -0.076 Cl
ATOM     13  C   UNL     1       9.965   2.122  23.473  0.00  0.00    +0.009 A 
ATOM     14  C   UNL     1      10.571   0.879  23.374  0.00  0.00    +0.041 A 
ENDBRANCH   3   5
BRANCH   1  15
ATOM     15  C   UNL     1       8.129  -3.511  23.032  0.00  0.00    +0.110 C 
ATOM     16  C   UNL     1       8.233  -4.195  24.431  0.00  0.00    +0.165 C 
ATOM     17  C   UNL     1       6.916  -4.885  24.597  0.00  0.00    -0.014 A 
ATOM     18  C   UNL     1       6.474  -5.609  25.696  0.00  0.00    +0.006 A 
ATOM     19  C   UNL     1       5.183  -6.140  25.673  0.00  0.00    +0.000 A 
ATOM     20  C   UNL     1       4.355  -5.946  24.557  0.00  0.00    +0.000 A 
ATOM     21  C   UNL     1       4.811  -5.226  23.453  0.00  0.00    +0.004 A 
ATOM     22  C   UNL     1       6.094  -4.700  23.490  0.00  0.00    -0.040 A 
ATOM     23  C   UNL     1       6.761  -3.903  22.417  0.00  0.00    +0.060 C 
BRANCH  16  24
ATOM     24  O   UNL     1       9.318  -5.112  24.466  0.00  0.00    -0.385 OA
ATOM     25  H   UNL     1       9.158  -5.783  23.780  0.00  0.00    +0.210 HD
ENDBRANCH  16  24
ENDBRANCH   1  15
TORSDOF 3
ENDMDL
MODEL 7
REMARK VINA RESULT:      -6.9      2.158      3.121
REMARK  Name = 
REMARK  3 active torsions:
REMARK  status: ('A' for Active; 'I' for Inactive)
REMARK    1  A    between atoms: C_2  and  N_13
REMARK    2  A    between atoms: C_10  and  O_12
REMARK    3  A    between atoms: C_14  and  C_16
REMARK                            x       y       z     vdW  Elec       q    Type
REMARK                         _______ _______ _______ _____ _____    ______ ____
ROOT
ATOM      1  N   UNL     1       8.622  -0.426  23.727  0.00  0.00    -0.304 N 
ATOM      2  H   UNL     1       7.754  -0.394  24.241  0.00  0.00    +0.149 HD
ATOM      3  C   UNL     1       8.910  -1.573  23.025  0.00  0.00    +0.261 C 
ATOM      4  O   UNL     1       9.809  -1.635  22.194  0.00  0.00    -0.269 OA
ENDROOT
BRANCH   3   5
ATOM      5  C   UNL     1       8.059  -2.701  23.330  0.00  0.00    +0.103 A 
ATOM      6  N   UNL     1       7.464  -3.451  22.309  0.00  0.00    -0.345 N 
ATOM      7  H   UNL     1       7.590  -3.275  21.320  0.00  0.00    +0.167 HD
ATOM      8  C   UNL     1       6.685  -4.392  22.887  0.00  0.00    +0.087 A 
ATOM      9  S   UNL     1       5.649  -5.593  22.387  0.00  0.00    -0.059 S 
ATOM     10  C   UNL     1       5.334  -5.973  24.043  0.00  0.00    +0.081 A 
ATOM     11  C   UNL     1       6.036  -5.195  24.947  0.00  0.00    +0.037 A 
ATOM     12 CL   UNL     1       4.217  -7.224  24.420  0.00  0.00    -0.076 Cl
ATOM     13  C   UNL     1       6.797  -4.290  24.214  0.00  0.00    +0.009 A 
ATOM     14  C   UNL     1       7.664  -3.262  24.552  0.00  0.00    +0.041 A 
ENDBRANCH   3   5
BRANCH   1  15
ATOM     15  C   UNL     1       9.318   0.834  23.466  0.00  0.00    +0.110 C 
ATOM     16  C   UNL     1       8.624   1.663  22.339  0.00  0.00    +0.165 C 
ATOM     17  C   UNL     1       8.262   2.952  23.005  0.00  0.00    -0.014 A 
ATOM     18  C   UNL     1       7.582   4.027  22.450  0.00  0.00    +0.006 A 
ATOM     19  C   UNL     1       7.298   5.129  23.260  0.00  0.00    +0.000 A 
ATOM     20  C   UNL     1       7.699   5.145  24.604  0.00  0.00    +0.000 A 
ATOM     21  C   UNL     1       8.391   4.065  25.150  0.00  0.00    +0.004 A 
ATOM     22  C   UNL     1       8.663   2.974  24.338  0.00  0.00    -0.040 A 
ATOM     23  C   UNL     1       9.386   1.728  24.732  0.00  0.00    +0.060 C 
BRANCH  16  24
ATOM     24  O   UNL     1       9.508   1.863  21.244  0.00  0.00    -0.385 OA
ATOM     25  H   UNL     1       9.508   2.813  21.036  0.00  0.00    +0.210 HD
ENDBRANCH  16  24
ENDBRANCH   1  15
TORSDOF 3
ENDMDL
MODEL 8
REMARK VINA RESULT:      -6.9      4.864      8.263
REMARK  Name = 
REMARK  3 active torsions:
REMARK  status: ('A' for Active; 'I' for Inactive)
REMARK    1  A    between atoms: C_2  and  N_13
REMARK    2  A    between atoms: C_10  and  O_12
REMARK    3  A    between atoms: C_14  and  C_16
REMARK                            x       y       z     vdW  Elec       q    Type
REMARK                         _______ _______ _______ _____ _____    ______ ____
ROOT
ATOM      1  N   UNL     1       8.368  -1.642  24.803  0.00  0.00    -0.304 N 
ATOM      2  H   UNL     1       8.134  -1.280  23.890  0.00  0.00    +0.149 HD
ATOM      3  C   UNL     1       8.669  -0.736  25.794  0.00  0.00    +0.261 C 
ATOM      4  O   UNL     1       8.741  -1.047  26.978  0.00  0.00    -0.269 OA
ENDROOT
BRANCH   3   5
ATOM      5  C   UNL     1       8.880   0.618  25.335  0.00  0.00    +0.103 A 
ATOM      6  N   UNL     1       8.081   1.669  25.800  0.00  0.00    -0.345 N 
ATOM      7  H   UNL     1       7.333   1.565  26.476  0.00  0.00    +0.167 HD
ATOM      8  C   UNL     1       8.464   2.795  25.159  0.00  0.00    +0.087 A 
ATOM      9  S   UNL     1       7.996   4.390  25.113  0.00  0.00    -0.059 S 
ATOM     10  C   UNL     1       9.225   4.687  23.934  0.00  0.00    +0.081 A 
ATOM     11  C   UNL     1       9.982   3.575  23.611  0.00  0.00    +0.037 A 
ATOM     12 CL   UNL     1       9.395   6.267  23.278  0.00  0.00    -0.076 Cl
ATOM     13  C   UNL     1       9.486   2.505  24.351  0.00  0.00    +0.009 A 
ATOM     14  C   UNL     1       9.807   1.159  24.435  0.00  0.00    +0.041 A 
ENDBRANCH   3   5
BRANCH   1  15
ATOM     15  C   UNL     1       8.024  -3.031  25.105  0.00  0.00    +0.110 C 
ATOM     16  C   UNL     1       6.480  -3.256  25.147  0.00  0.00    +0.165 C 
ATOM     17  C   UNL     1       6.234  -4.287  24.092  0.00  0.00    -0.014 A 
ATOM     18  C   UNL     1       5.012  -4.811  23.692  0.00  0.00    +0.006 A 
ATOM     19  C   UNL     1       4.992  -5.738  22.648  0.00  0.00    +0.000 A 
ATOM     20  C   UNL     1       6.184  -6.132  22.023  0.00  0.00    +0.000 A 
ATOM     21  C   UNL     1       7.408  -5.608  22.439  0.00  0.00    +0.004 A 
ATOM     22  C   UNL     1       7.416  -4.684  23.473  0.00  0.00    -0.040 A 
ATOM     23  C   UNL     1       8.614  -4.011  24.058  0.00  0.00    +0.060 C 
BRANCH  16  24
ATOM     24  O   UNL     1       6.070  -3.705  26.432  0.00  0.00    -0.385 OA
ATOM     25  H   UNL     1       5.168  -3.374  26.584  0.00  0.00    +0.210 HD
ENDBRANCH  16  24
ENDBRANCH   1  15
TORSDOF 3
ENDMDL
MODEL 9
REMARK VINA RESULT:      -6.8      3.949      8.044
REMARK  Name = 
REMARK  3 active torsions:
REMARK  status: ('A' for Active; 'I' for Inactive)
REMARK    1  A    between atoms: C_2  and  N_13
REMARK    2  A    between atoms: C_10  and  O_12
REMARK    3  A    between atoms: C_14  and  C_16
REMARK                            x       y       z     vdW  Elec       q    Type
REMARK                         _______ _______ _______ _____ _____    ______ ____
ROOT
ATOM      1  N   UNL     1       7.597  -3.161  23.489  0.00  0.00    -0.304 N 
ATOM      2  H   UNL     1       6.714  -2.675  23.544  0.00  0.00    +0.149 HD
ATOM      3  C   UNL     1       8.745  -2.403  23.462  0.00  0.00    +0.261 C 
ATOM      4  O   UNL     1       9.861  -2.882  23.625  0.00  0.00    -0.269 OA
ENDROOT
BRANCH   3   5
ATOM      5  C   UNL     1       8.534  -0.990  23.239  0.00  0.00    +0.103 A 
ATOM      6  N   UNL     1       7.249  -0.438  23.280  0.00  0.00    -0.345 N 
ATOM      7  H   UNL     1       6.405  -0.964  23.474  0.00  0.00    +0.167 HD
ATOM      8  C   UNL     1       7.352   0.875  22.978  0.00  0.00    +0.087 A 
ATOM      9  S   UNL     1       6.321   2.164  22.775  0.00  0.00    -0.059 S 
ATOM     10  C   UNL     1       7.684   3.159  22.404  0.00  0.00    +0.081 A 
ATOM     11  C   UNL     1       8.900   2.501  22.460  0.00  0.00    +0.037 A 
ATOM     12 CL   UNL     1       7.432   4.811  22.001  0.00  0.00    -0.076 Cl
ATOM     13  C   UNL     1       8.639   1.175  22.791  0.00  0.00    +0.009 A 
ATOM     14  C   UNL     1       9.432   0.050  22.964  0.00  0.00    +0.041 A 
ENDBRANCH   3   5
BRANCH   1  15
ATOM     15  C   UNL     1       7.623  -4.589  23.805  0.00  0.00    +0.110 C 
ATOM     16  C   UNL     1       7.492  -4.850  25.339  0.00  0.00    +0.165 C 
ATOM     17  C   UNL     1       6.256  -5.684  25.461  0.00  0.00    -0.014 A 
ATOM     18  C   UNL     1       5.668  -6.156  26.627  0.00  0.00    +0.006 A 
ATOM     19  C   UNL     1       4.481  -6.884  26.529  0.00  0.00    +0.000 A 
ATOM     20  C   UNL     1       3.901  -7.136  25.277  0.00  0.00    +0.000 A 
ATOM     21  C   UNL     1       4.506  -6.667  24.110  0.00  0.00    +0.004 A 
ATOM     22  C   UNL     1       5.682  -5.941  24.220  0.00  0.00    -0.040 A 
ATOM     23  C   UNL     1       6.476  -5.356  23.098  0.00  0.00    +0.060 C 
BRANCH  16  24
ATOM     24  O   UNL     1       8.639  -5.528  25.835  0.00  0.00    -0.385 OA
ATOM     25  H   UNL     1       8.390  -5.950  26.675  0.00  0.00    +0.210 HD
ENDBRANCH  16  24
ENDBRANCH   1  15
TORSDOF 3
ENDMDL
