MODEL 1
REMARK VINA RESULT:      -6.5      0.000      0.000
REMARK  Name = 
REMARK  8 active torsions:
REMARK  status: ('A' for Active; 'I' for Inactive)
REMARK    1  A    between atoms: C_1  and  N_2
REMARK    2  A    between atoms: N_2  and  C_3
REMARK    3  A    between atoms: N_2  and  C_4
REMARK    4  A    between atoms: C_4  and  C_5
REMARK    5  A    between atoms: C_5  and  C_6
REMARK    6  A    between atoms: C_12  and  C_13
REMARK    7  A    between atoms: C_13  and  S_14
REMARK    8  A    between atoms: S_14  and  N_17
REMARK                            x       y       z     vdW  Elec       q    Type
REMARK                         _______ _______ _______ _____ _____    ______ ____
ROOT
ATOM      1  C   UNL     1       5.280  -5.289  24.820  0.00  0.00    -0.021 A 
ATOM      2  C   UNL     1       6.405  -4.497  25.229  0.00  0.00    +0.003 A 
ATOM      3  C   UNL     1       6.987  -3.291  24.773  0.00  0.00    +0.015 A 
ATOM      4  C   UNL     1       8.104  -2.741  25.432  0.00  0.00    -0.024 A 
ATOM      5  C   UNL     1       8.641  -3.420  26.534  0.00  0.00    +0.007 A 
ATOM      6  C   UNL     1       8.080  -4.609  27.013  0.00  0.00    +0.026 A 
ATOM      7  C   UNL     1       6.971  -5.123  26.337  0.00  0.00    +0.047 A 
ATOM      8  N   UNL     1       6.239  -6.261  26.582  0.00  0.00    -0.360 N 
ATOM      9  H   UNL     1       6.423  -6.909  27.335  0.00  0.00    +0.165 HD
ATOM     10  C   UNL     1       5.230  -6.380  25.667  0.00  0.00    +0.087 A 
ENDROOT
BRANCH   1  11
ATOM     11  C   UNL     1       4.319  -4.992  23.706  0.00  0.00    +0.052 C 
BRANCH  11  12
ATOM     12  C   UNL     1       4.664  -5.788  22.432  0.00  0.00    +0.088 C 
BRANCH  12  14
ATOM     13  C   UNL     1       5.529  -3.659  21.732  0.00  0.00    +0.104 C 
ATOM     14  N   UNL     1       5.588  -5.108  21.500  0.00  0.00    -0.308 NA
ATOM     15  C   UNL     1       6.967  -5.571  21.661  0.00  0.00    +0.104 C 
ENDBRANCH  12  14
ENDBRANCH  11  12
ENDBRANCH   1  11
BRANCH   4  16
ATOM     16  C   UNL     1       8.724  -1.455  24.921  0.00  0.00    +0.220 C 
BRANCH  16  17
ATOM     17  S   UNL     1       9.526  -1.745  23.329  0.00  0.00    +0.036 S 
ATOM     18  O   UNL     1       8.517  -1.844  22.289  0.00  0.00    -0.158 OA
ATOM     19  O   UNL     1      10.544  -2.767  23.476  0.00  0.00    -0.158 OA
BRANCH  17  20
ATOM     20  N   UNL     1      10.363  -0.291  23.035  0.00  0.00    -0.181 NA
ATOM     21  C   UNL     1      10.666   0.595  24.188  0.00  0.00    +0.109 C 
ATOM     22  C   UNL     1      10.419   2.024  23.712  0.00  0.00    +0.018 C 
ATOM     23  C   UNL     1      10.290   1.931  22.204  0.00  0.00    +0.018 C 
ATOM     24  C   UNL     1       9.718   0.544  21.984  0.00  0.00    +0.109 C 
ENDBRANCH  17  20
ENDBRANCH  16  17
ENDBRANCH   4  16
TORSDOF 6
ENDMDL
MODEL 2
REMARK VINA RESULT:      -6.4      1.535      3.436
REMARK  Name = 
REMARK  8 active torsions:
REMARK  status: ('A' for Active; 'I' for Inactive)
REMARK    1  A    between atoms: C_1  and  N_2
REMARK    2  A    between atoms: N_2  and  C_3
REMARK    3  A    between atoms: N_2  and  C_4
REMARK    4  A    between atoms: C_4  and  C_5
REMARK    5  A    between atoms: C_5  and  C_6
REMARK    6  A    between atoms: C_12  and  C_13
REMARK    7  A    between atoms: C_13  and  S_14
REMARK    8  A    between atoms: S_14  and  N_17
REMARK                            x       y       z     vdW  Elec       q    Type
REMARK                         _______ _______ _______ _____ _____    ______ ____
ROOT
ATOM      1  C   UNL     1       4.631  -5.508  25.083  0.00  0.00    -0.021 A 
ATOM      2  C   UNL     1       5.525  -4.935  24.118  0.00  0.00    +0.003 A 
ATOM      3  C   UNL     1       6.189  -3.691  23.998  0.00  0.00    +0.015 A 
ATOM      4  C   UNL     1       7.051  -3.442  22.911  0.00  0.00    -0.024 A 
ATOM      5  C   UNL     1       7.221  -4.439  21.941  0.00  0.00    +0.007 A 
ATOM      6  C   UNL     1       6.584  -5.681  22.039  0.00  0.00    +0.026 A 
ATOM      7  C   UNL     1       5.740  -5.895  23.132  0.00  0.00    +0.047 A 
ATOM      8  N   UNL     1       4.993  -7.000  23.467  0.00  0.00    -0.360 N 
ATOM      9  H   UNL     1       4.962  -7.854  22.928  0.00  0.00    +0.165 HD
ATOM     10  C   UNL     1       4.309  -6.773  24.629  0.00  0.00    +0.087 A 
ENDROOT
BRANCH   1  11
ATOM     11  C   UNL     1       4.147  -4.880  26.357  0.00  0.00    +0.052 C 
BRANCH  11  12
ATOM     12  C   UNL     1       5.298  -4.672  27.361  0.00  0.00    +0.088 C 
BRANCH  12  14
ATOM     13  C   UNL     1       7.587  -5.357  27.123  0.00  0.00    +0.104 C 
ATOM     14  N   UNL     1       6.237  -5.807  27.482  0.00  0.00    -0.308 NA
ATOM     15  C   UNL     1       6.252  -6.364  28.836  0.00  0.00    +0.104 C 
ENDBRANCH  12  14
ENDBRANCH  11  12
ENDBRANCH   1  11
BRANCH   4  16
ATOM     16  C   UNL     1       7.744  -2.100  22.790  0.00  0.00    +0.220 C 
BRANCH  16  17
ATOM     17  S   UNL     1       9.122  -2.009  23.954  0.00  0.00    +0.036 S 
ATOM     18  O   UNL     1       9.955  -3.190  23.813  0.00  0.00    -0.158 OA
ATOM     19  O   UNL     1       8.634  -1.595  25.254  0.00  0.00    -0.158 OA
BRANCH  17  20
ATOM     20  N   UNL     1      10.052  -0.707  23.368  0.00  0.00    -0.181 NA
ATOM     21  C   UNL     1      10.505   0.327  24.333  0.00  0.00    +0.109 C 
ATOM     22  C   UNL     1      10.342   1.674  23.633  0.00  0.00    +0.018 C 
ATOM     23  C   UNL     1      10.102   1.343  22.173  0.00  0.00    +0.018 C 
ATOM     24  C   UNL     1       9.405  -0.002  22.227  0.00  0.00    +0.109 C 
ENDBRANCH  17  20
ENDBRANCH  16  17
ENDBRANCH   4  16
TORSDOF 6
ENDMDL
MODEL 3
REMARK VINA RESULT:      -6.4      1.592      2.236
REMARK  Name = 
REMARK  8 active torsions:
REMARK  status: ('A' for Active; 'I' for Inactive)
REMARK    1  A    between atoms: C_1  and  N_2
REMARK    2  A    between atoms: N_2  and  C_3
REMARK    3  A    between atoms: N_2  and  C_4
REMARK    4  A    between atoms: C_4  and  C_5
REMARK    5  A    between atoms: C_5  and  C_6
REMARK    6  A    between atoms: C_12  and  C_13
REMARK    7  A    between atoms: C_13  and  S_14
REMARK    8  A    between atoms: S_14  and  N_17
REMARK                            x       y       z     vdW  Elec       q    Type
REMARK                         _______ _______ _______ _____ _____    ______ ____
ROOT
ATOM      1  C   UNL     1       5.197  -6.064  24.705  0.00  0.00    -0.021 A 
ATOM      2  C   UNL     1       6.415  -5.371  25.013  0.00  0.00    +0.003 A 
ATOM      3  C   UNL     1       7.297  -4.542  24.280  0.00  0.00    +0.015 A 
ATOM      4  C   UNL     1       8.427  -3.972  24.901  0.00  0.00    -0.024 A 
ATOM      5  C   UNL     1       8.673  -4.258  26.251  0.00  0.00    +0.007 A 
ATOM      6  C   UNL     1       7.813  -5.067  27.002  0.00  0.00    +0.026 A 
ATOM      7  C   UNL     1       6.700  -5.612  26.355  0.00  0.00    +0.047 A 
ATOM      8  N   UNL     1       5.712  -6.435  26.842  0.00  0.00    -0.360 N 
ATOM      9  H   UNL     1       5.664  -6.768  27.794  0.00  0.00    +0.165 HD
ATOM     10  C   UNL     1       4.813  -6.727  25.855  0.00  0.00    +0.087 A 
ENDROOT
BRANCH   1  11
ATOM     11  C   UNL     1       4.458  -6.062  23.399  0.00  0.00    +0.052 C 
BRANCH  11  12
ATOM     12  C   UNL     1       3.284  -5.063  23.412  0.00  0.00    +0.088 C 
BRANCH  12  14
ATOM     13  C   UNL     1       1.957  -7.033  23.057  0.00  0.00    +0.104 C 
ATOM     14  N   UNL     1       2.015  -5.579  22.857  0.00  0.00    -0.308 NA
ATOM     15  C   UNL     1       0.849  -4.955  23.483  0.00  0.00    +0.104 C 
ENDBRANCH  12  14
ENDBRANCH  11  12
ENDBRANCH   1  11
BRANCH   4  16
ATOM     16  C   UNL     1       9.369  -3.098  24.097  0.00  0.00    +0.220 C 
BRANCH  16  17
ATOM     17  S   UNL     1       8.450  -1.752  23.319  0.00  0.00    +0.036 S 
ATOM     18  O   UNL     1       7.564  -1.142  24.295  0.00  0.00    -0.158 OA
ATOM     19  O   UNL     1       7.949  -2.186  22.030  0.00  0.00    -0.158 OA
BRANCH  17  20
ATOM     20  N   UNL     1       9.652  -0.591  22.986  0.00  0.00    -0.181 NA
ATOM     21  C   UNL     1      10.313   0.088  24.130  0.00  0.00    +0.109 C 
ATOM     22  C   UNL     1      10.460   1.555  23.735  0.00  0.00    +0.018 C 
ATOM     23  C   UNL     1      10.169   1.604  22.248  0.00  0.00    +0.018 C 
ATOM     24  C   UNL     1       9.190   0.465  22.043  0.00  0.00    +0.109 C 
ENDBRANCH  17  20
ENDBRANCH  16  17
ENDBRANCH   4  16
TORSDOF 6
ENDMDL
MODEL 4
REMARK VINA RESULT:      -6.3      1.998      2.656
REMARK  Name = 
REMARK  8 active torsions:
REMARK  status: ('A' for Active; 'I' for Inactive)
REMARK    1  A    between atoms: C_1  and  N_2
REMARK    2  A    between atoms: N_2  and  C_3
REMARK    3  A    between atoms: N_2  and  C_4
REMARK    4  A    between atoms: C_4  and  C_5
REMARK    5  A    between atoms: C_5  and  C_6
REMARK    6  A    between atoms: C_12  and  C_13
REMARK    7  A    between atoms: C_13  and  S_14
REMARK    8  A    between atoms: S_14  and  N_17
REMARK                            x       y       z     vdW  Elec       q    Type
REMARK                         _______ _______ _______ _____ _____    ______ ____
ROOT
ATOM      1  C   UNL     1       5.697  -4.917  26.798  0.00  0.00    -0.021 A 
ATOM      2  C   UNL     1       6.775  -4.647  25.890  0.00  0.00    +0.003 A 
ATOM      3  C   UNL     1       6.908  -3.879  24.709  0.00  0.00    +0.015 A 
ATOM      4  C   UNL     1       8.150  -3.791  24.049  0.00  0.00    -0.024 A 
ATOM      5  C   UNL     1       9.245  -4.493  24.571  0.00  0.00    +0.007 A 
ATOM      6  C   UNL     1       9.144  -5.252  25.742  0.00  0.00    +0.026 A 
ATOM      7  C   UNL     1       7.899  -5.314  26.373  0.00  0.00    +0.047 A 
ATOM      8  N   UNL     1       7.520  -5.982  27.513  0.00  0.00    -0.360 N 
ATOM      9  H   UNL     1       8.139  -6.547  28.077  0.00  0.00    +0.165 HD
ATOM     10  C   UNL     1       6.195  -5.764  27.770  0.00  0.00    +0.087 A 
ENDROOT
BRANCH   1  11
ATOM     11  C   UNL     1       4.299  -4.374  26.733  0.00  0.00    +0.052 C 
BRANCH  11  12
ATOM     12  C   UNL     1       3.321  -5.395  26.121  0.00  0.00    +0.088 C 
BRANCH  12  14
ATOM     13  C   UNL     1       3.263  -7.441  24.865  0.00  0.00    +0.104 C 
ATOM     14  N   UNL     1       3.808  -6.079  24.905  0.00  0.00    -0.308 NA
ATOM     15  C   UNL     1       3.426  -5.365  23.685  0.00  0.00    +0.104 C 
ENDBRANCH  12  14
ENDBRANCH  11  12
ENDBRANCH   1  11
BRANCH   4  16
ATOM     16  C   UNL     1       8.272  -2.975  22.777  0.00  0.00    +0.220 C 
BRANCH  16  17
ATOM     17  S   UNL     1       9.372  -1.569  23.047  0.00  0.00    +0.036 S 
ATOM     18  O   UNL     1      10.646  -1.819  22.396  0.00  0.00    -0.158 OA
ATOM     19  O   UNL     1       9.316  -1.168  24.438  0.00  0.00    -0.158 OA
BRANCH  17  20
ATOM     20  N   UNL     1       8.634  -0.312  22.167  0.00  0.00    -0.181 NA
ATOM     21  C   UNL     1       9.488   0.796  21.666  0.00  0.00    +0.109 C 
ATOM     22  C   UNL     1       8.698   2.083  21.884  0.00  0.00    +0.018 C 
ATOM     23  C   UNL     1       7.285   1.640  22.208  0.00  0.00    +0.018 C 
ATOM     24  C   UNL     1       7.483   0.299  22.888  0.00  0.00    +0.109 C 
ENDBRANCH  17  20
ENDBRANCH  16  17
ENDBRANCH   4  16
TORSDOF 6
ENDMDL
MODEL 5
REMARK VINA RESULT:      -6.2      3.015      6.866
REMARK  Name = 
REMARK  8 active torsions:
REMARK  status: ('A' for Active; 'I' for Inactive)
REMARK    1  A    between atoms: C_1  and  N_2
REMARK    2  A    between atoms: N_2  and  C_3
REMARK    3  A    between atoms: N_2  and  C_4
REMARK    4  A    between atoms: C_4  and  C_5
REMARK    5  A    between atoms: C_5  and  C_6
REMARK    6  A    between atoms: C_12  and  C_13
REMARK    7  A    between atoms: C_13  and  S_14
REMARK    8  A    between atoms: S_14  and  N_17
REMARK                            x       y       z     vdW  Elec       q    Type
REMARK                         _______ _______ _______ _____ _____    ______ ____
ROOT
ATOM      1  C   UNL     1       7.696   0.974  22.627  0.00  0.00    -0.021 A 
ATOM      2  C   UNL     1       8.309  -0.207  23.162  0.00  0.00    +0.003 A 
ATOM      3  C   UNL     1       8.005  -1.086  24.228  0.00  0.00    +0.015 A 
ATOM      4  C   UNL     1       8.816  -2.210  24.483  0.00  0.00    -0.024 A 
ATOM      5  C   UNL     1       9.941  -2.429  23.676  0.00  0.00    +0.007 A 
ATOM      6  C   UNL     1      10.260  -1.582  22.610  0.00  0.00    +0.026 A 
ATOM      7  C   UNL     1       9.432  -0.480  22.383  0.00  0.00    +0.047 A 
ATOM      8  N   UNL     1       9.515   0.505  21.427  0.00  0.00    -0.360 N 
ATOM      9  H   UNL     1      10.234   0.555  20.719  0.00  0.00    +0.165 HD
ATOM     10  C   UNL     1       8.487   1.393  21.573  0.00  0.00    +0.087 A 
ENDROOT
BRANCH   1  11
ATOM     11  C   UNL     1       6.428   1.629  23.092  0.00  0.00    +0.052 C 
BRANCH  11  12
ATOM     12  C   UNL     1       6.126   2.913  22.295  0.00  0.00    +0.088 C 
BRANCH  12  14
ATOM     13  C   UNL     1       7.193   5.063  22.230  0.00  0.00    +0.104 C 
ATOM     14  N   UNL     1       6.344   4.175  23.033  0.00  0.00    -0.308 NA
ATOM     15  C   UNL     1       5.084   4.853  23.343  0.00  0.00    +0.104 C 
ENDBRANCH  12  14
ENDBRANCH  11  12
ENDBRANCH   1  11
BRANCH   4  16
ATOM     16  C   UNL     1       8.484  -3.134  25.638  0.00  0.00    +0.220 C 
BRANCH  16  17
ATOM     17  S   UNL     1       8.197  -4.809  25.027  0.00  0.00    +0.036 S 
ATOM     18  O   UNL     1       7.425  -5.556  26.004  0.00  0.00    -0.158 OA
ATOM     19  O   UNL     1       9.429  -5.346  24.486  0.00  0.00    -0.158 OA
BRANCH  17  20
ATOM     20  N   UNL     1       7.164  -4.573  23.693  0.00  0.00    -0.181 NA
ATOM     21  C   UNL     1       5.704  -4.766  23.888  0.00  0.00    +0.109 C 
ATOM     22  C   UNL     1       5.194  -5.494  22.647  0.00  0.00    +0.018 C 
ATOM     23  C   UNL     1       6.323  -5.408  21.637  0.00  0.00    +0.018 C 
ATOM     24  C   UNL     1       7.567  -5.371  22.503  0.00  0.00    +0.109 C 
ENDBRANCH  17  20
ENDBRANCH  16  17
ENDBRANCH   4  16
TORSDOF 6
ENDMDL
MODEL 6
REMARK VINA RESULT:      -6.2      2.616      7.029
REMARK  Name = 
REMARK  8 active torsions:
REMARK  status: ('A' for Active; 'I' for Inactive)
REMARK    1  A    between atoms: C_1  and  N_2
REMARK    2  A    between atoms: N_2  and  C_3
REMARK    3  A    between atoms: N_2  and  C_4
REMARK    4  A    between atoms: C_4  and  C_5
REMARK    5  A    between atoms: C_5  and  C_6
REMARK    6  A    between atoms: C_12  and  C_13
REMARK    7  A    between atoms: C_13  and  S_14
REMARK    8  A    between atoms: S_14  and  N_17
REMARK                            x       y       z     vdW  Elec       q    Type
REMARK                         _______ _______ _______ _____ _____    ______ ____
ROOT
ATOM      1  C   UNL     1       7.348   1.392  22.630  0.00  0.00    -0.021 A 
ATOM      2  C   UNL     1       8.134   0.232  22.940  0.00  0.00    +0.003 A 
ATOM      3  C   UNL     1       8.073  -0.769  23.938  0.00  0.00    +0.015 A 
ATOM      4  C   UNL     1       9.006  -1.825  23.950  0.00  0.00    -0.024 A 
ATOM      5  C   UNL     1      10.007  -1.855  22.969  0.00  0.00    +0.007 A 
ATOM      6  C   UNL     1      10.084  -0.884  21.965  0.00  0.00    +0.026 A 
ATOM      7  C   UNL     1       9.141   0.147  21.981  0.00  0.00    +0.047 A 
ATOM      8  N   UNL     1       8.992   1.220  21.134  0.00  0.00    -0.360 N 
ATOM      9  H   UNL     1       9.585   1.407  20.339  0.00  0.00    +0.165 HD
ATOM     10  C   UNL     1       7.928   1.985  21.524  0.00  0.00    +0.087 A 
ENDROOT
BRANCH   1  11
ATOM     11  C   UNL     1       6.117   1.871  23.343  0.00  0.00    +0.052 C 
BRANCH  11  12
ATOM     12  C   UNL     1       6.424   3.066  24.267  0.00  0.00    +0.088 C 
BRANCH  12  14
ATOM     13  C   UNL     1       8.435   4.106  25.067  0.00  0.00    +0.104 C 
ATOM     14  N   UNL     1       7.606   2.896  25.138  0.00  0.00    -0.308 NA
ATOM     15  C   UNL     1       7.229   2.645  26.530  0.00  0.00    +0.104 C 
ENDBRANCH  12  14
ENDBRANCH  11  12
ENDBRANCH   1  11
BRANCH   4  16
ATOM     16  C   UNL     1       8.936  -2.882  25.035  0.00  0.00    +0.220 C 
BRANCH  16  17
ATOM     17  S   UNL     1       8.319  -4.433  24.347  0.00  0.00    +0.036 S 
ATOM     18  O   UNL     1       9.360  -5.443  24.418  0.00  0.00    -0.158 OA
ATOM     19  O   UNL     1       7.622  -4.171  23.103  0.00  0.00    -0.158 OA
BRANCH  17  20
ATOM     20  N   UNL     1       7.122  -4.914  25.461  0.00  0.00    -0.181 NA
ATOM     21  C   UNL     1       5.999  -3.982  25.735  0.00  0.00    +0.109 C 
ATOM     22  C   UNL     1       5.742  -4.045  27.238  0.00  0.00    +0.018 C 
ATOM     23  C   UNL     1       6.516  -5.253  27.729  0.00  0.00    +0.018 C 
ATOM     24  C   UNL     1       7.689  -5.333  26.772  0.00  0.00    +0.109 C 
ENDBRANCH  17  20
ENDBRANCH  16  17
ENDBRANCH   4  16
TORSDOF 6
ENDMDL
MODEL 7
REMARK VINA RESULT:      -6.1      3.338      7.360
REMARK  Name = 
REMARK  8 active torsions:
REMARK  status: ('A' for Active; 'I' for Inactive)
REMARK    1  A    between atoms: C_1  and  N_2
REMARK    2  A    between atoms: N_2  and  C_3
REMARK    3  A    between atoms: N_2  and  C_4
REMARK    4  A    between atoms: C_4  and  C_5
REMARK    5  A    between atoms: C_5  and  C_6
REMARK    6  A    between atoms: C_12  and  C_13
REMARK    7  A    between atoms: C_13  and  S_14
REMARK    8  A    between atoms: S_14  and  N_17
REMARK                            x       y       z     vdW  Elec       q    Type
REMARK                         _______ _______ _______ _____ _____    ______ ____
ROOT
ATOM      1  C   UNL     1       7.119   1.967  22.713  0.00  0.00    -0.021 A 
ATOM      2  C   UNL     1       7.729   0.672  22.609  0.00  0.00    +0.003 A 
ATOM      3  C   UNL     1       7.384  -0.626  23.054  0.00  0.00    +0.015 A 
ATOM      4  C   UNL     1       8.207  -1.729  22.752  0.00  0.00    -0.024 A 
ATOM      5  C   UNL     1       9.384  -1.515  22.022  0.00  0.00    +0.007 A 
ATOM      6  C   UNL     1       9.745  -0.244  21.561  0.00  0.00    +0.026 A 
ATOM      7  C   UNL     1       8.903   0.826  21.876  0.00  0.00    +0.047 A 
ATOM      8  N   UNL     1       9.019   2.161  21.564  0.00  0.00    -0.360 N 
ATOM      9  H   UNL     1       9.778   2.559  21.029  0.00  0.00    +0.165 HD
ATOM     10  C   UNL     1       7.961   2.858  22.076  0.00  0.00    +0.087 A 
ENDROOT
BRANCH   1  11
ATOM     11  C   UNL     1       5.809   2.302  23.364  0.00  0.00    +0.052 C 
BRANCH  11  12
ATOM     12  C   UNL     1       5.847   3.688  24.037  0.00  0.00    +0.088 C 
BRANCH  12  14
ATOM     13  C   UNL     1       5.652   5.741  22.806  0.00  0.00    +0.104 C 
ATOM     14  N   UNL     1       4.899   4.679  23.485  0.00  0.00    -0.308 NA
ATOM     15  C   UNL     1       3.958   4.071  22.543  0.00  0.00    +0.104 C 
ENDBRANCH  12  14
ENDBRANCH  11  12
ENDBRANCH   1  11
BRANCH   4  16
ATOM     16  C   UNL     1       7.829  -3.111  23.248  0.00  0.00    +0.220 C 
BRANCH  16  17
ATOM     17  S   UNL     1       8.761  -3.506  24.744  0.00  0.00    +0.036 S 
ATOM     18  O   UNL     1       8.634  -2.418  25.697  0.00  0.00    -0.158 OA
ATOM     19  O   UNL     1      10.064  -4.028  24.381  0.00  0.00    -0.158 OA
BRANCH  17  20
ATOM     20  N   UNL     1       7.902  -4.817  25.412  0.00  0.00    -0.181 NA
ATOM     21  C   UNL     1       6.632  -5.233  24.763  0.00  0.00    +0.109 C 
ATOM     22  C   UNL     1       5.655  -5.553  25.891  0.00  0.00    +0.018 C 
ATOM     23  C   UNL     1       6.498  -5.617  27.149  0.00  0.00    +0.018 C 
ATOM     24  C   UNL     1       7.629  -4.648  26.865  0.00  0.00    +0.109 C 
ENDBRANCH  17  20
ENDBRANCH  16  17
ENDBRANCH   4  16
TORSDOF 6
ENDMDL
MODEL 8
REMARK VINA RESULT:      -6.1      2.548      6.946
REMARK  Name = 
REMARK  8 active torsions:
REMARK  status: ('A' for Active; 'I' for Inactive)
REMARK    1  A    between atoms: C_1  and  N_2
REMARK    2  A    between atoms: N_2  and  C_3
REMARK    3  A    between atoms: N_2  and  C_4
REMARK    4  A    between atoms: C_4  and  C_5
REMARK    5  A    between atoms: C_5  and  C_6
REMARK    6  A    between atoms: C_12  and  C_13
REMARK    7  A    between atoms: C_13  and  S_14
REMARK    8  A    between atoms: S_14  and  N_17
REMARK                            x       y       z     vdW  Elec       q    Type
REMARK                         _______ _______ _______ _____ _____    ______ ____
ROOT
ATOM      1  C   UNL     1       8.571   2.131  23.931  0.00  0.00    -0.021 A 
ATOM      2  C   UNL     1       8.967   0.818  23.511  0.00  0.00    +0.003 A 
ATOM      3  C   UNL     1       9.093  -0.434  24.158  0.00  0.00    +0.015 A 
ATOM      4  C   UNL     1       9.488  -1.578  23.435  0.00  0.00    -0.024 A 
ATOM      5  C   UNL     1       9.775  -1.448  22.069  0.00  0.00    +0.007 A 
ATOM      6  C   UNL     1       9.649  -0.224  21.402  0.00  0.00    +0.026 A 
ATOM      7  C   UNL     1       9.251   0.887  22.149  0.00  0.00    +0.047 A 
ATOM      8  N   UNL     1       9.060   2.191  21.757  0.00  0.00    -0.360 N 
ATOM      9  H   UNL     1       9.189   2.530  20.814  0.00  0.00    +0.165 HD
ATOM     10  C   UNL     1       8.667   2.952  22.823  0.00  0.00    +0.087 A 
ENDROOT
BRANCH   1  11
ATOM     11  C   UNL     1       8.115   2.547  25.299  0.00  0.00    +0.052 C 
BRANCH  11  12
ATOM     12  C   UNL     1       6.582   2.467  25.437  0.00  0.00    +0.088 C 
BRANCH  12  14
ATOM     13  C   UNL     1       5.615   0.271  25.335  0.00  0.00    +0.104 C 
ATOM     14  N   UNL     1       6.084   1.329  26.238  0.00  0.00    -0.308 NA
ATOM     15  C   UNL     1       7.116   0.791  27.126  0.00  0.00    +0.104 C 
ENDBRANCH  12  14
ENDBRANCH  11  12
ENDBRANCH   1  11
BRANCH   4  16
ATOM     16  C   UNL     1       9.632  -2.908  24.146  0.00  0.00    +0.220 C 
BRANCH  16  17
ATOM     17  S   UNL     1       8.116  -3.873  23.964  0.00  0.00    +0.036 S 
ATOM     18  O   UNL     1       8.452  -5.247  23.637  0.00  0.00    -0.158 OA
ATOM     19  O   UNL     1       7.161  -3.132  23.165  0.00  0.00    -0.158 OA
BRANCH  17  20
ATOM     20  N   UNL     1       7.476  -3.910  25.543  0.00  0.00    -0.181 NA
ATOM     21  C   UNL     1       8.209  -4.675  26.584  0.00  0.00    +0.109 C 
ATOM     22  C   UNL     1       7.152  -5.399  27.413  0.00  0.00    +0.018 C 
ATOM     23  C   UNL     1       5.830  -4.770  27.019  0.00  0.00    +0.018 C 
ATOM     24  C   UNL     1       6.055  -4.350  25.579  0.00  0.00    +0.109 C 
ENDBRANCH  17  20
ENDBRANCH  16  17
ENDBRANCH   4  16
TORSDOF 6
ENDMDL
MODEL 9
REMARK VINA RESULT:      -6.1      2.256      6.600
REMARK  Name = 
REMARK  8 active torsions:
REMARK  status: ('A' for Active; 'I' for Inactive)
REMARK    1  A    between atoms: C_1  and  N_2
REMARK    2  A    between atoms: N_2  and  C_3
REMARK    3  A    between atoms: N_2  and  C_4
REMARK    4  A    between atoms: C_4  and  C_5
REMARK    5  A    between atoms: C_5  and  C_6
REMARK    6  A    between atoms: C_12  and  C_13
REMARK    7  A    between atoms: C_13  and  S_14
REMARK    8  A    between atoms: S_14  and  N_17
REMARK                            x       y       z     vdW  Elec       q    Type
REMARK                         _______ _______ _______ _____ _____    ______ ____
ROOT
ATOM      1  C   UNL     1       9.712  -0.535  24.178  0.00  0.00    -0.021 A 
ATOM      2  C   UNL     1       8.941  -1.742  24.259  0.00  0.00    +0.003 A 
ATOM      3  C   UNL     1       8.565  -2.743  23.332  0.00  0.00    +0.015 A 
ATOM      4  C   UNL     1       7.805  -3.854  23.747  0.00  0.00    -0.024 A 
ATOM      5  C   UNL     1       7.410  -3.941  25.089  0.00  0.00    +0.007 A 
ATOM      6  C   UNL     1       7.776  -2.971  26.029  0.00  0.00    +0.026 A 
ATOM      7  C   UNL     1       8.533  -1.884  25.583  0.00  0.00    +0.047 A 
ATOM      8  N   UNL     1       9.014  -0.800  26.279  0.00  0.00    -0.360 N 
ATOM      9  H   UNL     1       8.872  -0.645  27.267  0.00  0.00    +0.165 HD
ATOM     10  C   UNL     1       9.710   0.027  25.441  0.00  0.00    +0.087 A 
ENDROOT
BRANCH   1  11
ATOM     11  C   UNL     1      10.412   0.015  22.970  0.00  0.00    +0.052 C 
BRANCH  11  12
ATOM     12  C   UNL     1      10.027   1.484  22.710  0.00  0.00    +0.088 C 
BRANCH  12  14
ATOM     13  C   UNL     1       8.418   3.072  23.522  0.00  0.00    +0.104 C 
ATOM     14  N   UNL     1       8.585   1.785  22.834  0.00  0.00    -0.308 NA
ATOM     15  C   UNL     1       7.922   1.840  21.531  0.00  0.00    +0.104 C 
ENDBRANCH  12  14
ENDBRANCH  11  12
ENDBRANCH   1  11
BRANCH   4  16
ATOM     16  C   UNL     1       7.399  -4.910  22.738  0.00  0.00    +0.220 C 
BRANCH  16  17
ATOM     17  S   UNL     1       5.909  -4.388  21.862  0.00  0.00    +0.036 S 
ATOM     18  O   UNL     1       5.880  -4.999  20.545  0.00  0.00    -0.158 OA
ATOM     19  O   UNL     1       5.727  -2.959  22.022  0.00  0.00    -0.158 OA
BRANCH  17  20
ATOM     20  N   UNL     1       4.651  -5.121  22.747  0.00  0.00    -0.181 NA
ATOM     21  C   UNL     1       3.944  -4.310  23.772  0.00  0.00    +0.109 C 
ATOM     22  C   UNL     1       3.722  -5.227  24.972  0.00  0.00    +0.018 C 
ATOM     23  C   UNL     1       4.026  -6.626  24.472  0.00  0.00    +0.018 C 
ATOM     24  C   UNL     1       5.065  -6.397  23.392  0.00  0.00    +0.109 C 
ENDBRANCH  17  20
ENDBRANCH  16  17
ENDBRANCH   4  16
TORSDOF 6
ENDMDL
