MODEL 1
REMARK VINA RESULT:      -6.3      0.000      0.000
REMARK  Name = 
REMARK  14 active torsions:
REMARK  status: ('A' for Active; 'I' for Inactive)
REMARK    1  A    between atoms: C_2  and  N_3
REMARK    2  A    between atoms: C_2  and  C_4
REMARK    3  A    between atoms: C_2  and  C_11
REMARK    4  A    between atoms: C_4  and  C_5
REMARK    5  A    between atoms: C_11  and  O_13
REMARK    6  A    between atoms: C_11  and  C_14
REMARK    7  A    between atoms: C_14  and  N_15
REMARK    8  A    between atoms: N_15  and  S_16
REMARK    9  A    between atoms: S_16  and  C_19
REMARK   10  A    between atoms: C_20  and  C_21
REMARK   11  A    between atoms: C_23  and  O_24
REMARK   12  A    between atoms: O_24  and  C_25
REMARK   13  A    between atoms: C_26  and  C_27
REMARK   14  A    between atoms: C_28  and  C_29
REMARK                            x       y       z     vdW  Elec       q    Type
REMARK                         _______ _______ _______ _____ _____    ______ ____
ROOT
ATOM      1  N   UNL     1       5.981  -5.922  25.937  0.00  0.00    -0.187 NA
ATOM      2  H   UNL     1       5.690  -5.360  25.133  0.00  0.00    +0.148 HD
ENDROOT
BRANCH   1   3
ATOM      3  S   UNL     1       6.704  -4.845  27.051  0.00  0.00    +0.059 S 
ATOM      4  O   UNL     1       7.555  -5.671  27.878  0.00  0.00    -0.153 OA
ATOM      5  O   UNL     1       5.626  -4.090  27.649  0.00  0.00    -0.153 OA
BRANCH   3   6
ATOM      6  C   UNL     1       7.659  -3.719  26.009  0.00  0.00    +0.111 A 
ATOM      7  C   UNL     1       7.299  -2.341  25.867  0.00  0.00    -0.018 A 
ATOM      8  C   UNL     1       6.068  -1.801  26.571  0.00  0.00    +0.046 C 
ATOM      9  C   UNL     1       8.096  -1.450  25.049  0.00  0.00    -0.004 A 
ATOM     10  C   UNL     1       7.651  -0.009  24.980  0.00  0.00    +0.048 C 
ATOM     11  C   UNL     1       9.202  -1.973  24.362  0.00  0.00    +0.124 A 
ATOM     12  C   UNL     1       9.500  -3.339  24.500  0.00  0.00    +0.051 A 
ATOM     13  C   UNL     1       8.759  -4.228  25.295  0.00  0.00    -0.020 A 
ATOM     14  C   UNL     1       9.241  -5.654  25.287  0.00  0.00    +0.046 C 
BRANCH  11  15
ATOM     15  O   UNL     1      10.111  -1.405  23.521  0.00  0.00    -0.495 OA
ATOM     16  C   UNL     1       9.863  -1.146  22.157  0.00  0.00    +0.277 C 
ENDBRANCH  11  15
ENDBRANCH   3   6
ENDBRANCH   1   3
BRANCH   1  17
ATOM     17  C   UNL     1       4.929  -6.820  26.499  0.00  0.00    +0.138 C 
BRANCH  17  18
ATOM     18  C   UNL     1       3.608  -6.603  25.726  0.00  0.00    +0.147 C 
BRANCH  18  19
ATOM     19  O   UNL     1       3.225  -5.225  25.839  0.00  0.00    -0.389 OA
ATOM     20  H   UNL     1       3.894  -4.808  26.415  0.00  0.00    +0.210 HD
ENDBRANCH  18  19
BRANCH  18  21
ATOM     21  C   UNL     1       3.722  -7.000  24.225  0.00  0.00    +0.085 C 
BRANCH  21  22
ATOM     22  N   UNL     1       2.767  -8.076  23.894  0.00  0.00    -0.325 NA
ATOM     23  H   UNL     1       1.882  -7.913  24.376  0.00  0.00    +0.119 HD
ATOM     24  H   UNL     1       2.537  -8.009  22.898  0.00  0.00    +0.119 HD
ENDBRANCH  21  22
BRANCH  21  25
ATOM     25  C   UNL     1       3.513  -5.761  23.311  0.00  0.00    +0.056 C 
BRANCH  25  26
ATOM     26  C   UNL     1       4.792  -5.101  22.833  0.00  0.00    -0.046 A 
ATOM     27  C   UNL     1       5.852  -5.870  22.331  0.00  0.00    +0.004 A 
ATOM     28  C   UNL     1       7.024  -5.257  21.882  0.00  0.00    +0.000 A 
ATOM     29  C   UNL     1       7.155  -3.872  21.937  0.00  0.00    +0.000 A 
ATOM     30  C   UNL     1       6.118  -3.097  22.450  0.00  0.00    +0.000 A 
ATOM     31  C   UNL     1       4.943  -3.708  22.898  0.00  0.00    +0.004 A 
ENDBRANCH  25  26
ENDBRANCH  21  25
ENDBRANCH  18  21
ENDBRANCH  17  18
ENDBRANCH   1  17
TORSDOF 10
ENDMDL
MODEL 2
REMARK VINA RESULT:      -6.2      3.611      7.667
REMARK  Name = 
REMARK  14 active torsions:
REMARK  status: ('A' for Active; 'I' for Inactive)
REMARK    1  A    between atoms: C_2  and  N_3
REMARK    2  A    between atoms: C_2  and  C_4
REMARK    3  A    between atoms: C_2  and  C_11
REMARK    4  A    between atoms: C_4  and  C_5
REMARK    5  A    between atoms: C_11  and  O_13
REMARK    6  A    between atoms: C_11  and  C_14
REMARK    7  A    between atoms: C_14  and  N_15
REMARK    8  A    between atoms: N_15  and  S_16
REMARK    9  A    between atoms: S_16  and  C_19
REMARK   10  A    between atoms: C_20  and  C_21
REMARK   11  A    between atoms: C_23  and  O_24
REMARK   12  A    between atoms: O_24  and  C_25
REMARK   13  A    between atoms: C_26  and  C_27
REMARK   14  A    between atoms: C_28  and  C_29
REMARK                            x       y       z     vdW  Elec       q    Type
REMARK                         _______ _______ _______ _____ _____    ______ ____
ROOT
ATOM      1  N   UNL     1       8.234  -2.718  22.974  0.00  0.00    -0.187 NA
ATOM      2  H   UNL     1       8.866  -3.174  22.311  0.00  0.00    +0.148 HD
ENDROOT
BRANCH   1   3
ATOM      3  S   UNL     1       8.445  -3.510  24.474  0.00  0.00    +0.059 S 
ATOM      4  O   UNL     1       8.290  -2.477  25.473  0.00  0.00    -0.153 OA
ATOM      5  O   UNL     1       9.687  -4.243  24.378  0.00  0.00    -0.153 OA
BRANCH   3   6
ATOM      6  C   UNL     1       7.096  -4.710  24.526  0.00  0.00    +0.111 A 
ATOM      7  C   UNL     1       6.577  -5.205  25.765  0.00  0.00    -0.018 A 
ATOM      8  C   UNL     1       7.186  -4.750  27.078  0.00  0.00    +0.046 C 
ATOM      9  C   UNL     1       5.476  -6.144  25.782  0.00  0.00    -0.004 A 
ATOM     10  C   UNL     1       4.982  -6.590  27.138  0.00  0.00    +0.048 C 
ATOM     11  C   UNL     1       4.955  -6.597  24.560  0.00  0.00    +0.124 A 
ATOM     12  C   UNL     1       5.516  -6.115  23.366  0.00  0.00    +0.051 A 
ATOM     13  C   UNL     1       6.574  -5.193  23.311  0.00  0.00    -0.020 A 
ATOM     14  C   UNL     1       7.035  -4.823  21.927  0.00  0.00    +0.046 C 
BRANCH  11  15
ATOM     15  O   UNL     1       3.956  -7.473  24.257  0.00  0.00    -0.495 OA
ATOM     16  C   UNL     1       2.593  -7.233  24.529  0.00  0.00    +0.277 C 
ENDBRANCH  11  15
ENDBRANCH   3   6
ENDBRANCH   1   3
BRANCH   1  17
ATOM     17  C   UNL     1       8.320  -1.228  23.013  0.00  0.00    +0.138 C 
BRANCH  17  18
ATOM     18  C   UNL     1       9.761  -0.791  22.667  0.00  0.00    +0.147 C 
BRANCH  18  19
ATOM     19  O   UNL     1      10.210  -1.536  21.525  0.00  0.00    -0.389 OA
ATOM     20  H   UNL     1      11.118  -1.226  21.344  0.00  0.00    +0.210 HD
ENDBRANCH  18  19
BRANCH  18  21
ATOM     21  C   UNL     1       9.871   0.735  22.381  0.00  0.00    +0.085 C 
BRANCH  21  22
ATOM     22  N   UNL     1       9.083   1.104  21.189  0.00  0.00    -0.325 NA
ATOM     23  H   UNL     1       9.235   2.088  20.965  0.00  0.00    +0.119 HD
ATOM     24  H   UNL     1       9.455   0.593  20.384  0.00  0.00    +0.119 HD
ENDBRANCH  21  22
BRANCH  21  25
ATOM     25  C   UNL     1       9.435   1.561  23.623  0.00  0.00    +0.056 C 
BRANCH  25  26
ATOM     26  C   UNL     1       9.967   2.980  23.663  0.00  0.00    -0.046 A 
ATOM     27  C   UNL     1      11.294   3.259  23.300  0.00  0.00    +0.004 A 
ATOM     28  C   UNL     1      11.777   4.570  23.329  0.00  0.00    +0.000 A 
ATOM     29  C   UNL     1      10.945   5.614  23.727  0.00  0.00    +0.000 A 
ATOM     30  C   UNL     1       9.632   5.349  24.106  0.00  0.00    +0.000 A 
ATOM     31  C   UNL     1       9.146   4.038  24.077  0.00  0.00    +0.004 A 
ENDBRANCH  25  26
ENDBRANCH  21  25
ENDBRANCH  18  21
ENDBRANCH  17  18
ENDBRANCH   1  17
TORSDOF 10
ENDMDL
MODEL 3
REMARK VINA RESULT:      -6.1      3.158      6.817
REMARK  Name = 
REMARK  14 active torsions:
REMARK  status: ('A' for Active; 'I' for Inactive)
REMARK    1  A    between atoms: C_2  and  N_3
REMARK    2  A    between atoms: C_2  and  C_4
REMARK    3  A    between atoms: C_2  and  C_11
REMARK    4  A    between atoms: C_4  and  C_5
REMARK    5  A    between atoms: C_11  and  O_13
REMARK    6  A    between atoms: C_11  and  C_14
REMARK    7  A    between atoms: C_14  and  N_15
REMARK    8  A    between atoms: N_15  and  S_16
REMARK    9  A    between atoms: S_16  and  C_19
REMARK   10  A    between atoms: C_20  and  C_21
REMARK   11  A    between atoms: C_23  and  O_24
REMARK   12  A    between atoms: O_24  and  C_25
REMARK   13  A    between atoms: C_26  and  C_27
REMARK   14  A    between atoms: C_28  and  C_29
REMARK                            x       y       z     vdW  Elec       q    Type
REMARK                         _______ _______ _______ _____ _____    ______ ____
ROOT
ATOM      1  N   UNL     1       9.020  -3.270  23.491  0.00  0.00    -0.187 NA
ATOM      2  H   UNL     1       9.980  -3.043  23.763  0.00  0.00    +0.148 HD
ENDROOT
BRANCH   1   3
ATOM      3  S   UNL     1       8.408  -4.323  24.691  0.00  0.00    +0.059 S 
ATOM      4  O   UNL     1       8.560  -3.605  25.937  0.00  0.00    -0.153 OA
ATOM      5  O   UNL     1       9.075  -5.591  24.501  0.00  0.00    -0.153 OA
BRANCH   3   6
ATOM      6  C   UNL     1       6.673  -4.536  24.238  0.00  0.00    +0.111 A 
ATOM      7  C   UNL     1       5.616  -3.998  25.039  0.00  0.00    -0.018 A 
ATOM      8  C   UNL     1       5.938  -3.259  26.325  0.00  0.00    +0.046 C 
ATOM      9  C   UNL     1       4.233  -4.157  24.641  0.00  0.00    -0.004 A 
ATOM     10  C   UNL     1       3.189  -3.534  25.538  0.00  0.00    +0.048 C 
ATOM     11  C   UNL     1       3.945  -4.887  23.478  0.00  0.00    +0.124 A 
ATOM     12  C   UNL     1       5.009  -5.429  22.739  0.00  0.00    +0.051 A 
ATOM     13  C   UNL     1       6.361  -5.283  23.087  0.00  0.00    -0.020 A 
ATOM     14  C   UNL     1       7.341  -5.960  22.165  0.00  0.00    +0.046 C 
BRANCH  11  15
ATOM     15  O   UNL     1       2.771  -5.216  22.869  0.00  0.00    -0.495 OA
ATOM     16  C   UNL     1       2.213  -6.512  22.891  0.00  0.00    +0.277 C 
ENDBRANCH  11  15
ENDBRANCH   3   6
ENDBRANCH   1   3
BRANCH   1  17
ATOM     17  C   UNL     1       8.158  -2.097  23.162  0.00  0.00    +0.138 C 
BRANCH  17  18
ATOM     18  C   UNL     1       8.918  -0.795  23.499  0.00  0.00    +0.147 C 
BRANCH  18  19
ATOM     19  O   UNL     1       9.627  -0.977  24.734  0.00  0.00    -0.389 OA
ATOM     20  H   UNL     1       9.150  -1.682  25.213  0.00  0.00    +0.210 HD
ENDBRANCH  18  19
BRANCH  18  21
ATOM     21  C   UNL     1       9.911  -0.374  22.376  0.00  0.00    +0.085 C 
BRANCH  21  22
ATOM     22  N   UNL     1      10.278  -1.532  21.539  0.00  0.00    -0.325 NA
ATOM     23  H   UNL     1      10.295  -1.256  20.556  0.00  0.00    +0.119 HD
ATOM     24  H   UNL     1      11.245  -1.792  21.752  0.00  0.00    +0.119 HD
ENDBRANCH  21  22
BRANCH  21  25
ATOM     25  C   UNL     1       9.315   0.776  21.517  0.00  0.00    +0.056 C 
BRANCH  25  26
ATOM     26  C   UNL     1       9.102   2.080  22.260  0.00  0.00    -0.046 A 
ATOM     27  C   UNL     1      10.121   2.630  23.053  0.00  0.00    +0.004 A 
ATOM     28  C   UNL     1       9.922   3.837  23.727  0.00  0.00    +0.000 A 
ATOM     29  C   UNL     1       8.704   4.504  23.625  0.00  0.00    +0.000 A 
ATOM     30  C   UNL     1       7.678   3.962  22.856  0.00  0.00    +0.000 A 
ATOM     31  C   UNL     1       7.874   2.754  22.179  0.00  0.00    +0.004 A 
ENDBRANCH  25  26
ENDBRANCH  21  25
ENDBRANCH  18  21
ENDBRANCH  17  18
ENDBRANCH   1  17
TORSDOF 10
ENDMDL
MODEL 4
REMARK VINA RESULT:      -6.1      2.992      7.117
REMARK  Name = 
REMARK  14 active torsions:
REMARK  status: ('A' for Active; 'I' for Inactive)
REMARK    1  A    between atoms: C_2  and  N_3
REMARK    2  A    between atoms: C_2  and  C_4
REMARK    3  A    between atoms: C_2  and  C_11
REMARK    4  A    between atoms: C_4  and  C_5
REMARK    5  A    between atoms: C_11  and  O_13
REMARK    6  A    between atoms: C_11  and  C_14
REMARK    7  A    between atoms: C_14  and  N_15
REMARK    8  A    between atoms: N_15  and  S_16
REMARK    9  A    between atoms: S_16  and  C_19
REMARK   10  A    between atoms: C_20  and  C_21
REMARK   11  A    between atoms: C_23  and  O_24
REMARK   12  A    between atoms: O_24  and  C_25
REMARK   13  A    between atoms: C_26  and  C_27
REMARK   14  A    between atoms: C_28  and  C_29
REMARK                            x       y       z     vdW  Elec       q    Type
REMARK                         _______ _______ _______ _____ _____    ______ ____
ROOT
ATOM      1  N   UNL     1       7.409  -2.460  24.324  0.00  0.00    -0.187 NA
ATOM      2  H   UNL     1       6.437  -2.584  24.617  0.00  0.00    +0.148 HD
ENDROOT
BRANCH   1   3
ATOM      3  S   UNL     1       7.900  -3.937  23.617  0.00  0.00    +0.059 S 
ATOM      4  O   UNL     1       9.176  -4.242  24.223  0.00  0.00    -0.153 OA
ATOM      5  O   UNL     1       7.803  -3.757  22.186  0.00  0.00    -0.153 OA
BRANCH   3   6
ATOM      6  C   UNL     1       6.616  -5.105  24.117  0.00  0.00    +0.111 A 
ATOM      7  C   UNL     1       6.352  -5.388  25.495  0.00  0.00    -0.018 A 
ATOM      8  C   UNL     1       7.186  -4.728  26.578  0.00  0.00    +0.046 C 
ATOM      9  C   UNL     1       5.299  -6.306  25.873  0.00  0.00    -0.004 A 
ATOM     10  C   UNL     1       5.080  -6.522  27.352  0.00  0.00    +0.048 C 
ATOM     11  C   UNL     1       4.569  -6.950  24.861  0.00  0.00    +0.124 A 
ATOM     12  C   UNL     1       4.883  -6.673  23.521  0.00  0.00    +0.051 A 
ATOM     13  C   UNL     1       5.887  -5.777  23.118  0.00  0.00    -0.020 A 
ATOM     14  C   UNL     1       6.070  -5.641  21.630  0.00  0.00    +0.046 C 
BRANCH  11  15
ATOM     15  O   UNL     1       3.555  -7.859  24.899  0.00  0.00    -0.495 OA
ATOM     16  C   UNL     1       2.216  -7.528  25.199  0.00  0.00    +0.277 C 
ENDBRANCH  11  15
ENDBRANCH   3   6
ENDBRANCH   1   3
BRANCH   1  17
ATOM     17  C   UNL     1       7.677  -1.236  23.512  0.00  0.00    +0.138 C 
BRANCH  17  18
ATOM     18  C   UNL     1       8.968  -0.558  24.022  0.00  0.00    +0.147 C 
BRANCH  18  19
ATOM     19  O   UNL     1       9.415  -1.240  25.203  0.00  0.00    -0.389 OA
ATOM     20  H   UNL     1      10.164  -1.800  24.922  0.00  0.00    +0.210 HD
ENDBRANCH  18  19
BRANCH  18  21
ATOM     21  C   UNL     1      10.102  -0.550  22.955  0.00  0.00    +0.085 C 
BRANCH  21  22
ATOM     22  N   UNL     1      10.277  -1.891  22.365  0.00  0.00    -0.325 NA
ATOM     23  H   UNL     1       9.814  -1.931  21.456  0.00  0.00    +0.119 HD
ATOM     24  H   UNL     1      11.270  -2.026  22.158  0.00  0.00    +0.119 HD
ENDBRANCH  21  22
BRANCH  21  25
ATOM     25  C   UNL     1       9.818   0.515  21.859  0.00  0.00    +0.056 C 
BRANCH  25  26
ATOM     26  C   UNL     1       9.356   1.861  22.383  0.00  0.00    -0.046 A 
ATOM     27  C   UNL     1       8.111   2.388  22.009  0.00  0.00    +0.004 A 
ATOM     28  C   UNL     1       7.686   3.623  22.503  0.00  0.00    +0.000 A 
ATOM     29  C   UNL     1       8.501   4.350  23.368  0.00  0.00    +0.000 A 
ATOM     30  C   UNL     1       9.746   3.847  23.734  0.00  0.00    +0.000 A 
ATOM     31  C   UNL     1      10.174   2.610  23.242  0.00  0.00    +0.004 A 
ENDBRANCH  25  26
ENDBRANCH  21  25
ENDBRANCH  18  21
ENDBRANCH  17  18
ENDBRANCH   1  17
TORSDOF 10
ENDMDL
MODEL 5
REMARK VINA RESULT:      -6.0      3.970      7.879
REMARK  Name = 
REMARK  14 active torsions:
REMARK  status: ('A' for Active; 'I' for Inactive)
REMARK    1  A    between atoms: C_2  and  N_3
REMARK    2  A    between atoms: C_2  and  C_4
REMARK    3  A    between atoms: C_2  and  C_11
REMARK    4  A    between atoms: C_4  and  C_5
REMARK    5  A    between atoms: C_11  and  O_13
REMARK    6  A    between atoms: C_11  and  C_14
REMARK    7  A    between atoms: C_14  and  N_15
REMARK    8  A    between atoms: N_15  and  S_16
REMARK    9  A    between atoms: S_16  and  C_19
REMARK   10  A    between atoms: C_20  and  C_21
REMARK   11  A    between atoms: C_23  and  O_24
REMARK   12  A    between atoms: O_24  and  C_25
REMARK   13  A    between atoms: C_26  and  C_27
REMARK   14  A    between atoms: C_28  and  C_29
REMARK                            x       y       z     vdW  Elec       q    Type
REMARK                         _______ _______ _______ _____ _____    ______ ____
ROOT
ATOM      1  N   UNL     1       8.187  -1.440  24.058  0.00  0.00    -0.187 NA
ATOM      2  H   UNL     1       7.351  -1.498  24.647  0.00  0.00    +0.148 HD
ENDROOT
BRANCH   1   3
ATOM      3  S   UNL     1       8.545  -3.034  23.557  0.00  0.00    +0.059 S 
ATOM      4  O   UNL     1       9.910  -3.264  23.972  0.00  0.00    -0.153 OA
ATOM      5  O   UNL     1       8.191  -3.112  22.158  0.00  0.00    -0.153 OA
BRANCH   3   6
ATOM      6  C   UNL     1       7.375  -4.053  24.482  0.00  0.00    +0.111 A 
ATOM      7  C   UNL     1       5.994  -4.133  24.116  0.00  0.00    -0.018 A 
ATOM      8  C   UNL     1       5.471  -3.320  22.945  0.00  0.00    +0.046 C 
ATOM      9  C   UNL     1       5.080  -4.979  24.854  0.00  0.00    -0.004 A 
ATOM     10  C   UNL     1       3.648  -5.016  24.377  0.00  0.00    +0.048 C 
ATOM     11  C   UNL     1       5.564  -5.686  25.966  0.00  0.00    +0.124 A 
ATOM     12  C   UNL     1       6.918  -5.553  26.315  0.00  0.00    +0.051 A 
ATOM     13  C   UNL     1       7.835  -4.753  25.613  0.00  0.00    -0.020 A 
ATOM     14  C   UNL     1       9.235  -4.739  26.168  0.00  0.00    +0.046 C 
BRANCH  11  15
ATOM     15  O   UNL     1       4.960  -6.528  26.851  0.00  0.00    -0.495 OA
ATOM     16  C   UNL     1       5.232  -6.537  28.235  0.00  0.00    +0.277 C 
ENDBRANCH  11  15
ENDBRANCH   3   6
ENDBRANCH   1   3
BRANCH   1  17
ATOM     17  C   UNL     1       8.127  -0.420  22.970  0.00  0.00    +0.138 C 
BRANCH  17  18
ATOM     18  C   UNL     1       9.564  -0.026  22.560  0.00  0.00    +0.147 C 
BRANCH  18  19
ATOM     19  O   UNL     1       9.932  -0.770  21.389  0.00  0.00    -0.389 OA
ATOM     20  H   UNL     1       9.208  -1.407  21.238  0.00  0.00    +0.210 HD
ENDBRANCH  18  19
BRANCH  18  21
ATOM     21  C   UNL     1       9.712   1.499  22.287  0.00  0.00    +0.085 C 
BRANCH  21  22
ATOM     22  N   UNL     1       8.842   1.920  21.173  0.00  0.00    -0.325 NA
ATOM     23  H   UNL     1       8.821   1.191  20.458  0.00  0.00    +0.119 HD
ATOM     24  H   UNL     1       7.879   1.974  21.517  0.00  0.00    +0.119 HD
ENDBRANCH  21  22
BRANCH  21  25
ATOM     25  C   UNL     1       9.417   2.319  23.574  0.00  0.00    +0.056 C 
BRANCH  25  26
ATOM     26  C   UNL     1      10.182   3.623  23.687  0.00  0.00    -0.046 A 
ATOM     27  C   UNL     1      11.535   3.695  23.323  0.00  0.00    +0.004 A 
ATOM     28  C   UNL     1      12.233   4.902  23.419  0.00  0.00    +0.000 A 
ATOM     29  C   UNL     1      11.592   6.046  23.888  0.00  0.00    +0.000 A 
ATOM     30  C   UNL     1      10.254   5.985  24.269  0.00  0.00    +0.000 A 
ATOM     31  C   UNL     1       9.553   4.779  24.172  0.00  0.00    +0.004 A 
ENDBRANCH  25  26
ENDBRANCH  21  25
ENDBRANCH  18  21
ENDBRANCH  17  18
ENDBRANCH   1  17
TORSDOF 10
ENDMDL
MODEL 6
REMARK VINA RESULT:      -5.9      2.441      5.934
REMARK  Name = 
REMARK  14 active torsions:
REMARK  status: ('A' for Active; 'I' for Inactive)
REMARK    1  A    between atoms: C_2  and  N_3
REMARK    2  A    between atoms: C_2  and  C_4
REMARK    3  A    between atoms: C_2  and  C_11
REMARK    4  A    between atoms: C_4  and  C_5
REMARK    5  A    between atoms: C_11  and  O_13
REMARK    6  A    between atoms: C_11  and  C_14
REMARK    7  A    between atoms: C_14  and  N_15
REMARK    8  A    between atoms: N_15  and  S_16
REMARK    9  A    between atoms: S_16  and  C_19
REMARK   10  A    between atoms: C_20  and  C_21
REMARK   11  A    between atoms: C_23  and  O_24
REMARK   12  A    between atoms: O_24  and  C_25
REMARK   13  A    between atoms: C_26  and  C_27
REMARK   14  A    between atoms: C_28  and  C_29
REMARK                            x       y       z     vdW  Elec       q    Type
REMARK                         _______ _______ _______ _____ _____    ______ ____
ROOT
ATOM      1  N   UNL     1       8.598  -3.376  26.354  0.00  0.00    -0.187 NA
ATOM      2  H   UNL     1       9.326  -3.307  27.070  0.00  0.00    +0.148 HD
ENDROOT
BRANCH   1   3
ATOM      3  S   UNL     1       8.258  -5.040  26.161  0.00  0.00    +0.059 S 
ATOM      4  O   UNL     1       7.901  -5.510  27.481  0.00  0.00    -0.153 OA
ATOM      5  O   UNL     1       9.393  -5.612  25.473  0.00  0.00    -0.153 OA
BRANCH   3   6
ATOM      6  C   UNL     1       6.851  -5.068  25.029  0.00  0.00    +0.111 A 
ATOM      7  C   UNL     1       6.939  -4.525  23.707  0.00  0.00    -0.018 A 
ATOM      8  C   UNL     1       8.227  -3.872  23.239  0.00  0.00    +0.046 C 
ATOM      9  C   UNL     1       5.807  -4.584  22.807  0.00  0.00    -0.004 A 
ATOM     10  C   UNL     1       6.004  -4.006  21.425  0.00  0.00    +0.048 C 
ATOM     11  C   UNL     1       4.606  -5.143  23.269  0.00  0.00    +0.124 A 
ATOM     12  C   UNL     1       4.549  -5.632  24.584  0.00  0.00    +0.051 A 
ATOM     13  C   UNL     1       5.631  -5.605  25.479  0.00  0.00    -0.020 A 
ATOM     14  C   UNL     1       5.349  -6.166  26.848  0.00  0.00    +0.046 C 
BRANCH  11  15
ATOM     15  O   UNL     1       3.390  -5.320  22.679  0.00  0.00    -0.495 OA
ATOM     16  C   UNL     1       2.164  -5.261  23.376  0.00  0.00    +0.277 C 
ENDBRANCH  11  15
ENDBRANCH   3   6
ENDBRANCH   1   3
BRANCH   1  17
ATOM     17  C   UNL     1       7.411  -2.496  26.568  0.00  0.00    +0.138 C 
BRANCH  17  18
ATOM     18  C   UNL     1       7.546  -1.235  25.685  0.00  0.00    +0.147 C 
BRANCH  18  19
ATOM     19  O   UNL     1       6.276  -0.569  25.629  0.00  0.00    -0.389 OA
ATOM     20  H   UNL     1       5.656  -1.209  25.229  0.00  0.00    +0.210 HD
ENDBRANCH  18  19
BRANCH  18  21
ATOM     21  C   UNL     1       8.636  -0.253  26.207  0.00  0.00    +0.085 C 
BRANCH  21  22
ATOM     22  N   UNL     1       9.065  -0.622  27.570  0.00  0.00    -0.325 NA
ATOM     23  H   UNL     1       8.248  -0.829  28.145  0.00  0.00    +0.119 HD
ATOM     24  H   UNL     1       9.577  -1.508  27.519  0.00  0.00    +0.119 HD
ENDBRANCH  21  22
BRANCH  21  25
ATOM     25  C   UNL     1       9.843  -0.202  25.230  0.00  0.00    +0.056 C 
BRANCH  25  26
ATOM     26  C   UNL     1       9.519   0.322  23.844  0.00  0.00    -0.046 A 
ATOM     27  C   UNL     1       9.750  -0.467  22.707  0.00  0.00    +0.004 A 
ATOM     28  C   UNL     1       9.440   0.017  21.433  0.00  0.00    +0.000 A 
ATOM     29  C   UNL     1       8.905   1.293  21.280  0.00  0.00    +0.000 A 
ATOM     30  C   UNL     1       8.687   2.094  22.399  0.00  0.00    +0.000 A 
ATOM     31  C   UNL     1       8.995   1.612  23.674  0.00  0.00    +0.004 A 
ENDBRANCH  25  26
ENDBRANCH  21  25
ENDBRANCH  18  21
ENDBRANCH  17  18
ENDBRANCH   1  17
TORSDOF 10
ENDMDL
MODEL 7
REMARK VINA RESULT:      -5.9      3.702      6.822
REMARK  Name = 
REMARK  14 active torsions:
REMARK  status: ('A' for Active; 'I' for Inactive)
REMARK    1  A    between atoms: C_2  and  N_3
REMARK    2  A    between atoms: C_2  and  C_4
REMARK    3  A    between atoms: C_2  and  C_11
REMARK    4  A    between atoms: C_4  and  C_5
REMARK    5  A    between atoms: C_11  and  O_13
REMARK    6  A    between atoms: C_11  and  C_14
REMARK    7  A    between atoms: C_14  and  N_15
REMARK    8  A    between atoms: N_15  and  S_16
REMARK    9  A    between atoms: S_16  and  C_19
REMARK   10  A    between atoms: C_20  and  C_21
REMARK   11  A    between atoms: C_23  and  O_24
REMARK   12  A    between atoms: O_24  and  C_25
REMARK   13  A    between atoms: C_26  and  C_27
REMARK   14  A    between atoms: C_28  and  C_29
REMARK                            x       y       z     vdW  Elec       q    Type
REMARK                         _______ _______ _______ _____ _____    ______ ____
ROOT
ATOM      1  N   UNL     1       6.382   0.615  23.362  0.00  0.00    -0.187 NA
ATOM      2  H   UNL     1       7.282   0.344  22.956  0.00  0.00    +0.148 HD
ENDROOT
BRANCH   1   3
ATOM      3  S   UNL     1       6.306  -0.110  24.908  0.00  0.00    +0.059 S 
ATOM      4  O   UNL     1       4.897  -0.304  25.166  0.00  0.00    -0.153 OA
ATOM      5  O   UNL     1       7.095   0.721  25.789  0.00  0.00    -0.153 OA
BRANCH   3   6
ATOM      6  C   UNL     1       7.178  -1.678  24.697  0.00  0.00    +0.111 A 
ATOM      7  C   UNL     1       6.881  -2.563  23.612  0.00  0.00    -0.018 A 
ATOM      8  C   UNL     1       5.784  -2.211  22.624  0.00  0.00    +0.046 C 
ATOM      9  C   UNL     1       7.613  -3.801  23.446  0.00  0.00    -0.004 A 
ATOM     10  C   UNL     1       7.244  -4.656  22.257  0.00  0.00    +0.048 C 
ATOM     11  C   UNL     1       8.589  -4.140  24.395  0.00  0.00    +0.124 A 
ATOM     12  C   UNL     1       8.826  -3.261  25.465  0.00  0.00    +0.051 A 
ATOM     13  C   UNL     1       8.146  -2.047  25.649  0.00  0.00    -0.020 A 
ATOM     14  C   UNL     1       8.542  -1.265  26.874  0.00  0.00    +0.046 C 
BRANCH  11  15
ATOM     15  O   UNL     1       9.412  -5.219  24.519  0.00  0.00    -0.495 OA
ATOM     16  C   UNL     1      10.248  -5.444  25.633  0.00  0.00    +0.277 C 
ENDBRANCH  11  15
ENDBRANCH   3   6
ENDBRANCH   1   3
BRANCH   1  17
ATOM     17  C   UNL     1       6.080   2.077  23.320  0.00  0.00    +0.138 C 
BRANCH  17  18
ATOM     18  C   UNL     1       7.159   2.796  22.479  0.00  0.00    +0.147 C 
BRANCH  18  19
ATOM     19  O   UNL     1       6.523   3.791  21.662  0.00  0.00    -0.389 OA
ATOM     20  H   UNL     1       6.148   3.310  20.899  0.00  0.00    +0.210 HD
ENDBRANCH  18  19
BRANCH  18  21
ATOM     21  C   UNL     1       8.260   3.457  23.357  0.00  0.00    +0.085 C 
BRANCH  21  22
ATOM     22  N   UNL     1       8.037   3.164  24.786  0.00  0.00    -0.325 NA
ATOM     23  H   UNL     1       8.675   2.427  25.091  0.00  0.00    +0.119 HD
ATOM     24  H   UNL     1       8.311   3.986  25.332  0.00  0.00    +0.119 HD
ENDBRANCH  21  22
BRANCH  21  25
ATOM     25  C   UNL     1       9.674   3.000  22.902  0.00  0.00    +0.056 C 
BRANCH  25  26
ATOM     26  C   UNL     1       9.839   1.500  22.745  0.00  0.00    -0.046 A 
ATOM     27  C   UNL     1       9.407   0.849  21.580  0.00  0.00    +0.004 A 
ATOM     28  C   UNL     1       9.570  -0.531  21.436  0.00  0.00    +0.000 A 
ATOM     29  C   UNL     1      10.157  -1.277  22.455  0.00  0.00    +0.000 A 
ATOM     30  C   UNL     1      10.574  -0.646  23.625  0.00  0.00    +0.000 A 
ATOM     31  C   UNL     1      10.413   0.735  23.771  0.00  0.00    +0.004 A 
ENDBRANCH  25  26
ENDBRANCH  21  25
ENDBRANCH  18  21
ENDBRANCH  17  18
ENDBRANCH   1  17
TORSDOF 10
ENDMDL
MODEL 8
REMARK VINA RESULT:      -5.9      3.282      7.244
REMARK  Name = 
REMARK  14 active torsions:
REMARK  status: ('A' for Active; 'I' for Inactive)
REMARK    1  A    between atoms: C_2  and  N_3
REMARK    2  A    between atoms: C_2  and  C_4
REMARK    3  A    between atoms: C_2  and  C_11
REMARK    4  A    between atoms: C_4  and  C_5
REMARK    5  A    between atoms: C_11  and  O_13
REMARK    6  A    between atoms: C_11  and  C_14
REMARK    7  A    between atoms: C_14  and  N_15
REMARK    8  A    between atoms: N_15  and  S_16
REMARK    9  A    between atoms: S_16  and  C_19
REMARK   10  A    between atoms: C_20  and  C_21
REMARK   11  A    between atoms: C_23  and  O_24
REMARK   12  A    between atoms: O_24  and  C_25
REMARK   13  A    between atoms: C_26  and  C_27
REMARK   14  A    between atoms: C_28  and  C_29
REMARK                            x       y       z     vdW  Elec       q    Type
REMARK                         _______ _______ _______ _____ _____    ______ ____
ROOT
ATOM      1  N   UNL     1       8.773  -2.015  24.211  0.00  0.00    -0.187 NA
ATOM      2  H   UNL     1       8.698  -1.028  24.472  0.00  0.00    +0.148 HD
ENDROOT
BRANCH   1   3
ATOM      3  S   UNL     1       7.256  -2.466  23.564  0.00  0.00    +0.059 S 
ATOM      4  O   UNL     1       7.533  -2.901  22.214  0.00  0.00    -0.153 OA
ATOM      5  O   UNL     1       6.365  -1.351  23.796  0.00  0.00    -0.153 OA
BRANCH   3   6
ATOM      6  C   UNL     1       6.722  -3.831  24.620  0.00  0.00    +0.111 A 
ATOM      7  C   UNL     1       5.770  -4.801  24.170  0.00  0.00    -0.018 A 
ATOM      8  C   UNL     1       5.154  -4.676  22.788  0.00  0.00    +0.046 C 
ATOM      9  C   UNL     1       5.378  -5.903  25.023  0.00  0.00    -0.004 A 
ATOM     10  C   UNL     1       4.387  -6.888  24.452  0.00  0.00    +0.048 C 
ATOM     11  C   UNL     1       5.916  -5.979  26.317  0.00  0.00    +0.124 A 
ATOM     12  C   UNL     1       6.819  -4.987  26.733  0.00  0.00    +0.051 A 
ATOM     13  C   UNL     1       7.232  -3.913  25.928  0.00  0.00    -0.020 A 
ATOM     14  C   UNL     1       8.194  -2.954  26.578  0.00  0.00    +0.046 C 
BRANCH  11  15
ATOM     15  O   UNL     1       5.731  -6.865  27.336  0.00  0.00    -0.495 OA
ATOM     16  C   UNL     1       4.667  -6.786  28.260  0.00  0.00    +0.277 C 
ENDBRANCH  11  15
ENDBRANCH   3   6
ENDBRANCH   1   3
BRANCH   1  17
ATOM     17  C   UNL     1       9.959  -2.363  23.374  0.00  0.00    +0.138 C 
BRANCH  17  18
ATOM     18  C   UNL     1      10.404  -1.117  22.575  0.00  0.00    +0.147 C 
BRANCH  18  19
ATOM     19  O   UNL     1       9.820  -1.173  21.265  0.00  0.00    -0.389 OA
ATOM     20  H   UNL     1       9.785  -0.250  20.949  0.00  0.00    +0.210 HD
ENDBRANCH  18  19
BRANCH  18  21
ATOM     21  C   UNL     1      10.006   0.215  23.276  0.00  0.00    +0.085 C 
BRANCH  21  22
ATOM     22  N   UNL     1      10.885   0.483  24.431  0.00  0.00    -0.325 NA
ATOM     23  H   UNL     1      10.931  -0.343  25.028  0.00  0.00    +0.119 HD
ATOM     24  H   UNL     1      11.841   0.609  24.087  0.00  0.00    +0.119 HD
ENDBRANCH  21  22
BRANCH  21  25
ATOM     25  C   UNL     1      10.028   1.395  22.265  0.00  0.00    +0.056 C 
BRANCH  25  26
ATOM     26  C   UNL     1       8.947   2.437  22.480  0.00  0.00    -0.046 A 
ATOM     27  C   UNL     1       7.714   2.339  21.818  0.00  0.00    +0.004 A 
ATOM     28  C   UNL     1       6.717   3.295  22.027  0.00  0.00    +0.000 A 
ATOM     29  C   UNL     1       6.943   4.364  22.892  0.00  0.00    +0.000 A 
ATOM     30  C   UNL     1       8.168   4.483  23.543  0.00  0.00    +0.000 A 
ATOM     31  C   UNL     1       9.167   3.526  23.336  0.00  0.00    +0.004 A 
ENDBRANCH  25  26
ENDBRANCH  21  25
ENDBRANCH  18  21
ENDBRANCH  17  18
ENDBRANCH   1  17
TORSDOF 10
ENDMDL
MODEL 9
REMARK VINA RESULT:      -5.8      1.209      2.446
REMARK  Name = 
REMARK  14 active torsions:
REMARK  status: ('A' for Active; 'I' for Inactive)
REMARK    1  A    between atoms: C_2  and  N_3
REMARK    2  A    between atoms: C_2  and  C_4
REMARK    3  A    between atoms: C_2  and  C_11
REMARK    4  A    between atoms: C_4  and  C_5
REMARK    5  A    between atoms: C_11  and  O_13
REMARK    6  A    between atoms: C_11  and  C_14
REMARK    7  A    between atoms: C_14  and  N_15
REMARK    8  A    between atoms: N_15  and  S_16
REMARK    9  A    between atoms: S_16  and  C_19
REMARK   10  A    between atoms: C_20  and  C_21
REMARK   11  A    between atoms: C_23  and  O_24
REMARK   12  A    between atoms: O_24  and  C_25
REMARK   13  A    between atoms: C_26  and  C_27
REMARK   14  A    between atoms: C_28  and  C_29
REMARK                            x       y       z     vdW  Elec       q    Type
REMARK                         _______ _______ _______ _____ _____    ______ ____
ROOT
ATOM      1  N   UNL     1       5.371  -6.374  26.731  0.00  0.00    -0.187 NA
ATOM      2  H   UNL     1       5.387  -6.068  25.754  0.00  0.00    +0.148 HD
ENDROOT
BRANCH   1   3
ATOM      3  S   UNL     1       6.359  -5.283  27.601  0.00  0.00    +0.059 S 
ATOM      4  O   UNL     1       7.570  -6.017  27.890  0.00  0.00    -0.153 OA
ATOM      5  O   UNL     1       5.548  -4.771  28.682  0.00  0.00    -0.153 OA
BRANCH   3   6
ATOM      6  C   UNL     1       6.646  -3.933  26.436  0.00  0.00    +0.111 A 
ATOM      7  C   UNL     1       7.899  -3.777  25.761  0.00  0.00    -0.018 A 
ATOM      8  C   UNL     1       9.039  -4.738  26.044  0.00  0.00    +0.046 C 
ATOM      9  C   UNL     1       8.097  -2.704  24.809  0.00  0.00    -0.004 A 
ATOM     10  C   UNL     1       9.444  -2.636  24.129  0.00  0.00    +0.048 C 
ATOM     11  C   UNL     1       7.053  -1.791  24.594  0.00  0.00    +0.124 A 
ATOM     12  C   UNL     1       5.852  -1.958  25.303  0.00  0.00    +0.051 A 
ATOM     13  C   UNL     1       5.620  -2.995  26.222  0.00  0.00    -0.020 A 
ATOM     14  C   UNL     1       4.268  -2.977  26.885  0.00  0.00    +0.046 C 
BRANCH  11  15
ATOM     15  O   UNL     1       6.946  -0.693  23.795  0.00  0.00    -0.495 OA
ATOM     16  C   UNL     1       6.488   0.563  24.247  0.00  0.00    +0.277 C 
ENDBRANCH  11  15
ENDBRANCH   3   6
ENDBRANCH   1   3
BRANCH   1  17
ATOM     17  C   UNL     1       4.011  -6.608  27.302  0.00  0.00    +0.138 C 
BRANCH  17  18
ATOM     18  C   UNL     1       3.004  -6.821  26.149  0.00  0.00    +0.147 C 
BRANCH  18  19
ATOM     19  O   UNL     1       2.034  -5.764  26.180  0.00  0.00    -0.389 OA
ATOM     20  H   UNL     1       1.854  -5.540  25.247  0.00  0.00    +0.210 HD
ENDBRANCH  18  19
BRANCH  18  21
ATOM     21  C   UNL     1       3.693  -6.867  24.754  0.00  0.00    +0.085 C 
BRANCH  21  22
ATOM     22  N   UNL     1       3.068  -7.892  23.895  0.00  0.00    -0.325 NA
ATOM     23  H   UNL     1       2.931  -7.517  22.955  0.00  0.00    +0.119 HD
ATOM     24  H   UNL     1       3.733  -8.661  23.772  0.00  0.00    +0.119 HD
ENDBRANCH  21  22
BRANCH  21  25
ATOM     25  C   UNL     1       3.661  -5.469  24.078  0.00  0.00    +0.056 C 
BRANCH  25  26
ATOM     26  C   UNL     1       4.899  -5.121  23.275  0.00  0.00    -0.046 A 
ATOM     27  C   UNL     1       4.943  -3.958  22.491  0.00  0.00    +0.004 A 
ATOM     28  C   UNL     1       6.090  -3.637  21.761  0.00  0.00    +0.000 A 
ATOM     29  C   UNL     1       7.202  -4.476  21.799  0.00  0.00    +0.000 A 
ATOM     30  C   UNL     1       7.166  -5.642  22.559  0.00  0.00    +0.000 A 
ATOM     31  C   UNL     1       6.019  -5.965  23.291  0.00  0.00    +0.004 A 
ENDBRANCH  25  26
ENDBRANCH  21  25
ENDBRANCH  18  21
ENDBRANCH  17  18
ENDBRANCH   1  17
TORSDOF 10
ENDMDL
