MODEL 1
REMARK VINA RESULT:      -6.3      0.000      0.000
REMARK  Name = 
REMARK  5 active torsions:
REMARK  status: ('A' for Active; 'I' for Inactive)
REMARK    1  A    between atoms: O_1  and  C_2
REMARK    2  A    between atoms: C_5  and  C_6
REMARK    3  A    between atoms: C_7  and  C_8
REMARK    4  A    between atoms: C_10  and  O_11
REMARK    5  A    between atoms: C_13  and  O_14
REMARK                            x       y       z     vdW  Elec       q    Type
REMARK                         _______ _______ _______ _____ _____    ______ ____
ROOT
ATOM      1  C   UNL     1      10.570   1.237  23.685  0.00  0.00    +0.008 C 
ATOM      2  C   UNL     1      10.156   2.392  23.137  0.00  0.00    +0.009 C 
ENDROOT
BRANCH   1   6
ATOM      3  C   UNL     1       8.608  -2.509  23.082  0.00  0.00    +0.117 A 
ATOM      4  C   UNL     1       8.935  -1.735  21.977  0.00  0.00    +0.046 A 
ATOM      5  C   UNL     1       9.601  -0.518  22.155  0.00  0.00    +0.011 A 
ATOM      6  C   UNL     1       9.955  -0.078  23.438  0.00  0.00    -0.025 A 
ATOM      7  C   UNL     1       9.621  -0.882  24.540  0.00  0.00    +0.011 A 
ATOM      8  C   UNL     1       8.951  -2.098  24.364  0.00  0.00    +0.046 A 
BRANCH   3   9
ATOM      9  O   UNL     1       7.929  -3.671  22.866  0.00  0.00    -0.507 OA
ATOM     10  H   UNL     1       8.199  -4.034  22.008  0.00  0.00    +0.292 HD
ENDBRANCH   3   9
ENDBRANCH   1   6
BRANCH   2  11
ATOM     11  C   UNL     1      10.744   3.712  23.433  0.00  0.00    -0.018 A 
ATOM     12  C   UNL     1      12.117   3.895  23.218  0.00  0.00    +0.053 A 
ATOM     13  C   UNL     1      12.718   5.122  23.495  0.00  0.00    +0.121 A 
ATOM     14  C   UNL     1      11.977   6.183  23.998  0.00  0.00    +0.090 A 
ATOM     15  C   UNL     1      10.619   6.001  24.228  0.00  0.00    +0.121 A 
ATOM     16  C   UNL     1       9.999   4.779  23.959  0.00  0.00    +0.053 A 
BRANCH  13  17
ATOM     17  O   UNL     1      14.056   5.242  23.255  0.00  0.00    -0.507 OA
ATOM     18  H   UNL     1      14.357   4.446  22.785  0.00  0.00    +0.292 HD
ENDBRANCH  13  17
BRANCH  15  19
ATOM     19  O   UNL     1       9.917   7.059  24.729  0.00  0.00    -0.507 OA
ATOM     20  H   UNL     1       9.301   6.731  25.405  0.00  0.00    +0.292 HD
ENDBRANCH  15  19
ENDBRANCH   2  11
TORSDOF 5
ENDMDL
MODEL 2
REMARK VINA RESULT:      -6.0      2.619      8.715
REMARK  Name = 
REMARK  5 active torsions:
REMARK  status: ('A' for Active; 'I' for Inactive)
REMARK    1  A    between atoms: O_1  and  C_2
REMARK    2  A    between atoms: C_5  and  C_6
REMARK    3  A    between atoms: C_7  and  C_8
REMARK    4  A    between atoms: C_10  and  O_11
REMARK    5  A    between atoms: C_13  and  O_14
REMARK                            x       y       z     vdW  Elec       q    Type
REMARK                         _______ _______ _______ _____ _____    ______ ____
ROOT
ATOM      1  C   UNL     1       8.923  -1.758  23.005  0.00  0.00    +0.008 C 
ATOM      2  C   UNL     1       7.622  -2.011  23.225  0.00  0.00    +0.009 C 
ENDROOT
BRANCH   1   6
ATOM      3  C   UNL     1      10.486   2.217  23.001  0.00  0.00    +0.117 A 
ATOM      4  C   UNL     1      10.629   1.439  24.141  0.00  0.00    +0.046 A 
ATOM      5  C   UNL     1      10.147   0.126  24.151  0.00  0.00    +0.011 A 
ATOM      6  C   UNL     1       9.531  -0.416  23.014  0.00  0.00    -0.025 A 
ATOM      7  C   UNL     1       9.405   0.387  21.870  0.00  0.00    +0.011 A 
ATOM      8  C   UNL     1       9.885   1.702  21.859  0.00  0.00    +0.046 A 
BRANCH   3   9
ATOM      9  O   UNL     1      10.940   3.502  23.046  0.00  0.00    -0.507 OA
ATOM     10  H   UNL     1      11.529   3.597  23.812  0.00  0.00    +0.292 HD
ENDBRANCH   3   9
ENDBRANCH   1   6
BRANCH   2  11
ATOM     11  C   UNL     1       7.012  -3.352  23.159  0.00  0.00    -0.018 A 
ATOM     12  C   UNL     1       6.756  -3.908  21.897  0.00  0.00    +0.053 A 
ATOM     13  C   UNL     1       6.170  -5.168  21.786  0.00  0.00    +0.121 A 
ATOM     14  C   UNL     1       5.819  -5.894  22.916  0.00  0.00    +0.090 A 
ATOM     15  C   UNL     1       6.056  -5.341  24.168  0.00  0.00    +0.121 A 
ATOM     16  C   UNL     1       6.640  -4.080  24.300  0.00  0.00    +0.053 A 
BRANCH  13  17
ATOM     17  O   UNL     1       5.956  -5.660  20.532  0.00  0.00    -0.507 OA
ATOM     18  H   UNL     1       5.796  -6.617  20.599  0.00  0.00    +0.292 HD
ENDBRANCH  13  17
BRANCH  15  19
ATOM     19  O   UNL     1       5.694  -6.074  25.261  0.00  0.00    -0.507 OA
ATOM     20  H   UNL     1       5.146  -5.519  25.840  0.00  0.00    +0.292 HD
ENDBRANCH  15  19
ENDBRANCH   2  11
TORSDOF 5
ENDMDL
MODEL 3
REMARK VINA RESULT:      -6.0      3.556      5.431
REMARK  Name = 
REMARK  5 active torsions:
REMARK  status: ('A' for Active; 'I' for Inactive)
REMARK    1  A    between atoms: O_1  and  C_2
REMARK    2  A    between atoms: C_5  and  C_6
REMARK    3  A    between atoms: C_7  and  C_8
REMARK    4  A    between atoms: C_10  and  O_11
REMARK    5  A    between atoms: C_13  and  O_14
REMARK                            x       y       z     vdW  Elec       q    Type
REMARK                         _______ _______ _______ _____ _____    ______ ____
ROOT
ATOM      1  C   UNL     1       7.802  -3.195  23.980  0.00  0.00    +0.008 C 
ATOM      2  C   UNL     1       7.830  -2.219  23.057  0.00  0.00    +0.009 C 
ENDROOT
BRANCH   1   6
ATOM      3  C   UNL     1       5.102  -6.504  23.882  0.00  0.00    +0.117 A 
ATOM      4  C   UNL     1       5.724  -6.107  22.706  0.00  0.00    +0.046 A 
ATOM      5  C   UNL     1       6.631  -5.043  22.725  0.00  0.00    +0.011 A 
ATOM      6  C   UNL     1       6.929  -4.380  23.924  0.00  0.00    -0.025 A 
ATOM      7  C   UNL     1       6.293  -4.804  25.102  0.00  0.00    +0.011 A 
ATOM      8  C   UNL     1       5.383  -5.867  25.084  0.00  0.00    +0.046 A 
BRANCH   3   9
ATOM      9  O   UNL     1       4.200  -7.523  23.812  0.00  0.00    -0.507 OA
ATOM     10  H   UNL     1       4.061  -7.753  22.879  0.00  0.00    +0.292 HD
ENDBRANCH   3   9
ENDBRANCH   1   6
BRANCH   2  11
ATOM     11  C   UNL     1       8.667  -1.009  23.151  0.00  0.00    -0.018 A 
ATOM     12  C   UNL     1       9.401  -0.793  24.326  0.00  0.00    +0.053 A 
ATOM     13  C   UNL     1      10.197   0.343  24.463  0.00  0.00    +0.121 A 
ATOM     14  C   UNL     1      10.274   1.288  23.448  0.00  0.00    +0.090 A 
ATOM     15  C   UNL     1       9.538   1.086  22.289  0.00  0.00    +0.121 A 
ATOM     16  C   UNL     1       8.732  -0.044  22.132  0.00  0.00    +0.053 A 
BRANCH  13  17
ATOM     17  O   UNL     1      10.894   0.492  25.626  0.00  0.00    -0.507 OA
ATOM     18  H   UNL     1      11.842   0.534  25.413  0.00  0.00    +0.292 HD
ENDBRANCH  13  17
BRANCH  15  19
ATOM     19  O   UNL     1       9.627   2.035  21.311  0.00  0.00    -0.507 OA
ATOM     20  H   UNL     1      10.551   2.328  21.245  0.00  0.00    +0.292 HD
ENDBRANCH  15  19
ENDBRANCH   2  11
TORSDOF 5
ENDMDL
MODEL 4
REMARK VINA RESULT:      -6.0      2.813      8.598
REMARK  Name = 
REMARK  5 active torsions:
REMARK  status: ('A' for Active; 'I' for Inactive)
REMARK    1  A    between atoms: O_1  and  C_2
REMARK    2  A    between atoms: C_5  and  C_6
REMARK    3  A    between atoms: C_7  and  C_8
REMARK    4  A    between atoms: C_10  and  O_11
REMARK    5  A    between atoms: C_13  and  O_14
REMARK                            x       y       z     vdW  Elec       q    Type
REMARK                         _______ _______ _______ _____ _____    ______ ____
ROOT
ATOM      1  C   UNL     1       8.762  -1.608  23.785  0.00  0.00    +0.008 C 
ATOM      2  C   UNL     1       8.601  -2.110  25.021  0.00  0.00    +0.009 C 
ENDROOT
BRANCH   1   6
ATOM      3  C   UNL     1      10.451   2.201  22.848  0.00  0.00    +0.117 A 
ATOM      4  C   UNL     1      10.599   1.697  24.133  0.00  0.00    +0.046 A 
ATOM      5  C   UNL     1      10.075   0.439  24.449  0.00  0.00    +0.011 A 
ATOM      6  C   UNL     1       9.413  -0.324  23.477  0.00  0.00    -0.025 A 
ATOM      7  C   UNL     1       9.283   0.204  22.183  0.00  0.00    +0.011 A 
ATOM      8  C   UNL     1       9.804   1.463  21.865  0.00  0.00    +0.046 A 
BRANCH   3   9
ATOM      9  O   UNL     1      10.947   3.445  22.592  0.00  0.00    -0.507 OA
ATOM     10  H   UNL     1      11.904   3.374  22.447  0.00  0.00    +0.292 HD
ENDBRANCH   3   9
ENDBRANCH   1   6
BRANCH   2  11
ATOM     11  C   UNL     1       7.898  -3.371  25.324  0.00  0.00    -0.018 A 
ATOM     12  C   UNL     1       6.943  -3.838  24.410  0.00  0.00    +0.053 A 
ATOM     13  C   UNL     1       6.245  -5.019  24.660  0.00  0.00    +0.121 A 
ATOM     14  C   UNL     1       6.472  -5.751  25.818  0.00  0.00    +0.090 A 
ATOM     15  C   UNL     1       7.406  -5.284  26.733  0.00  0.00    +0.121 A 
ATOM     16  C   UNL     1       8.114  -4.102  26.502  0.00  0.00    +0.053 A 
BRANCH  13  17
ATOM     17  O   UNL     1       5.336  -5.428  23.729  0.00  0.00    -0.507 OA
ATOM     18  H   UNL     1       4.886  -6.221  24.066  0.00  0.00    +0.292 HD
ENDBRANCH  13  17
BRANCH  15  19
ATOM     19  O   UNL     1       7.604  -6.020  27.866  0.00  0.00    -0.507 OA
ATOM     20  H   UNL     1       6.965  -5.734  28.538  0.00  0.00    +0.292 HD
ENDBRANCH  15  19
ENDBRANCH   2  11
TORSDOF 5
ENDMDL
MODEL 5
REMARK VINA RESULT:      -6.0      2.452      7.939
REMARK  Name = 
REMARK  5 active torsions:
REMARK  status: ('A' for Active; 'I' for Inactive)
REMARK    1  A    between atoms: O_1  and  C_2
REMARK    2  A    between atoms: C_5  and  C_6
REMARK    3  A    between atoms: C_7  and  C_8
REMARK    4  A    between atoms: C_10  and  O_11
REMARK    5  A    between atoms: C_13  and  O_14
REMARK                            x       y       z     vdW  Elec       q    Type
REMARK                         _______ _______ _______ _____ _____    ______ ____
ROOT
ATOM      1  C   UNL     1       9.309  -0.068  25.265  0.00  0.00    +0.008 C 
ATOM      2  C   UNL     1       8.603  -1.075  24.721  0.00  0.00    +0.009 C 
ENDROOT
BRANCH   1   6
ATOM      3  C   UNL     1       9.757   3.898  23.745  0.00  0.00    +0.117 A 
ATOM      4  C   UNL     1      10.696   2.936  23.401  0.00  0.00    +0.046 A 
ATOM      5  C   UNL     1      10.550   1.625  23.868  0.00  0.00    +0.011 A 
ATOM      6  C   UNL     1       9.456   1.272  24.671  0.00  0.00    -0.025 A 
ATOM      7  C   UNL     1       8.516   2.261  24.999  0.00  0.00    +0.011 A 
ATOM      8  C   UNL     1       8.662   3.573  24.535  0.00  0.00    +0.046 A 
BRANCH   3   9
ATOM      9  O   UNL     1       9.956   5.170  23.296  0.00  0.00    -0.507 OA
ATOM     10  H   UNL     1       9.096   5.555  23.060  0.00  0.00    +0.292 HD
ENDBRANCH   3   9
ENDBRANCH   1   6
BRANCH   2  11
ATOM     11  C   UNL     1       8.508  -2.429  25.296  0.00  0.00    -0.018 A 
ATOM     12  C   UNL     1       9.353  -3.429  24.793  0.00  0.00    +0.053 A 
ATOM     13  C   UNL     1       9.290  -4.727  25.297  0.00  0.00    +0.121 A 
ATOM     14  C   UNL     1       8.387  -5.061  26.298  0.00  0.00    +0.090 A 
ATOM     15  C   UNL     1       7.537  -4.079  26.788  0.00  0.00    +0.121 A 
ATOM     16  C   UNL     1       7.583  -2.773  26.294  0.00  0.00    +0.053 A 
BRANCH  13  17
ATOM     17  O   UNL     1      10.145  -5.653  24.775  0.00  0.00    -0.507 OA
ATOM     18  H   UNL     1       9.985  -5.714  23.817  0.00  0.00    +0.292 HD
ENDBRANCH  13  17
BRANCH  15  19
ATOM     19  O   UNL     1       6.655  -4.437  27.766  0.00  0.00    -0.507 OA
ATOM     20  H   UNL     1       6.322  -3.632  28.195  0.00  0.00    +0.292 HD
ENDBRANCH  15  19
ENDBRANCH   2  11
TORSDOF 5
ENDMDL
MODEL 6
REMARK VINA RESULT:      -6.0      2.660      8.803
REMARK  Name = 
REMARK  5 active torsions:
REMARK  status: ('A' for Active; 'I' for Inactive)
REMARK    1  A    between atoms: O_1  and  C_2
REMARK    2  A    between atoms: C_5  and  C_6
REMARK    3  A    between atoms: C_7  and  C_8
REMARK    4  A    between atoms: C_10  and  O_11
REMARK    5  A    between atoms: C_13  and  O_14
REMARK                            x       y       z     vdW  Elec       q    Type
REMARK                         _______ _______ _______ _____ _____    ______ ____
ROOT
ATOM      1  C   UNL     1       8.856  -1.791  23.166  0.00  0.00    +0.008 C 
ATOM      2  C   UNL     1       7.538  -2.032  23.073  0.00  0.00    +0.009 C 
ENDROOT
BRANCH   1   6
ATOM      3  C   UNL     1      10.447   2.166  22.928  0.00  0.00    +0.117 A 
ATOM      4  C   UNL     1      10.611   1.444  24.102  0.00  0.00    +0.046 A 
ATOM      5  C   UNL     1      10.120   0.137  24.187  0.00  0.00    +0.011 A 
ATOM      6  C   UNL     1       9.474  -0.456  23.094  0.00  0.00    -0.025 A 
ATOM      7  C   UNL     1       9.327   0.291  21.914  0.00  0.00    +0.011 A 
ATOM      8  C   UNL     1       9.815   1.599  21.827  0.00  0.00    +0.046 A 
BRANCH   3   9
ATOM      9  O   UNL     1      10.910   3.447  22.898  0.00  0.00    -0.507 OA
ATOM     10  H   UNL     1      11.782   3.453  22.471  0.00  0.00    +0.292 HD
ENDBRANCH   3   9
ENDBRANCH   1   6
BRANCH   2  11
ATOM     11  C   UNL     1       6.934  -3.378  23.090  0.00  0.00    -0.018 A 
ATOM     12  C   UNL     1       6.744  -4.009  24.327  0.00  0.00    +0.053 A 
ATOM     13  C   UNL     1       6.187  -5.285  24.391  0.00  0.00    +0.121 A 
ATOM     14  C   UNL     1       5.819  -5.962  23.236  0.00  0.00    +0.090 A 
ATOM     15  C   UNL     1       6.020  -5.348  22.007  0.00  0.00    +0.121 A 
ATOM     16  C   UNL     1       6.578  -4.070  21.921  0.00  0.00    +0.053 A 
BRANCH  13  17
ATOM     17  O   UNL     1       6.018  -5.843  25.624  0.00  0.00    -0.507 OA
ATOM     18  H   UNL     1       5.842  -6.793  25.512  0.00  0.00    +0.292 HD
ENDBRANCH  13  17
BRANCH  15  19
ATOM     19  O   UNL     1       5.656  -6.040  20.888  0.00  0.00    -0.507 OA
ATOM     20  H   UNL     1       5.687  -5.438  20.126  0.00  0.00    +0.292 HD
ENDBRANCH  15  19
ENDBRANCH   2  11
TORSDOF 5
ENDMDL
MODEL 7
REMARK VINA RESULT:      -5.9      4.109      9.581
REMARK  Name = 
REMARK  5 active torsions:
REMARK  status: ('A' for Active; 'I' for Inactive)
REMARK    1  A    between atoms: O_1  and  C_2
REMARK    2  A    between atoms: C_5  and  C_6
REMARK    3  A    between atoms: C_7  and  C_8
REMARK    4  A    between atoms: C_10  and  O_11
REMARK    5  A    between atoms: C_13  and  O_14
REMARK                            x       y       z     vdW  Elec       q    Type
REMARK                         _______ _______ _______ _____ _____    ______ ____
ROOT
ATOM      1  C   UNL     1       7.465  -2.808  23.132  0.00  0.00    +0.008 C 
ATOM      2  C   UNL     1       6.184  -3.008  23.485  0.00  0.00    +0.009 C 
ENDROOT
BRANCH   1   6
ATOM      3  C   UNL     1       9.060   0.931  21.819  0.00  0.00    +0.117 A 
ATOM      4  C   UNL     1       9.716  -0.241  21.470  0.00  0.00    +0.046 A 
ATOM      5  C   UNL     1       9.193  -1.475  21.868  0.00  0.00    +0.011 A 
ATOM      6  C   UNL     1       8.004  -1.541  22.608  0.00  0.00    -0.025 A 
ATOM      7  C   UNL     1       7.354  -0.343  22.943  0.00  0.00    +0.011 A 
ATOM      8  C   UNL     1       7.877   0.893  22.547  0.00  0.00    +0.046 A 
BRANCH   3   9
ATOM      9  O   UNL     1       9.622   2.113  21.439  0.00  0.00    -0.507 OA
ATOM     10  H   UNL     1      10.587   2.032  21.498  0.00  0.00    +0.292 HD
ENDBRANCH   3   9
ENDBRANCH   1   6
BRANCH   2  11
ATOM     11  C   UNL     1       5.642  -4.296  23.956  0.00  0.00    -0.018 A 
ATOM     12  C   UNL     1       4.701  -4.958  23.155  0.00  0.00    +0.053 A 
ATOM     13  C   UNL     1       4.153  -6.172  23.565  0.00  0.00    +0.121 A 
ATOM     14  C   UNL     1       4.518  -6.747  24.775  0.00  0.00    +0.090 A 
ATOM     15  C   UNL     1       5.438  -6.089  25.580  0.00  0.00    +0.121 A 
ATOM     16  C   UNL     1       5.997  -4.870  25.187  0.00  0.00    +0.053 A 
BRANCH  13  17
ATOM     17  O   UNL     1       3.249  -6.772  22.738  0.00  0.00    -0.507 OA
ATOM     18  H   UNL     1       3.650  -7.584  22.382  0.00  0.00    +0.292 HD
ENDBRANCH  13  17
BRANCH  15  19
ATOM     19  O   UNL     1       5.772  -6.674  26.767  0.00  0.00    -0.507 OA
ATOM     20  H   UNL     1       5.216  -7.460  26.894  0.00  0.00    +0.292 HD
ENDBRANCH  15  19
ENDBRANCH   2  11
TORSDOF 5
ENDMDL
MODEL 8
REMARK VINA RESULT:      -5.9      3.621      5.579
REMARK  Name = 
REMARK  5 active torsions:
REMARK  status: ('A' for Active; 'I' for Inactive)
REMARK    1  A    between atoms: O_1  and  C_2
REMARK    2  A    between atoms: C_5  and  C_6
REMARK    3  A    between atoms: C_7  and  C_8
REMARK    4  A    between atoms: C_10  and  O_11
REMARK    5  A    between atoms: C_13  and  O_14
REMARK                            x       y       z     vdW  Elec       q    Type
REMARK                         _______ _______ _______ _____ _____    ______ ____
ROOT
ATOM      1  C   UNL     1       7.359  -2.987  24.098  0.00  0.00    +0.008 C 
ATOM      2  C   UNL     1       8.098  -2.472  23.100  0.00  0.00    +0.009 C 
ENDROOT
BRANCH   1   6
ATOM      3  C   UNL     1       4.906  -6.480  23.945  0.00  0.00    +0.117 A 
ATOM      4  C   UNL     1       5.243  -5.842  22.760  0.00  0.00    +0.046 A 
ATOM      5  C   UNL     1       6.068  -4.712  22.789  0.00  0.00    +0.011 A 
ATOM      6  C   UNL     1       6.568  -4.225  24.005  0.00  0.00    -0.025 A 
ATOM      7  C   UNL     1       6.220  -4.892  25.190  0.00  0.00    +0.011 A 
ATOM      8  C   UNL     1       5.393  -6.021  25.163  0.00  0.00    +0.046 A 
BRANCH   3   9
ATOM      9  O   UNL     1       4.074  -7.557  23.874  0.00  0.00    -0.507 OA
ATOM     10  H   UNL     1       4.496  -8.307  24.322  0.00  0.00    +0.292 HD
ENDBRANCH   3   9
ENDBRANCH   1   6
BRANCH   2  11
ATOM     11  C   UNL     1       8.842  -1.202  23.185  0.00  0.00    -0.018 A 
ATOM     12  C   UNL     1       8.690  -0.268  22.150  0.00  0.00    +0.053 A 
ATOM     13  C   UNL     1       9.383   0.941  22.182  0.00  0.00    +0.121 A 
ATOM     14  C   UNL     1      10.242   1.244  23.230  0.00  0.00    +0.090 A 
ATOM     15  C   UNL     1      10.408   0.316  24.249  0.00  0.00    +0.121 A 
ATOM     16  C   UNL     1       9.725  -0.902  24.235  0.00  0.00    +0.053 A 
BRANCH  13  17
ATOM     17  O   UNL     1       9.185   1.813  21.151  0.00  0.00    -0.507 OA
ATOM     18  H   UNL     1       8.319   1.626  20.752  0.00  0.00    +0.292 HD
ENDBRANCH  13  17
BRANCH  15  19
ATOM     19  O   UNL     1      11.265   0.638  25.263  0.00  0.00    -0.507 OA
ATOM     20  H   UNL     1      12.008   0.013  25.251  0.00  0.00    +0.292 HD
ENDBRANCH  15  19
ENDBRANCH   2  11
TORSDOF 5
ENDMDL
MODEL 9
REMARK VINA RESULT:      -5.8      4.206      6.877
REMARK  Name = 
REMARK  5 active torsions:
REMARK  status: ('A' for Active; 'I' for Inactive)
REMARK    1  A    between atoms: O_1  and  C_2
REMARK    2  A    between atoms: C_5  and  C_6
REMARK    3  A    between atoms: C_7  and  C_8
REMARK    4  A    between atoms: C_10  and  O_11
REMARK    5  A    between atoms: C_13  and  O_14
REMARK                            x       y       z     vdW  Elec       q    Type
REMARK                         _______ _______ _______ _____ _____    ______ ____
ROOT
ATOM      1  C   UNL     1       6.689  -3.997  24.076  0.00  0.00    +0.008 C 
ATOM      2  C   UNL     1       7.507  -3.324  24.902  0.00  0.00    +0.009 C 
ENDROOT
BRANCH   1   6
ATOM      3  C   UNL     1       4.094  -7.217  25.146  0.00  0.00    +0.117 A 
ATOM      4  C   UNL     1       4.950  -6.694  26.106  0.00  0.00    +0.046 A 
ATOM      5  C   UNL     1       5.787  -5.622  25.780  0.00  0.00    +0.011 A 
ATOM      6  C   UNL     1       5.761  -5.062  24.495  0.00  0.00    -0.025 A 
ATOM      7  C   UNL     1       4.882  -5.602  23.543  0.00  0.00    +0.011 A 
ATOM      8  C   UNL     1       4.045  -6.676  23.867  0.00  0.00    +0.046 A 
BRANCH   3   9
ATOM      9  O   UNL     1       3.320  -8.283  25.496  0.00  0.00    -0.507 OA
ATOM     10  H   UNL     1       3.819  -8.840  26.114  0.00  0.00    +0.292 HD
ENDBRANCH   3   9
ENDBRANCH   1   6
BRANCH   2  11
ATOM     11  C   UNL     1       8.473  -2.299  24.464  0.00  0.00    -0.018 A 
ATOM     12  C   UNL     1       8.928  -2.333  23.138  0.00  0.00    +0.053 A 
ATOM     13  C   UNL     1       9.850  -1.391  22.683  0.00  0.00    +0.121 A 
ATOM     14  C   UNL     1      10.343  -0.408  23.531  0.00  0.00    +0.090 A 
ATOM     15  C   UNL     1       9.907  -0.380  24.849  0.00  0.00    +0.121 A 
ATOM     16  C   UNL     1       8.986  -1.315  25.324  0.00  0.00    +0.053 A 
BRANCH  13  17
ATOM     17  O   UNL     1      10.247  -1.470  21.381  0.00  0.00    -0.507 OA
ATOM     18  H   UNL     1      10.092  -2.377  21.066  0.00  0.00    +0.292 HD
ENDBRANCH  13  17
BRANCH  15  19
ATOM     19  O   UNL     1      10.415   0.593  25.661  0.00  0.00    -0.507 OA
ATOM     20  H   UNL     1      11.378   0.624  25.546  0.00  0.00    +0.292 HD
ENDBRANCH  15  19
ENDBRANCH   2  11
TORSDOF 5
ENDMDL
