MODEL 1
REMARK VINA RESULT:      -5.2      0.000      0.000
REMARK  Name = 
REMARK  16 active torsions:
REMARK  status: ('A' for Active; 'I' for Inactive)
REMARK    1  A    between atoms: C_1  and  C_2
REMARK    2  A    between atoms: C_2  and  C_3
REMARK    3  A    between atoms: C_3  and  C_4
REMARK    4  A    between atoms: C_4  and  C_5
REMARK    5  A    between atoms: C_5  and  C_6
REMARK    6  A    between atoms: C_6  and  C_7
REMARK    7  A    between atoms: C_7  and  C_8
REMARK    8  A    between atoms: C_8  and  C_9
REMARK    9  A    between atoms: C_12  and  C_13
REMARK   10  A    between atoms: C_13  and  C_14
REMARK   11  A    between atoms: C_14  and  C_15
REMARK   12  A    between atoms: C_15  and  N_16
REMARK   13  A    between atoms: C_15  and  C_17
REMARK   14  A    between atoms: C_15  and  C_19
REMARK   15  A    between atoms: C_17  and  O_18
REMARK   16  A    between atoms: C_19  and  O_20
REMARK                            x       y       z     vdW  Elec       q    Type
REMARK                         _______ _______ _______ _____ _____    ______ ____
ROOT
ATOM      1  C   UNL     1      10.022   1.624  23.157  0.00  0.00    -0.047 A 
ATOM      2  C   UNL     1      10.089   1.078  24.442  0.00  0.00    +0.004 A 
ATOM      3  C   UNL     1      10.091  -0.308  24.621  0.00  0.00    +0.004 A 
ATOM      4  C   UNL     1      10.030  -1.173  23.519  0.00  0.00    -0.047 A 
ATOM      5  C   UNL     1       9.976  -0.614  22.235  0.00  0.00    +0.004 A 
ATOM      6  C   UNL     1       9.993   0.765  22.056  0.00  0.00    +0.004 A 
ENDROOT
BRANCH   1   7
ATOM      7  C   UNL     1       9.943   3.110  22.943  0.00  0.00    +0.035 C 
BRANCH   7   8
ATOM      8  C   UNL     1       8.610   3.675  23.441  0.00  0.00    +0.005 C 
BRANCH   8   9
ATOM      9  C   UNL     1       7.527   3.523  22.383  0.00  0.00    +0.000 C 
BRANCH   9  10
ATOM     10  C   UNL     1       6.499   2.475  22.799  0.00  0.00    +0.000 C 
BRANCH  10  11
ATOM     11  C   UNL     1       6.540   2.262  24.308  0.00  0.00    -0.000 C 
BRANCH  11  12
ATOM     12  C   UNL     1       6.346   0.791  24.664  0.00  0.00    -0.000 C 
BRANCH  12  14
ATOM     13  C   UNL     1       6.234  -1.548  23.754  0.00  0.00    +0.004 C 
ATOM     14  C   UNL     1       6.555  -0.097  23.441  0.00  0.00    -0.003 C 
ENDBRANCH  12  14
ENDBRANCH  11  12
ENDBRANCH  10  11
ENDBRANCH   9  10
ENDBRANCH   8   9
ENDBRANCH   7   8
ENDBRANCH   1   7
BRANCH   4  15
ATOM     15  C   UNL     1       9.913  -2.664  23.746  0.00  0.00    +0.037 C 
BRANCH  15  16
ATOM     16  C   UNL     1       9.333  -3.051  25.116  0.00  0.00    +0.031 C 
BRANCH  16  17
ATOM     17  C   UNL     1       8.966  -4.537  25.354  0.00  0.00    +0.063 C 
BRANCH  17  18
ATOM     18  N   UNL     1      10.181  -5.390  25.425  0.00  0.00    -0.321 NA
ATOM     19  H   UNL     1      10.335  -5.820  24.511  0.00  0.00    +0.119 HD
ATOM     20  H   UNL     1      11.000  -4.798  25.571  0.00  0.00    +0.119 HD
ENDBRANCH  17  18
BRANCH  17  21
ATOM     21  C   UNL     1       8.122  -5.000  24.129  0.00  0.00    +0.180 C 
BRANCH  21  22
ATOM     22  O   UNL     1       6.790  -5.321  24.515  0.00  0.00    -0.393 OA
ATOM     23  H   UNL     1       6.803  -6.281  24.690  0.00  0.00    +0.209 HD
ENDBRANCH  21  22
ENDBRANCH  17  21
BRANCH  17  24
ATOM     24  C   UNL     1       8.116  -4.735  26.639  0.00  0.00    +0.180 C 
BRANCH  24  25
ATOM     25  O   UNL     1       8.077  -6.097  27.051  0.00  0.00    -0.393 OA
ATOM     26  H   UNL     1       8.454  -6.123  27.944  0.00  0.00    +0.209 HD
ENDBRANCH  24  25
ENDBRANCH  17  24
ENDBRANCH  16  17
ENDBRANCH  15  16
ENDBRANCH   4  15
TORSDOF 15
ENDMDL
MODEL 2
REMARK VINA RESULT:      -5.1      1.433      1.968
REMARK  Name = 
REMARK  16 active torsions:
REMARK  status: ('A' for Active; 'I' for Inactive)
REMARK    1  A    between atoms: C_1  and  C_2
REMARK    2  A    between atoms: C_2  and  C_3
REMARK    3  A    between atoms: C_3  and  C_4
REMARK    4  A    between atoms: C_4  and  C_5
REMARK    5  A    between atoms: C_5  and  C_6
REMARK    6  A    between atoms: C_6  and  C_7
REMARK    7  A    between atoms: C_7  and  C_8
REMARK    8  A    between atoms: C_8  and  C_9
REMARK    9  A    between atoms: C_12  and  C_13
REMARK   10  A    between atoms: C_13  and  C_14
REMARK   11  A    between atoms: C_14  and  C_15
REMARK   12  A    between atoms: C_15  and  N_16
REMARK   13  A    between atoms: C_15  and  C_17
REMARK   14  A    between atoms: C_15  and  C_19
REMARK   15  A    between atoms: C_17  and  O_18
REMARK   16  A    between atoms: C_19  and  O_20
REMARK                            x       y       z     vdW  Elec       q    Type
REMARK                         _______ _______ _______ _____ _____    ______ ____
ROOT
ATOM      1  C   UNL     1      10.366   2.203  23.319  0.00  0.00    -0.047 A 
ATOM      2  C   UNL     1      10.479   1.320  24.397  0.00  0.00    +0.004 A 
ATOM      3  C   UNL     1      10.245  -0.046  24.218  0.00  0.00    +0.004 A 
ATOM      4  C   UNL     1       9.898  -0.555  22.958  0.00  0.00    -0.047 A 
ATOM      5  C   UNL     1       9.800   0.339  21.883  0.00  0.00    +0.004 A 
ATOM      6  C   UNL     1      10.052   1.695  22.057  0.00  0.00    +0.004 A 
ENDROOT
BRANCH   1   7
ATOM      7  C   UNL     1      10.540   3.685  23.503  0.00  0.00    +0.035 C 
BRANCH   7   8
ATOM      8  C   UNL     1       9.380   4.288  24.301  0.00  0.00    +0.005 C 
BRANCH   8   9
ATOM      9  C   UNL     1       8.414   5.023  23.383  0.00  0.00    +0.000 C 
BRANCH   9  10
ATOM     10  C   UNL     1       7.042   4.356  23.385  0.00  0.00    +0.000 C 
BRANCH  10  11
ATOM     11  C   UNL     1       6.879   3.476  22.151  0.00  0.00    -0.000 C 
BRANCH  11  12
ATOM     12  C   UNL     1       6.472   2.055  22.534  0.00  0.00    -0.000 C 
BRANCH  12  14
ATOM     13  C   UNL     1       6.626   0.395  24.413  0.00  0.00    +0.004 C 
ATOM     14  C   UNL     1       6.521   1.866  24.047  0.00  0.00    -0.003 C 
ENDBRANCH  12  14
ENDBRANCH  11  12
ENDBRANCH  10  11
ENDBRANCH   9  10
ENDBRANCH   8   9
ENDBRANCH   7   8
ENDBRANCH   1   7
BRANCH   4  15
ATOM     15  C   UNL     1       9.534  -2.016  22.817  0.00  0.00    +0.037 C 
BRANCH  15  16
ATOM     16  C   UNL     1       9.779  -2.852  24.084  0.00  0.00    +0.031 C 
BRANCH  16  17
ATOM     17  C   UNL     1       8.575  -3.615  24.691  0.00  0.00    +0.063 C 
BRANCH  17  18
ATOM     18  N   UNL     1       7.300  -3.225  24.037  0.00  0.00    -0.321 NA
ATOM     19  H   UNL     1       6.768  -4.071  23.820  0.00  0.00    +0.119 HD
ATOM     20  H   UNL     1       6.718  -2.722  24.708  0.00  0.00    +0.119 HD
ENDBRANCH  17  18
BRANCH  17  21
ATOM     21  C   UNL     1       8.490  -3.211  26.194  0.00  0.00    +0.180 C 
BRANCH  21  22
ATOM     22  O   UNL     1       8.347  -4.357  27.027  0.00  0.00    -0.393 OA
ATOM     23  H   UNL     1       7.780  -4.063  27.765  0.00  0.00    +0.209 HD
ENDBRANCH  21  22
ENDBRANCH  17  21
BRANCH  17  24
ATOM     24  C   UNL     1       8.752  -5.157  24.606  0.00  0.00    +0.180 C 
BRANCH  24  25
ATOM     25  O   UNL     1      10.068  -5.566  24.961  0.00  0.00    -0.393 OA
ATOM     26  H   UNL     1      10.433  -4.859  25.516  0.00  0.00    +0.209 HD
ENDBRANCH  24  25
ENDBRANCH  17  24
ENDBRANCH  16  17
ENDBRANCH  15  16
ENDBRANCH   4  15
TORSDOF 15
ENDMDL
MODEL 3
REMARK VINA RESULT:      -5.1      2.023      3.538
REMARK  Name = 
REMARK  16 active torsions:
REMARK  status: ('A' for Active; 'I' for Inactive)
REMARK    1  A    between atoms: C_1  and  C_2
REMARK    2  A    between atoms: C_2  and  C_3
REMARK    3  A    between atoms: C_3  and  C_4
REMARK    4  A    between atoms: C_4  and  C_5
REMARK    5  A    between atoms: C_5  and  C_6
REMARK    6  A    between atoms: C_6  and  C_7
REMARK    7  A    between atoms: C_7  and  C_8
REMARK    8  A    between atoms: C_8  and  C_9
REMARK    9  A    between atoms: C_12  and  C_13
REMARK   10  A    between atoms: C_13  and  C_14
REMARK   11  A    between atoms: C_14  and  C_15
REMARK   12  A    between atoms: C_15  and  N_16
REMARK   13  A    between atoms: C_15  and  C_17
REMARK   14  A    between atoms: C_15  and  C_19
REMARK   15  A    between atoms: C_17  and  O_18
REMARK   16  A    between atoms: C_19  and  O_20
REMARK                            x       y       z     vdW  Elec       q    Type
REMARK                         _______ _______ _______ _____ _____    ______ ____
ROOT
ATOM      1  C   UNL     1       9.345  -2.034  22.808  0.00  0.00    -0.047 A 
ATOM      2  C   UNL     1       9.707  -2.750  23.953  0.00  0.00    +0.004 A 
ATOM      3  C   UNL     1       8.804  -3.635  24.547  0.00  0.00    +0.004 A 
ATOM      4  C   UNL     1       7.524  -3.823  24.005  0.00  0.00    -0.047 A 
ATOM      5  C   UNL     1       7.178  -3.109  22.850  0.00  0.00    +0.004 A 
ATOM      6  C   UNL     1       8.084  -2.243  22.248  0.00  0.00    +0.004 A 
ENDROOT
BRANCH   1   7
ATOM      7  C   UNL     1      10.273  -1.021  22.195  0.00  0.00    +0.035 C 
BRANCH   7   8
ATOM      8  C   UNL     1       9.496   0.084  21.475  0.00  0.00    +0.005 C 
BRANCH   8   9
ATOM      9  C   UNL     1       9.814   1.448  22.071  0.00  0.00    +0.000 C 
BRANCH   9  10
ATOM     10  C   UNL     1      10.265   1.320  23.522  0.00  0.00    +0.000 C 
BRANCH  10  11
ATOM     11  C   UNL     1       9.108   1.630  24.466  0.00  0.00    -0.000 C 
BRANCH  11  12
ATOM     12  C   UNL     1       8.822   0.454  25.397  0.00  0.00    -0.000 C 
BRANCH  12  14
ATOM     13  C   UNL     1       6.703   0.650  24.063  0.00  0.00    +0.004 C 
ATOM     14  C   UNL     1       7.381  -0.021  25.245  0.00  0.00    -0.003 C 
ENDBRANCH  12  14
ENDBRANCH  11  12
ENDBRANCH  10  11
ENDBRANCH   9  10
ENDBRANCH   8   9
ENDBRANCH   7   8
ENDBRANCH   1   7
BRANCH   4  15
ATOM     15  C   UNL     1       6.526  -4.696  24.734  0.00  0.00    +0.037 C 
BRANCH  15  16
ATOM     16  C   UNL     1       6.222  -4.242  26.170  0.00  0.00    +0.031 C 
BRANCH  16  17
ATOM     17  C   UNL     1       6.201  -5.321  27.281  0.00  0.00    +0.063 C 
BRANCH  17  18
ATOM     18  N   UNL     1       7.564  -5.849  27.549  0.00  0.00    -0.321 NA
ATOM     19  H   UNL     1       8.186  -5.065  27.757  0.00  0.00    +0.119 HD
ATOM     20  H   UNL     1       7.548  -6.399  28.410  0.00  0.00    +0.119 HD
ENDBRANCH  17  18
BRANCH  17  21
ATOM     21  C   UNL     1       5.322  -6.496  26.759  0.00  0.00    +0.180 C 
BRANCH  21  22
ATOM     22  O   UNL     1       5.114  -7.473  27.774  0.00  0.00    -0.393 OA
ATOM     23  H   UNL     1       4.183  -7.746  27.673  0.00  0.00    +0.209 HD
ENDBRANCH  21  22
ENDBRANCH  17  21
BRANCH  17  24
ATOM     24  C   UNL     1       5.579  -4.793  28.604  0.00  0.00    +0.180 C 
BRANCH  24  25
ATOM     25  O   UNL     1       6.136  -5.429  29.749  0.00  0.00    -0.393 OA
ATOM     26  H   UNL     1       6.914  -5.918  29.438  0.00  0.00    +0.209 HD
ENDBRANCH  24  25
ENDBRANCH  17  24
ENDBRANCH  16  17
ENDBRANCH  15  16
ENDBRANCH   4  15
TORSDOF 15
ENDMDL
MODEL 4
REMARK VINA RESULT:      -5.0      1.492      2.133
REMARK  Name = 
REMARK  16 active torsions:
REMARK  status: ('A' for Active; 'I' for Inactive)
REMARK    1  A    between atoms: C_1  and  C_2
REMARK    2  A    between atoms: C_2  and  C_3
REMARK    3  A    between atoms: C_3  and  C_4
REMARK    4  A    between atoms: C_4  and  C_5
REMARK    5  A    between atoms: C_5  and  C_6
REMARK    6  A    between atoms: C_6  and  C_7
REMARK    7  A    between atoms: C_7  and  C_8
REMARK    8  A    between atoms: C_8  and  C_9
REMARK    9  A    between atoms: C_12  and  C_13
REMARK   10  A    between atoms: C_13  and  C_14
REMARK   11  A    between atoms: C_14  and  C_15
REMARK   12  A    between atoms: C_15  and  N_16
REMARK   13  A    between atoms: C_15  and  C_17
REMARK   14  A    between atoms: C_15  and  C_19
REMARK   15  A    between atoms: C_17  and  O_18
REMARK   16  A    between atoms: C_19  and  O_20
REMARK                            x       y       z     vdW  Elec       q    Type
REMARK                         _______ _______ _______ _____ _____    ______ ____
ROOT
ATOM      1  C   UNL     1      10.226   2.354  23.376  0.00  0.00    -0.047 A 
ATOM      2  C   UNL     1      10.489   1.459  24.416  0.00  0.00    +0.004 A 
ATOM      3  C   UNL     1      10.484   0.081  24.180  0.00  0.00    +0.004 A 
ATOM      4  C   UNL     1      10.220  -0.425  22.899  0.00  0.00    -0.047 A 
ATOM      5  C   UNL     1       9.970   0.484  21.862  0.00  0.00    +0.004 A 
ATOM      6  C   UNL     1       9.994   1.854  22.093  0.00  0.00    +0.004 A 
ENDROOT
BRANCH   1   7
ATOM      7  C   UNL     1      10.151   3.836  23.621  0.00  0.00    +0.035 C 
BRANCH   7   8
ATOM      8  C   UNL     1       8.761   4.252  24.109  0.00  0.00    +0.005 C 
BRANCH   8   9
ATOM      9  C   UNL     1       7.993   4.972  23.010  0.00  0.00    +0.000 C 
BRANCH   9  10
ATOM     10  C   UNL     1       7.011   4.029  22.322  0.00  0.00    +0.000 C 
BRANCH  10  11
ATOM     11  C   UNL     1       6.523   2.965  23.299  0.00  0.00    -0.000 C 
BRANCH  11  12
ATOM     12  C   UNL     1       6.481   1.588  22.643  0.00  0.00    -0.000 C 
BRANCH  12  14
ATOM     13  C   UNL     1       6.919   1.070  25.061  0.00  0.00    +0.004 C 
ATOM     14  C   UNL     1       6.728   0.489  23.671  0.00  0.00    -0.003 C 
ENDBRANCH  12  14
ENDBRANCH  11  12
ENDBRANCH  10  11
ENDBRANCH   9  10
ENDBRANCH   8   9
ENDBRANCH   7   8
ENDBRANCH   1   7
BRANCH   4  15
ATOM     15  C   UNL     1      10.104  -1.920  22.697  0.00  0.00    +0.037 C 
BRANCH  15  16
ATOM     16  C   UNL     1       9.855  -2.714  23.989  0.00  0.00    +0.031 C 
BRANCH  16  17
ATOM     17  C   UNL     1       8.468  -3.379  24.175  0.00  0.00    +0.063 C 
BRANCH  17  18
ATOM     18  N   UNL     1       7.693  -2.720  25.259  0.00  0.00    -0.321 NA
ATOM     19  H   UNL     1       7.838  -1.710  25.200  0.00  0.00    +0.119 HD
ATOM     20  H   UNL     1       6.695  -2.847  25.083  0.00  0.00    +0.119 HD
ENDBRANCH  17  18
BRANCH  17  21
ATOM     21  C   UNL     1       8.724  -4.857  24.595  0.00  0.00    +0.180 C 
BRANCH  21  22
ATOM     22  O   UNL     1      10.108  -5.092  24.835  0.00  0.00    -0.393 OA
ATOM     23  H   UNL     1      10.233  -6.046  24.670  0.00  0.00    +0.209 HD
ENDBRANCH  21  22
ENDBRANCH  17  21
BRANCH  17  24
ATOM     24  C   UNL     1       7.634  -3.378  22.865  0.00  0.00    +0.180 C 
BRANCH  24  25
ATOM     25  O   UNL     1       7.395  -4.695  22.380  0.00  0.00    -0.393 OA
ATOM     26  H   UNL     1       6.823  -5.126  23.035  0.00  0.00    +0.209 HD
ENDBRANCH  24  25
ENDBRANCH  17  24
ENDBRANCH  16  17
ENDBRANCH  15  16
ENDBRANCH   4  15
TORSDOF 15
ENDMDL
MODEL 5
REMARK VINA RESULT:      -5.0      2.295      3.441
REMARK  Name = 
REMARK  16 active torsions:
REMARK  status: ('A' for Active; 'I' for Inactive)
REMARK    1  A    between atoms: C_1  and  C_2
REMARK    2  A    between atoms: C_2  and  C_3
REMARK    3  A    between atoms: C_3  and  C_4
REMARK    4  A    between atoms: C_4  and  C_5
REMARK    5  A    between atoms: C_5  and  C_6
REMARK    6  A    between atoms: C_6  and  C_7
REMARK    7  A    between atoms: C_7  and  C_8
REMARK    8  A    between atoms: C_8  and  C_9
REMARK    9  A    between atoms: C_12  and  C_13
REMARK   10  A    between atoms: C_13  and  C_14
REMARK   11  A    between atoms: C_14  and  C_15
REMARK   12  A    between atoms: C_15  and  N_16
REMARK   13  A    between atoms: C_15  and  C_17
REMARK   14  A    between atoms: C_15  and  C_19
REMARK   15  A    between atoms: C_17  and  O_18
REMARK   16  A    between atoms: C_19  and  O_20
REMARK                            x       y       z     vdW  Elec       q    Type
REMARK                         _______ _______ _______ _____ _____    ______ ____
ROOT
ATOM      1  C   UNL     1      10.129  -0.463  24.550  0.00  0.00    -0.047 A 
ATOM      2  C   UNL     1       9.333  -0.596  25.692  0.00  0.00    +0.004 A 
ATOM      3  C   UNL     1       8.512  -1.716  25.853  0.00  0.00    +0.004 A 
ATOM      4  C   UNL     1       8.475  -2.723  24.879  0.00  0.00    -0.047 A 
ATOM      5  C   UNL     1       9.286  -2.584  23.745  0.00  0.00    +0.004 A 
ATOM      6  C   UNL     1      10.117  -1.480  23.593  0.00  0.00    +0.004 A 
ENDROOT
BRANCH   1   7
ATOM      7  C   UNL     1      10.962   0.766  24.319  0.00  0.00    +0.035 C 
BRANCH   7   8
ATOM      8  C   UNL     1      10.134   1.893  23.695  0.00  0.00    +0.005 C 
BRANCH   8   9
ATOM      9  C   UNL     1      10.163   1.811  22.176  0.00  0.00    +0.000 C 
BRANCH   9  10
ATOM     10  C   UNL     1       8.793   1.428  21.623  0.00  0.00    +0.000 C 
BRANCH  10  11
ATOM     11  C   UNL     1       7.720   1.614  22.690  0.00  0.00    -0.000 C 
BRANCH  11  12
ATOM     12  C   UNL     1       6.942   0.322  22.923  0.00  0.00    -0.000 C 
BRANCH  12  14
ATOM     13  C   UNL     1       6.519   1.597  25.045  0.00  0.00    +0.004 C 
ATOM     14  C   UNL     1       6.092   0.420  24.186  0.00  0.00    -0.003 C 
ENDBRANCH  12  14
ENDBRANCH  11  12
ENDBRANCH  10  11
ENDBRANCH   9  10
ENDBRANCH   8   9
ENDBRANCH   7   8
ENDBRANCH   1   7
BRANCH   4  15
ATOM     15  C   UNL     1       7.490  -3.864  25.021  0.00  0.00    +0.037 C 
BRANCH  15  16
ATOM     16  C   UNL     1       6.097  -3.570  24.444  0.00  0.00    +0.031 C 
BRANCH  16  17
ATOM     17  C   UNL     1       5.715  -4.237  23.099  0.00  0.00    +0.063 C 
BRANCH  17  18
ATOM     18  N   UNL     1       4.248  -4.447  22.996  0.00  0.00    -0.321 NA
ATOM     19  H   UNL     1       3.773  -3.568  23.211  0.00  0.00    +0.119 HD
ATOM     20  H   UNL     1       4.003  -4.640  22.024  0.00  0.00    +0.119 HD
ENDBRANCH  17  18
BRANCH  17  21
ATOM     21  C   UNL     1       6.406  -5.633  23.070  0.00  0.00    +0.180 C 
BRANCH  21  22
ATOM     22  O   UNL     1       5.915  -6.427  21.994  0.00  0.00    -0.393 OA
ATOM     23  H   UNL     1       5.438  -7.163  22.422  0.00  0.00    +0.209 HD
ENDBRANCH  21  22
ENDBRANCH  17  21
BRANCH  17  24
ATOM     24  C   UNL     1       6.209  -3.418  21.874  0.00  0.00    +0.180 C 
BRANCH  24  25
ATOM     25  O   UNL     1       5.680  -3.914  20.649  0.00  0.00    -0.393 OA
ATOM     26  H   UNL     1       4.988  -3.291  20.380  0.00  0.00    +0.209 HD
ENDBRANCH  24  25
ENDBRANCH  17  24
ENDBRANCH  16  17
ENDBRANCH  15  16
ENDBRANCH   4  15
TORSDOF 15
ENDMDL
MODEL 6
REMARK VINA RESULT:      -4.9      3.216      6.610
REMARK  Name = 
REMARK  16 active torsions:
REMARK  status: ('A' for Active; 'I' for Inactive)
REMARK    1  A    between atoms: C_1  and  C_2
REMARK    2  A    between atoms: C_2  and  C_3
REMARK    3  A    between atoms: C_3  and  C_4
REMARK    4  A    between atoms: C_4  and  C_5
REMARK    5  A    between atoms: C_5  and  C_6
REMARK    6  A    between atoms: C_6  and  C_7
REMARK    7  A    between atoms: C_7  and  C_8
REMARK    8  A    between atoms: C_8  and  C_9
REMARK    9  A    between atoms: C_12  and  C_13
REMARK   10  A    between atoms: C_13  and  C_14
REMARK   11  A    between atoms: C_14  and  C_15
REMARK   12  A    between atoms: C_15  and  N_16
REMARK   13  A    between atoms: C_15  and  C_17
REMARK   14  A    between atoms: C_15  and  C_19
REMARK   15  A    between atoms: C_17  and  O_18
REMARK   16  A    between atoms: C_19  and  O_20
REMARK                            x       y       z     vdW  Elec       q    Type
REMARK                         _______ _______ _______ _____ _____    ______ ____
ROOT
ATOM      1  C   UNL     1       7.361  -4.136  26.447  0.00  0.00    -0.047 A 
ATOM      2  C   UNL     1       8.256  -4.900  25.693  0.00  0.00    +0.004 A 
ATOM      3  C   UNL     1       9.147  -4.279  24.813  0.00  0.00    +0.004 A 
ATOM      4  C   UNL     1       9.162  -2.884  24.675  0.00  0.00    -0.047 A 
ATOM      5  C   UNL     1       8.269  -2.128  25.446  0.00  0.00    +0.004 A 
ATOM      6  C   UNL     1       7.396  -2.745  26.336  0.00  0.00    +0.004 A 
ENDROOT
BRANCH   1   7
ATOM      7  C   UNL     1       6.343  -4.785  27.343  0.00  0.00    +0.035 C 
BRANCH   7   8
ATOM      8  C   UNL     1       5.752  -6.041  26.698  0.00  0.00    +0.005 C 
BRANCH   8   9
ATOM      9  C   UNL     1       4.619  -5.682  25.748  0.00  0.00    +0.000 C 
BRANCH   9  10
ATOM     10  C   UNL     1       4.831  -6.318  24.377  0.00  0.00    +0.000 C 
BRANCH  10  11
ATOM     11  C   UNL     1       5.431  -5.305  23.409  0.00  0.00    -0.000 C 
BRANCH  11  12
ATOM     12  C   UNL     1       4.781  -3.934  23.570  0.00  0.00    -0.000 C 
BRANCH  12  14
ATOM     13  C   UNL     1       6.710  -3.423  22.045  0.00  0.00    +0.004 C 
ATOM     14  C   UNL     1       5.667  -2.840  22.983  0.00  0.00    -0.003 C 
ENDBRANCH  12  14
ENDBRANCH  11  12
ENDBRANCH  10  11
ENDBRANCH   9  10
ENDBRANCH   8   9
ENDBRANCH   7   8
ENDBRANCH   1   7
BRANCH   4  15
ATOM     15  C   UNL     1      10.052  -2.247  23.631  0.00  0.00    +0.037 C 
BRANCH  15  16
ATOM     16  C   UNL     1       9.973  -0.713  23.585  0.00  0.00    +0.031 C 
BRANCH  16  17
ATOM     17  C   UNL     1       9.331  -0.058  22.337  0.00  0.00    +0.063 C 
BRANCH  17  18
ATOM     18  N   UNL     1       9.505  -0.906  21.130  0.00  0.00    -0.321 NA
ATOM     19  H   UNL     1       9.826  -1.831  21.421  0.00  0.00    +0.119 HD
ATOM     20  H   UNL     1       8.593  -1.074  20.702  0.00  0.00    +0.119 HD
ENDBRANCH  17  18
BRANCH  17  21
ATOM     21  C   UNL     1      10.077   1.288  22.093  0.00  0.00    +0.180 C 
BRANCH  21  22
ATOM     22  O   UNL     1       9.213   2.256  21.506  0.00  0.00    -0.393 OA
ATOM     23  H   UNL     1       9.712   2.610  20.746  0.00  0.00    +0.209 HD
ENDBRANCH  21  22
ENDBRANCH  17  21
BRANCH  17  24
ATOM     24  C   UNL     1       7.821   0.249  22.544  0.00  0.00    +0.180 C 
BRANCH  24  25
ATOM     25  O   UNL     1       7.580   0.968  23.748  0.00  0.00    -0.393 OA
ATOM     26  H   UNL     1       7.767   1.900  23.551  0.00  0.00    +0.209 HD
ENDBRANCH  24  25
ENDBRANCH  17  24
ENDBRANCH  16  17
ENDBRANCH  15  16
ENDBRANCH   4  15
TORSDOF 15
ENDMDL
MODEL 7
REMARK VINA RESULT:      -4.9      3.678      6.715
REMARK  Name = 
REMARK  16 active torsions:
REMARK  status: ('A' for Active; 'I' for Inactive)
REMARK    1  A    between atoms: C_1  and  C_2
REMARK    2  A    between atoms: C_2  and  C_3
REMARK    3  A    between atoms: C_3  and  C_4
REMARK    4  A    between atoms: C_4  and  C_5
REMARK    5  A    between atoms: C_5  and  C_6
REMARK    6  A    between atoms: C_6  and  C_7
REMARK    7  A    between atoms: C_7  and  C_8
REMARK    8  A    between atoms: C_8  and  C_9
REMARK    9  A    between atoms: C_12  and  C_13
REMARK   10  A    between atoms: C_13  and  C_14
REMARK   11  A    between atoms: C_14  and  C_15
REMARK   12  A    between atoms: C_15  and  N_16
REMARK   13  A    between atoms: C_15  and  C_17
REMARK   14  A    between atoms: C_15  and  C_19
REMARK   15  A    between atoms: C_17  and  O_18
REMARK   16  A    between atoms: C_19  and  O_20
REMARK                            x       y       z     vdW  Elec       q    Type
REMARK                         _______ _______ _______ _____ _____    ______ ____
ROOT
ATOM      1  C   UNL     1       6.913  -2.313  22.791  0.00  0.00    -0.047 A 
ATOM      2  C   UNL     1       8.214  -2.292  22.279  0.00  0.00    +0.004 A 
ATOM      3  C   UNL     1       9.230  -1.619  22.962  0.00  0.00    +0.004 A 
ATOM      4  C   UNL     1       8.965  -0.957  24.170  0.00  0.00    -0.047 A 
ATOM      5  C   UNL     1       7.660  -0.996  24.678  0.00  0.00    +0.004 A 
ATOM      6  C   UNL     1       6.653  -1.683  24.009  0.00  0.00    +0.004 A 
ENDROOT
BRANCH   1   7
ATOM      7  C   UNL     1       5.789  -2.967  22.036  0.00  0.00    +0.035 C 
BRANCH   7   8
ATOM      8  C   UNL     1       4.918  -3.820  22.962  0.00  0.00    +0.005 C 
BRANCH   8   9
ATOM      9  C   UNL     1       5.621  -5.120  23.323  0.00  0.00    +0.000 C 
BRANCH   9  10
ATOM     10  C   UNL     1       5.463  -5.434  24.808  0.00  0.00    +0.000 C 
BRANCH  10  11
ATOM     11  C   UNL     1       6.806  -5.315  25.521  0.00  0.00    -0.000 C 
BRANCH  11  12
ATOM     12  C   UNL     1       7.960  -5.266  24.524  0.00  0.00    -0.000 C 
BRANCH  12  14
ATOM     13  C   UNL     1       8.881  -4.059  26.524  0.00  0.00    +0.004 C 
ATOM     14  C   UNL     1       9.195  -4.630  25.153  0.00  0.00    -0.003 C 
ENDBRANCH  12  14
ENDBRANCH  11  12
ENDBRANCH  10  11
ENDBRANCH   9  10
ENDBRANCH   8   9
ENDBRANCH   7   8
ENDBRANCH   1   7
BRANCH   4  15
ATOM     15  C   UNL     1      10.054  -0.137  24.827  0.00  0.00    +0.037 C 
BRANCH  15  16
ATOM     16  C   UNL     1      10.589   1.012  23.958  0.00  0.00    +0.031 C 
BRANCH  16  17
ATOM     17  C   UNL     1       9.766   2.323  23.903  0.00  0.00    +0.063 C 
BRANCH  17  18
ATOM     18  N   UNL     1       8.869   2.449  25.081  0.00  0.00    -0.321 NA
ATOM     19  H   UNL     1       8.676   1.515  25.449  0.00  0.00    +0.119 HD
ATOM     20  H   UNL     1       9.369   2.923  25.835  0.00  0.00    +0.119 HD
ENDBRANCH  17  18
BRANCH  17  21
ATOM     21  C   UNL     1       8.877   2.251  22.626  0.00  0.00    +0.180 C 
BRANCH  21  22
ATOM     22  O   UNL     1       9.670   2.058  21.458  0.00  0.00    -0.393 OA
ATOM     23  H   UNL     1      10.329   1.385  21.711  0.00  0.00    +0.209 HD
ENDBRANCH  21  22
ENDBRANCH  17  21
BRANCH  17  24
ATOM     24  C   UNL     1      10.671   3.583  23.802  0.00  0.00    +0.180 C 
BRANCH  24  25
ATOM     25  O   UNL     1      10.056   4.625  23.052  0.00  0.00    -0.393 OA
ATOM     26  H   UNL     1       9.709   4.212  22.246  0.00  0.00    +0.209 HD
ENDBRANCH  24  25
ENDBRANCH  17  24
ENDBRANCH  16  17
ENDBRANCH  15  16
ENDBRANCH   4  15
TORSDOF 15
ENDMDL
MODEL 8
REMARK VINA RESULT:      -4.8      1.950      3.052
REMARK  Name = 
REMARK  16 active torsions:
REMARK  status: ('A' for Active; 'I' for Inactive)
REMARK    1  A    between atoms: C_1  and  C_2
REMARK    2  A    between atoms: C_2  and  C_3
REMARK    3  A    between atoms: C_3  and  C_4
REMARK    4  A    between atoms: C_4  and  C_5
REMARK    5  A    between atoms: C_5  and  C_6
REMARK    6  A    between atoms: C_6  and  C_7
REMARK    7  A    between atoms: C_7  and  C_8
REMARK    8  A    between atoms: C_8  and  C_9
REMARK    9  A    between atoms: C_12  and  C_13
REMARK   10  A    between atoms: C_13  and  C_14
REMARK   11  A    between atoms: C_14  and  C_15
REMARK   12  A    between atoms: C_15  and  N_16
REMARK   13  A    between atoms: C_15  and  C_17
REMARK   14  A    between atoms: C_15  and  C_19
REMARK   15  A    between atoms: C_17  and  O_18
REMARK   16  A    between atoms: C_19  and  O_20
REMARK                            x       y       z     vdW  Elec       q    Type
REMARK                         _______ _______ _______ _____ _____    ______ ____
ROOT
ATOM      1  C   UNL     1       9.116  -0.950  22.249  0.00  0.00    -0.047 A 
ATOM      2  C   UNL     1       7.813  -1.438  22.384  0.00  0.00    +0.004 A 
ATOM      3  C   UNL     1       7.563  -2.585  23.142  0.00  0.00    +0.004 A 
ATOM      4  C   UNL     1       8.611  -3.264  23.781  0.00  0.00    -0.047 A 
ATOM      5  C   UNL     1       9.912  -2.758  23.648  0.00  0.00    +0.004 A 
ATOM      6  C   UNL     1      10.157  -1.605  22.911  0.00  0.00    +0.004 A 
ENDROOT
BRANCH   1   7
ATOM      7  C   UNL     1       9.418   0.238  21.379  0.00  0.00    +0.035 C 
BRANCH   7   8
ATOM      8  C   UNL     1      10.065   1.369  22.183  0.00  0.00    +0.005 C 
BRANCH   8   9
ATOM      9  C   UNL     1       9.026   2.106  23.016  0.00  0.00    +0.000 C 
BRANCH   9  10
ATOM     10  C   UNL     1       9.374   2.050  24.500  0.00  0.00    +0.000 C 
BRANCH  10  11
ATOM     11  C   UNL     1       8.487   1.037  25.215  0.00  0.00    -0.000 C 
BRANCH  11  12
ATOM     12  C   UNL     1       9.318  -0.075  25.850  0.00  0.00    -0.000 C 
BRANCH  12  14
ATOM     13  C   UNL     1       7.070  -1.051  26.403  0.00  0.00    +0.004 C 
ATOM     14  C   UNL     1       8.497  -0.846  26.880  0.00  0.00    -0.003 C 
ENDBRANCH  12  14
ENDBRANCH  11  12
ENDBRANCH  10  11
ENDBRANCH   9  10
ENDBRANCH   8   9
ENDBRANCH   7   8
ENDBRANCH   1   7
BRANCH   4  15
ATOM     15  C   UNL     1       8.331  -4.568  24.495  0.00  0.00    +0.037 C 
BRANCH  15  16
ATOM     16  C   UNL     1       6.842  -4.944  24.560  0.00  0.00    +0.031 C 
BRANCH  16  17
ATOM     17  C   UNL     1       6.199  -5.115  25.959  0.00  0.00    +0.063 C 
BRANCH  17  18
ATOM     18  N   UNL     1       5.670  -6.491  26.147  0.00  0.00    -0.321 NA
ATOM     19  H   UNL     1       5.836  -6.778  27.114  0.00  0.00    +0.119 HD
ATOM     20  H   UNL     1       4.653  -6.476  26.055  0.00  0.00    +0.119 HD
ENDBRANCH  17  18
BRANCH  17  21
ATOM     21  C   UNL     1       5.000  -4.123  26.034  0.00  0.00    +0.180 C 
BRANCH  21  22
ATOM     22  O   UNL     1       4.655  -3.634  24.742  0.00  0.00    -0.393 OA
ATOM     23  H   UNL     1       5.401  -3.894  24.168  0.00  0.00    +0.209 HD
ENDBRANCH  21  22
ENDBRANCH  17  21
BRANCH  17  24
ATOM     24  C   UNL     1       7.189  -4.778  27.108  0.00  0.00    +0.180 C 
BRANCH  24  25
ATOM     25  O   UNL     1       7.689  -5.948  27.746  0.00  0.00    -0.393 OA
ATOM     26  H   UNL     1       8.308  -5.643  28.428  0.00  0.00    +0.209 HD
ENDBRANCH  24  25
ENDBRANCH  17  24
ENDBRANCH  16  17
ENDBRANCH  15  16
ENDBRANCH   4  15
TORSDOF 15
ENDMDL
MODEL 9
REMARK VINA RESULT:      -4.7      3.728      6.467
REMARK  Name = 
REMARK  16 active torsions:
REMARK  status: ('A' for Active; 'I' for Inactive)
REMARK    1  A    between atoms: C_1  and  C_2
REMARK    2  A    between atoms: C_2  and  C_3
REMARK    3  A    between atoms: C_3  and  C_4
REMARK    4  A    between atoms: C_4  and  C_5
REMARK    5  A    between atoms: C_5  and  C_6
REMARK    6  A    between atoms: C_6  and  C_7
REMARK    7  A    between atoms: C_7  and  C_8
REMARK    8  A    between atoms: C_8  and  C_9
REMARK    9  A    between atoms: C_12  and  C_13
REMARK   10  A    between atoms: C_13  and  C_14
REMARK   11  A    between atoms: C_14  and  C_15
REMARK   12  A    between atoms: C_15  and  N_16
REMARK   13  A    between atoms: C_15  and  C_17
REMARK   14  A    between atoms: C_15  and  C_19
REMARK   15  A    between atoms: C_17  and  O_18
REMARK   16  A    between atoms: C_19  and  O_20
REMARK                            x       y       z     vdW  Elec       q    Type
REMARK                         _______ _______ _______ _____ _____    ______ ____
ROOT
ATOM      1  C   UNL     1       9.247  -3.193  24.912  0.00  0.00    -0.047 A 
ATOM      2  C   UNL     1       9.850  -2.549  23.827  0.00  0.00    +0.004 A 
ATOM      3  C   UNL     1       9.933  -1.155  23.792  0.00  0.00    +0.004 A 
ATOM      4  C   UNL     1       9.416  -0.379  24.840  0.00  0.00    -0.047 A 
ATOM      5  C   UNL     1       8.825  -1.038  25.927  0.00  0.00    +0.004 A 
ATOM      6  C   UNL     1       8.761  -2.426  25.971  0.00  0.00    +0.004 A 
ENDROOT
BRANCH   1   7
ATOM      7  C   UNL     1       9.080  -4.687  24.937  0.00  0.00    +0.035 C 
BRANCH   7   8
ATOM      8  C   UNL     1       7.620  -5.090  24.711  0.00  0.00    +0.005 C 
BRANCH   8   9
ATOM      9  C   UNL     1       7.261  -5.021  23.234  0.00  0.00    +0.000 C 
BRANCH   9  10
ATOM     10  C   UNL     1       5.899  -4.363  23.032  0.00  0.00    +0.000 C 
BRANCH  10  11
ATOM     11  C   UNL     1       6.049  -3.062  22.250  0.00  0.00    -0.000 C 
BRANCH  11  12
ATOM     12  C   UNL     1       6.288  -1.879  23.184  0.00  0.00    -0.000 C 
BRANCH  12  14
ATOM     13  C   UNL     1       5.453  -0.722  25.251  0.00  0.00    +0.004 C 
ATOM     14  C   UNL     1       5.462  -2.018  24.459  0.00  0.00    -0.003 C 
ENDBRANCH  12  14
ENDBRANCH  11  12
ENDBRANCH  10  11
ENDBRANCH   9  10
ENDBRANCH   8   9
ENDBRANCH   7   8
ENDBRANCH   1   7
BRANCH   4  15
ATOM     15  C   UNL     1       9.412   1.129  24.721  0.00  0.00    +0.037 C 
BRANCH  15  16
ATOM     16  C   UNL     1       8.105   1.713  24.161  0.00  0.00    +0.031 C 
BRANCH  16  17
ATOM     17  C   UNL     1       8.167   2.453  22.801  0.00  0.00    +0.063 C 
BRANCH  17  18
ATOM     18  N   UNL     1       8.756   3.809  22.948  0.00  0.00    -0.321 NA
ATOM     19  H   UNL     1       9.305   4.021  22.112  0.00  0.00    +0.119 HD
ATOM     20  H   UNL     1       8.007   4.503  22.946  0.00  0.00    +0.119 HD
ENDBRANCH  17  18
BRANCH  17  21
ATOM     21  C   UNL     1       6.699   2.615  22.303  0.00  0.00    +0.180 C 
BRANCH  21  22
ATOM     22  O   UNL     1       6.461   3.937  21.831  0.00  0.00    -0.393 OA
ATOM     23  H   UNL     1       5.768   4.293  22.419  0.00  0.00    +0.209 HD
ENDBRANCH  21  22
ENDBRANCH  17  21
BRANCH  17  24
ATOM     24  C   UNL     1       8.962   1.654  21.732  0.00  0.00    +0.180 C 
BRANCH  24  25
ATOM     25  O   UNL     1      10.258   2.199  21.510  0.00  0.00    -0.393 OA
ATOM     26  H   UNL     1      10.325   2.983  22.078  0.00  0.00    +0.209 HD
ENDBRANCH  24  25
ENDBRANCH  17  24
ENDBRANCH  16  17
ENDBRANCH  15  16
ENDBRANCH   4  15
TORSDOF 15
ENDMDL
