MODEL 1
REMARK VINA RESULT:      -7.5      0.000      0.000
REMARK  Name = 
REMARK  7 active torsions:
REMARK  status: ('A' for Active; 'I' for Inactive)
REMARK    1  A    between atoms: C_1  and  C_2
REMARK    2  A    between atoms: C_4  and  C_5
REMARK    3  A    between atoms: C_5  and  C_6
REMARK    4  A    between atoms: N_8  and  C_16
REMARK    5  A    between atoms: C_16  and  C_17
REMARK    6  A    between atoms: C_16  and  C_18
REMARK    7  A    between atoms: C_16  and  C_19
REMARK                            x       y       z     vdW  Elec       q    Type
REMARK                         _______ _______ _______ _____ _____    ______ ____
ROOT
ATOM      1  C   UNL     1       8.667  -3.477  24.135  0.00  0.00    +0.080 A 
ATOM      2  C   UNL     1       8.197  -4.318  25.181  0.00  0.00    +0.082 A 
ATOM      3  C   UNL     1       8.667  -4.901  26.364  0.00  0.00    +0.130 A 
ATOM      4  N   UNL     1       7.774  -5.463  27.204  0.00  0.00    -0.220 NA
ATOM      5  C   UNL     1       6.481  -5.507  26.832  0.00  0.00    +0.225 A 
ATOM      6  N   UNL     1       5.947  -5.132  25.662  0.00  0.00    -0.216 NA
ATOM      7  N   UNL     1       9.998  -4.989  26.714  0.00  0.00    -0.342 N 
ATOM      8  H   UNL     1      10.131  -5.247  27.686  0.00  0.00    +0.144 HD
ATOM      9  H   UNL     1      10.646  -4.330  26.314  0.00  0.00    +0.144 HD
ATOM     10  C   UNL     1       6.867  -4.539  24.873  0.00  0.00    +0.164 A 
ATOM     11  N   UNL     1       6.711  -4.119  23.570  0.00  0.00    -0.241 N 
ATOM     12  N   UNL     1       7.763  -3.372  23.140  0.00  0.00    -0.173 NA
ENDROOT
BRANCH  11  13
ATOM     13  C   UNL     1       5.642  -4.521  22.639  0.00  0.00    +0.058 C 
ATOM     14  C   UNL     1       5.788  -6.003  22.259  0.00  0.00    +0.036 C 
ATOM     15  C   UNL     1       5.701  -3.647  21.367  0.00  0.00    +0.036 C 
ATOM     16  C   UNL     1       4.239  -4.321  23.261  0.00  0.00    +0.036 C 
ENDBRANCH  11  13
BRANCH   1  17
ATOM     17  C   UNL     1       9.961  -2.728  24.019  0.00  0.00    +0.093 C 
BRANCH  17  23
ATOM     18  C   UNL     1       8.973   2.237  24.671  0.00  0.00    +0.044 C 
ATOM     19  C   UNL     1       9.206   1.060  23.770  0.00  0.00    -0.050 A 
ATOM     20  C   UNL     1       9.394   1.259  22.399  0.00  0.00    +0.003 A 
ATOM     21  C   UNL     1       9.698   0.181  21.571  0.00  0.00    +0.001 A 
ATOM     22  C   UNL     1       9.864  -1.094  22.114  0.00  0.00    +0.004 A 
ATOM     23  C   UNL     1       9.711  -1.321  23.493  0.00  0.00    -0.041 A 
ATOM     24  C   UNL     1       9.311  -0.237  24.295  0.00  0.00    +0.007 A 
ENDBRANCH  17  23
ENDBRANCH   1  17
TORSDOF 3
ENDMDL
MODEL 2
REMARK VINA RESULT:      -7.1      2.079      2.334
REMARK  Name = 
REMARK  7 active torsions:
REMARK  status: ('A' for Active; 'I' for Inactive)
REMARK    1  A    between atoms: C_1  and  C_2
REMARK    2  A    between atoms: C_4  and  C_5
REMARK    3  A    between atoms: C_5  and  C_6
REMARK    4  A    between atoms: N_8  and  C_16
REMARK    5  A    between atoms: C_16  and  C_17
REMARK    6  A    between atoms: C_16  and  C_18
REMARK    7  A    between atoms: C_16  and  C_19
REMARK                            x       y       z     vdW  Elec       q    Type
REMARK                         _______ _______ _______ _____ _____    ______ ____
ROOT
ATOM      1  C   UNL     1       8.580  -2.536  24.256  0.00  0.00    +0.080 A 
ATOM      2  C   UNL     1       7.734  -2.093  25.310  0.00  0.00    +0.082 A 
ATOM      3  C   UNL     1       7.781  -1.241  26.420  0.00  0.00    +0.130 A 
ATOM      4  N   UNL     1       6.626  -0.928  27.041  0.00  0.00    -0.220 NA
ATOM      5  C   UNL     1       5.488  -1.510  26.616  0.00  0.00    +0.225 A 
ATOM      6  N   UNL     1       5.349  -2.456  25.678  0.00  0.00    -0.216 NA
ATOM      7  N   UNL     1       8.943  -0.732  26.963  0.00  0.00    -0.342 N 
ATOM      8  H   UNL     1       8.770   0.021  27.619  0.00  0.00    +0.144 HD
ATOM      9  H   UNL     1       9.758  -0.663  26.376  0.00  0.00    +0.144 HD
ATOM     10  C   UNL     1       6.520  -2.706  25.057  0.00  0.00    +0.164 A 
ATOM     11  N   UNL     1       6.782  -3.679  24.117  0.00  0.00    -0.241 N 
ATOM     12  N   UNL     1       8.002  -3.521  23.539  0.00  0.00    -0.173 NA
ENDROOT
BRANCH  11  13
ATOM     13  C   UNL     1       5.961  -4.869  23.832  0.00  0.00    +0.058 C 
ATOM     14  C   UNL     1       5.729  -5.683  25.114  0.00  0.00    +0.036 C 
ATOM     15  C   UNL     1       6.665  -5.748  22.775  0.00  0.00    +0.036 C 
ATOM     16  C   UNL     1       4.580  -4.482  23.252  0.00  0.00    +0.036 C 
ENDBRANCH  11  13
BRANCH   1  17
ATOM     17  C   UNL     1       9.946  -2.060  23.863  0.00  0.00    +0.093 C 
BRANCH  17  23
ATOM     18  C   UNL     1      10.960   2.939  23.653  0.00  0.00    +0.044 C 
ATOM     19  C   UNL     1      10.299   1.716  23.087  0.00  0.00    -0.050 A 
ATOM     20  C   UNL     1       9.732   1.759  21.810  0.00  0.00    +0.003 A 
ATOM     21  C   UNL     1       9.196   0.605  21.244  0.00  0.00    +0.001 A 
ATOM     22  C   UNL     1       9.266  -0.610  21.929  0.00  0.00    +0.004 A 
ATOM     23  C   UNL     1       9.858  -0.691  23.201  0.00  0.00    -0.041 A 
ATOM     24  C   UNL     1      10.306   0.503  23.793  0.00  0.00    +0.007 A 
ENDBRANCH  17  23
ENDBRANCH   1  17
TORSDOF 3
ENDMDL
MODEL 3
REMARK VINA RESULT:      -6.8      1.758      2.506
REMARK  Name = 
REMARK  7 active torsions:
REMARK  status: ('A' for Active; 'I' for Inactive)
REMARK    1  A    between atoms: C_1  and  C_2
REMARK    2  A    between atoms: C_4  and  C_5
REMARK    3  A    between atoms: C_5  and  C_6
REMARK    4  A    between atoms: N_8  and  C_16
REMARK    5  A    between atoms: C_16  and  C_17
REMARK    6  A    between atoms: C_16  and  C_18
REMARK    7  A    between atoms: C_16  and  C_19
REMARK                            x       y       z     vdW  Elec       q    Type
REMARK                         _______ _______ _______ _____ _____    ______ ____
ROOT
ATOM      1  C   UNL     1       6.738  -4.835  23.964  0.00  0.00    +0.080 A 
ATOM      2  C   UNL     1       6.904  -5.225  25.322  0.00  0.00    +0.082 A 
ATOM      3  C   UNL     1       7.934  -5.417  26.250  0.00  0.00    +0.130 A 
ATOM      4  N   UNL     1       7.608  -5.575  27.550  0.00  0.00    -0.220 NA
ATOM      5  C   UNL     1       6.305  -5.619  27.885  0.00  0.00    +0.225 A 
ATOM      6  N   UNL     1       5.243  -5.612  27.068  0.00  0.00    -0.216 NA
ATOM      7  N   UNL     1       9.271  -5.508  25.925  0.00  0.00    -0.342 N 
ATOM      8  H   UNL     1       9.877  -5.434  26.734  0.00  0.00    +0.144 HD
ATOM      9  H   UNL     1       9.586  -5.087  25.066  0.00  0.00    +0.144 HD
ATOM     10  C   UNL     1       5.614  -5.410  25.786  0.00  0.00    +0.164 A 
ATOM     11  N   UNL     1       4.815  -5.441  24.665  0.00  0.00    -0.241 N 
ATOM     12  N   UNL     1       5.461  -4.986  23.558  0.00  0.00    -0.173 NA
ENDROOT
BRANCH  11  13
ATOM     13  C   UNL     1       3.468  -6.030  24.563  0.00  0.00    +0.058 C 
ATOM     14  C   UNL     1       3.472  -7.477  25.081  0.00  0.00    +0.036 C 
ATOM     15  C   UNL     1       2.996  -6.004  23.092  0.00  0.00    +0.036 C 
ATOM     16  C   UNL     1       2.431  -5.228  25.385  0.00  0.00    +0.036 C 
ENDBRANCH  11  13
BRANCH   1  17
ATOM     17  C   UNL     1       7.746  -4.296  22.994  0.00  0.00    +0.093 C 
BRANCH  17  23
ATOM     18  C   UNL     1       6.585   0.608  23.807  0.00  0.00    +0.044 C 
ATOM     19  C   UNL     1       7.597  -0.497  23.724  0.00  0.00    -0.050 A 
ATOM     20  C   UNL     1       8.903  -0.282  24.172  0.00  0.00    +0.003 A 
ATOM     21  C   UNL     1       9.822  -1.328  24.180  0.00  0.00    +0.001 A 
ATOM     22  C   UNL     1       9.429  -2.608  23.785  0.00  0.00    +0.004 A 
ATOM     23  C   UNL     1       8.115  -2.864  23.358  0.00  0.00    -0.041 A 
ATOM     24  C   UNL     1       7.231  -1.774  23.268  0.00  0.00    +0.007 A 
ENDBRANCH  17  23
ENDBRANCH   1  17
TORSDOF 3
ENDMDL
MODEL 4
REMARK VINA RESULT:      -6.7      2.343      3.405
REMARK  Name = 
REMARK  7 active torsions:
REMARK  status: ('A' for Active; 'I' for Inactive)
REMARK    1  A    between atoms: C_1  and  C_2
REMARK    2  A    between atoms: C_4  and  C_5
REMARK    3  A    between atoms: C_5  and  C_6
REMARK    4  A    between atoms: N_8  and  C_16
REMARK    5  A    between atoms: C_16  and  C_17
REMARK    6  A    between atoms: C_16  and  C_18
REMARK    7  A    between atoms: C_16  and  C_19
REMARK                            x       y       z     vdW  Elec       q    Type
REMARK                         _______ _______ _______ _____ _____    ______ ____
ROOT
ATOM      1  C   UNL     1       8.872  -1.151  22.829  0.00  0.00    +0.080 A 
ATOM      2  C   UNL     1       8.835  -1.189  24.251  0.00  0.00    +0.082 A 
ATOM      3  C   UNL     1       9.404  -0.525  25.344  0.00  0.00    +0.130 A 
ATOM      4  N   UNL     1       8.889  -0.744  26.571  0.00  0.00    -0.220 NA
ATOM      5  C   UNL     1       7.902  -1.650  26.701  0.00  0.00    +0.225 A 
ATOM      6  N   UNL     1       7.396  -2.457  25.760  0.00  0.00    -0.216 NA
ATOM      7  N   UNL     1      10.500   0.310  25.265  0.00  0.00    -0.342 N 
ATOM      8  H   UNL     1      10.636   0.858  26.106  0.00  0.00    +0.144 HD
ATOM      9  H   UNL     1      10.707   0.750  24.383  0.00  0.00    +0.144 HD
ATOM     10  C   UNL     1       7.909  -2.174  24.545  0.00  0.00    +0.164 A 
ATOM     11  N   UNL     1       7.703  -2.855  23.365  0.00  0.00    -0.241 N 
ATOM     12  N   UNL     1       8.194  -2.184  22.289  0.00  0.00    -0.173 NA
ENDROOT
BRANCH  11  13
ATOM     13  C   UNL     1       7.168  -4.220  23.221  0.00  0.00    +0.058 C 
ATOM     14  C   UNL     1       5.760  -4.314  23.830  0.00  0.00    +0.036 C 
ATOM     15  C   UNL     1       8.107  -5.227  23.921  0.00  0.00    +0.036 C 
ATOM     16  C   UNL     1       7.077  -4.644  21.736  0.00  0.00    +0.036 C 
ENDBRANCH  11  13
BRANCH   1  17
ATOM     17  C   UNL     1       9.523  -0.156  21.917  0.00  0.00    +0.093 C 
BRANCH  17  23
ATOM     18  C   UNL     1       5.753   3.259  22.342  0.00  0.00    +0.044 C 
ATOM     19  C   UNL     1       7.213   2.916  22.383  0.00  0.00    -0.050 A 
ATOM     20  C   UNL     1       8.134   3.843  22.879  0.00  0.00    +0.003 A 
ATOM     21  C   UNL     1       9.477   3.498  23.002  0.00  0.00    +0.001 A 
ATOM     22  C   UNL     1       9.902   2.208  22.674  0.00  0.00    +0.004 A 
ATOM     23  C   UNL     1       8.995   1.244  22.201  0.00  0.00    -0.041 A 
ATOM     24  C   UNL     1       7.662   1.643  21.996  0.00  0.00    +0.007 A 
ENDBRANCH  17  23
ENDBRANCH   1  17
TORSDOF 3
ENDMDL
MODEL 5
REMARK VINA RESULT:      -6.6      4.361      6.937
REMARK  Name = 
REMARK  7 active torsions:
REMARK  status: ('A' for Active; 'I' for Inactive)
REMARK    1  A    between atoms: C_1  and  C_2
REMARK    2  A    between atoms: C_4  and  C_5
REMARK    3  A    between atoms: C_5  and  C_6
REMARK    4  A    between atoms: N_8  and  C_16
REMARK    5  A    between atoms: C_16  and  C_17
REMARK    6  A    between atoms: C_16  and  C_18
REMARK    7  A    between atoms: C_16  and  C_19
REMARK                            x       y       z     vdW  Elec       q    Type
REMARK                         _______ _______ _______ _____ _____    ______ ____
ROOT
ATOM      1  C   UNL     1       8.415   3.148  24.271  0.00  0.00    +0.080 A 
ATOM      2  C   UNL     1       9.004   1.935  23.818  0.00  0.00    +0.082 A 
ATOM      3  C   UNL     1       9.706   1.447  22.709  0.00  0.00    +0.130 A 
ATOM      4  N   UNL     1      10.301   0.240  22.804  0.00  0.00    -0.220 NA
ATOM      5  C   UNL     1      10.129  -0.475  23.931  0.00  0.00    +0.225 A 
ATOM      6  N   UNL     1       9.351  -0.183  24.981  0.00  0.00    -0.216 NA
ATOM      7  N   UNL     1       9.792   2.095  21.495  0.00  0.00    -0.342 N 
ATOM      8  H   UNL     1      10.505   1.702  20.891  0.00  0.00    +0.144 HD
ATOM      9  H   UNL     1       9.660   3.094  21.472  0.00  0.00    +0.144 HD
ATOM     10  C   UNL     1       8.811   1.048  24.862  0.00  0.00    +0.164 A 
ATOM     11  N   UNL     1       7.886   1.644  25.691  0.00  0.00    -0.241 N 
ATOM     12  N   UNL     1       7.715   2.963  25.409  0.00  0.00    -0.173 NA
ENDROOT
BRANCH  11  13
ATOM     13  C   UNL     1       7.029   0.968  26.681  0.00  0.00    +0.058 C 
ATOM     14  C   UNL     1       6.343   1.997  27.593  0.00  0.00    +0.036 C 
ATOM     15  C   UNL     1       7.878  -0.001  27.533  0.00  0.00    +0.036 C 
ATOM     16  C   UNL     1       5.927   0.122  25.998  0.00  0.00    +0.036 C 
ENDBRANCH  11  13
BRANCH   1  17
ATOM     17  C   UNL     1       8.486   4.523  23.681  0.00  0.00    +0.093 C 
BRANCH  17  23
ATOM     18  C   UNL     1      13.481   5.318  22.984  0.00  0.00    +0.044 C 
ATOM     19  C   UNL     1      12.215   5.563  23.752  0.00  0.00    -0.050 A 
ATOM     20  C   UNL     1      12.171   6.570  24.720  0.00  0.00    +0.003 A 
ATOM     21  C   UNL     1      10.976   6.861  25.373  0.00  0.00    +0.001 A 
ATOM     22  C   UNL     1       9.806   6.180  25.029  0.00  0.00    +0.004 A 
ATOM     23  C   UNL     1       9.811   5.183  24.039  0.00  0.00    -0.041 A 
ATOM     24  C   UNL     1      11.047   4.841  23.460  0.00  0.00    +0.007 A 
ENDBRANCH  17  23
ENDBRANCH   1  17
TORSDOF 3
ENDMDL
MODEL 6
REMARK VINA RESULT:      -6.6      1.712      2.123
REMARK  Name = 
REMARK  7 active torsions:
REMARK  status: ('A' for Active; 'I' for Inactive)
REMARK    1  A    between atoms: C_1  and  C_2
REMARK    2  A    between atoms: C_4  and  C_5
REMARK    3  A    between atoms: C_5  and  C_6
REMARK    4  A    between atoms: N_8  and  C_16
REMARK    5  A    between atoms: C_16  and  C_17
REMARK    6  A    between atoms: C_16  and  C_18
REMARK    7  A    between atoms: C_16  and  C_19
REMARK                            x       y       z     vdW  Elec       q    Type
REMARK                         _______ _______ _______ _____ _____    ______ ____
ROOT
ATOM      1  C   UNL     1       6.689  -1.919  24.051  0.00  0.00    +0.080 A 
ATOM      2  C   UNL     1       7.404  -2.685  25.012  0.00  0.00    +0.082 A 
ATOM      3  C   UNL     1       8.265  -2.487  26.098  0.00  0.00    +0.130 A 
ATOM      4  N   UNL     1       8.536  -3.534  26.905  0.00  0.00    -0.220 NA
ATOM      5  C   UNL     1       8.031  -4.740  26.584  0.00  0.00    +0.225 A 
ATOM      6  N   UNL     1       7.338  -5.078  25.489  0.00  0.00    -0.216 NA
ATOM      7  N   UNL     1       8.903  -1.297  26.380  0.00  0.00    -0.342 N 
ATOM      8  H   UNL     1       9.309  -1.281  27.308  0.00  0.00    +0.144 HD
ATOM      9  H   UNL     1       8.502  -0.441  26.031  0.00  0.00    +0.144 HD
ATOM     10  C   UNL     1       7.055  -3.995  24.736  0.00  0.00    +0.164 A 
ATOM     11  N   UNL     1       6.450  -3.967  23.498  0.00  0.00    -0.241 N 
ATOM     12  N   UNL     1       6.121  -2.705  23.114  0.00  0.00    -0.173 NA
ENDROOT
BRANCH  11  13
ATOM     13  C   UNL     1       6.290  -5.102  22.573  0.00  0.00    +0.058 C 
ATOM     14  C   UNL     1       5.158  -6.028  23.047  0.00  0.00    +0.036 C 
ATOM     15  C   UNL     1       7.611  -5.896  22.486  0.00  0.00    +0.036 C 
ATOM     16  C   UNL     1       5.952  -4.627  21.140  0.00  0.00    +0.036 C 
ENDBRANCH  11  13
BRANCH   1  17
ATOM     17  C   UNL     1       6.491  -0.435  23.968  0.00  0.00    +0.093 C 
BRANCH  17  23
ATOM     18  C   UNL     1      10.005   3.252  23.633  0.00  0.00    +0.044 C 
ATOM     19  C   UNL     1       9.379   1.994  23.106  0.00  0.00    -0.050 A 
ATOM     20  C   UNL     1      10.016   1.270  22.093  0.00  0.00    +0.003 A 
ATOM     21  C   UNL     1       9.486   0.056  21.663  0.00  0.00    +0.001 A 
ATOM     22  C   UNL     1       8.344  -0.466  22.273  0.00  0.00    +0.004 A 
ATOM     23  C   UNL     1       7.699   0.223  23.315  0.00  0.00    -0.041 A 
ATOM     24  C   UNL     1       8.196   1.490  23.668  0.00  0.00    +0.007 A 
ENDBRANCH  17  23
ENDBRANCH   1  17
TORSDOF 3
ENDMDL
MODEL 7
REMARK VINA RESULT:      -6.5      2.643      3.481
REMARK  Name = 
REMARK  7 active torsions:
REMARK  status: ('A' for Active; 'I' for Inactive)
REMARK    1  A    between atoms: C_1  and  C_2
REMARK    2  A    between atoms: C_4  and  C_5
REMARK    3  A    between atoms: C_5  and  C_6
REMARK    4  A    between atoms: N_8  and  C_16
REMARK    5  A    between atoms: C_16  and  C_17
REMARK    6  A    between atoms: C_16  and  C_18
REMARK    7  A    between atoms: C_16  and  C_19
REMARK                            x       y       z     vdW  Elec       q    Type
REMARK                         _______ _______ _______ _____ _____    ______ ____
ROOT
ATOM      1  C   UNL     1       8.816  -1.286  25.611  0.00  0.00    +0.080 A 
ATOM      2  C   UNL     1       7.651  -1.147  26.416  0.00  0.00    +0.082 A 
ATOM      3  C   UNL     1       7.038  -0.194  27.237  0.00  0.00    +0.130 A 
ATOM      4  N   UNL     1       5.769  -0.411  27.640  0.00  0.00    -0.220 NA
ATOM      5  C   UNL     1       5.176  -1.571  27.300  0.00  0.00    +0.225 A 
ATOM      6  N   UNL     1       5.719  -2.617  26.663  0.00  0.00    -0.216 NA
ATOM      7  N   UNL     1       7.661   0.942  27.712  0.00  0.00    -0.342 N 
ATOM      8  H   UNL     1       7.008   1.609  28.108  0.00  0.00    +0.144 HD
ATOM      9  H   UNL     1       8.450   1.307  27.204  0.00  0.00    +0.144 HD
ATOM     10  C   UNL     1       6.971  -2.339  26.243  0.00  0.00    +0.164 A 
ATOM     11  N   UNL     1       7.867  -3.198  25.647  0.00  0.00    -0.241 N 
ATOM     12  N   UNL     1       8.956  -2.548  25.157  0.00  0.00    -0.173 NA
ENDROOT
BRANCH  11  13
ATOM     13  C   UNL     1       7.803  -4.670  25.642  0.00  0.00    +0.058 C 
ATOM     14  C   UNL     1       7.545  -5.203  27.060  0.00  0.00    +0.036 C 
ATOM     15  C   UNL     1       9.128  -5.249  25.100  0.00  0.00    +0.036 C 
ATOM     16  C   UNL     1       6.673  -5.189  24.721  0.00  0.00    +0.036 C 
ENDBRANCH  11  13
BRANCH   1  17
ATOM     17  C   UNL     1       9.835  -0.258  25.220  0.00  0.00    +0.093 C 
BRANCH  17  23
ATOM     18  C   UNL     1       7.650   3.683  22.821  0.00  0.00    +0.044 C 
ATOM     19  C   UNL     1       8.316   2.338  22.783  0.00  0.00    -0.050 A 
ATOM     20  C   UNL     1       8.726   1.797  21.561  0.00  0.00    +0.003 A 
ATOM     21  C   UNL     1       9.423   0.593  21.528  0.00  0.00    +0.001 A 
ATOM     22  C   UNL     1       9.758  -0.056  22.718  0.00  0.00    +0.004 A 
ATOM     23  C   UNL     1       9.387   0.478  23.964  0.00  0.00    -0.041 A 
ATOM     24  C   UNL     1       8.602   1.645  23.970  0.00  0.00    +0.007 A 
ENDBRANCH  17  23
ENDBRANCH   1  17
TORSDOF 3
ENDMDL
MODEL 8
REMARK VINA RESULT:      -6.4      2.113      5.999
REMARK  Name = 
REMARK  7 active torsions:
REMARK  status: ('A' for Active; 'I' for Inactive)
REMARK    1  A    between atoms: C_1  and  C_2
REMARK    2  A    between atoms: C_4  and  C_5
REMARK    3  A    between atoms: C_5  and  C_6
REMARK    4  A    between atoms: N_8  and  C_16
REMARK    5  A    between atoms: C_16  and  C_17
REMARK    6  A    between atoms: C_16  and  C_18
REMARK    7  A    between atoms: C_16  and  C_19
REMARK                            x       y       z     vdW  Elec       q    Type
REMARK                         _______ _______ _______ _____ _____    ______ ____
ROOT
ATOM      1  C   UNL     1       6.651  -1.439  24.240  0.00  0.00    +0.080 A 
ATOM      2  C   UNL     1       8.017  -1.811  24.099  0.00  0.00    +0.082 A 
ATOM      3  C   UNL     1       8.883  -2.834  24.502  0.00  0.00    +0.130 A 
ATOM      4  N   UNL     1      10.099  -2.914  23.923  0.00  0.00    -0.220 NA
ATOM      5  C   UNL     1      10.455  -1.960  23.042  0.00  0.00    +0.225 A 
ATOM      6  N   UNL     1       9.778  -0.854  22.707  0.00  0.00    -0.216 NA
ATOM      7  N   UNL     1       8.601  -3.749  25.495  0.00  0.00    -0.342 N 
ATOM      8  H   UNL     1       9.246  -4.531  25.502  0.00  0.00    +0.144 HD
ATOM      9  H   UNL     1       7.636  -3.937  25.716  0.00  0.00    +0.144 HD
ATOM     10  C   UNL     1       8.554  -0.839  23.275  0.00  0.00    +0.164 A 
ATOM     11  N   UNL     1       7.624   0.177  23.240  0.00  0.00    -0.241 N 
ATOM     12  N   UNL     1       6.417  -0.212  23.730  0.00  0.00    -0.173 NA
ENDROOT
BRANCH  11  13
ATOM     13  C   UNL     1       7.873   1.584  22.881  0.00  0.00    +0.058 C 
ATOM     14  C   UNL     1       8.423   1.685  21.449  0.00  0.00    +0.036 C 
ATOM     15  C   UNL     1       8.880   2.207  23.872  0.00  0.00    +0.036 C 
ATOM     16  C   UNL     1       6.580   2.430  22.959  0.00  0.00    +0.036 C 
ENDBRANCH  11  13
BRANCH   1  17
ATOM     17  C   UNL     1       5.509  -2.204  24.837  0.00  0.00    +0.093 C 
BRANCH  17  23
ATOM     18  C   UNL     1       6.158  -5.511  21.003  0.00  0.00    +0.044 C 
ATOM     19  C   UNL     1       5.702  -5.205  22.400  0.00  0.00    -0.050 A 
ATOM     20  C   UNL     1       5.365  -6.249  23.267  0.00  0.00    +0.003 A 
ATOM     21  C   UNL     1       5.028  -5.977  24.591  0.00  0.00    +0.001 A 
ATOM     22  C   UNL     1       5.070  -4.666  25.069  0.00  0.00    +0.004 A 
ATOM     23  C   UNL     1       5.433  -3.599  24.230  0.00  0.00    -0.041 A 
ATOM     24  C   UNL     1       5.679  -3.885  22.875  0.00  0.00    +0.007 A 
ENDBRANCH  17  23
ENDBRANCH   1  17
TORSDOF 3
ENDMDL
MODEL 9
REMARK VINA RESULT:      -6.4      2.396      5.842
REMARK  Name = 
REMARK  7 active torsions:
REMARK  status: ('A' for Active; 'I' for Inactive)
REMARK    1  A    between atoms: C_1  and  C_2
REMARK    2  A    between atoms: C_4  and  C_5
REMARK    3  A    between atoms: C_5  and  C_6
REMARK    4  A    between atoms: N_8  and  C_16
REMARK    5  A    between atoms: C_16  and  C_17
REMARK    6  A    between atoms: C_16  and  C_18
REMARK    7  A    between atoms: C_16  and  C_19
REMARK                            x       y       z     vdW  Elec       q    Type
REMARK                         _______ _______ _______ _____ _____    ______ ____
ROOT
ATOM      1  C   UNL     1       8.545  -2.276  24.780  0.00  0.00    +0.080 A 
ATOM      2  C   UNL     1       7.813  -1.330  25.552  0.00  0.00    +0.082 A 
ATOM      3  C   UNL     1       6.906  -1.308  26.618  0.00  0.00    +0.130 A 
ATOM      4  N   UNL     1       6.632  -0.124  27.205  0.00  0.00    -0.220 NA
ATOM      5  C   UNL     1       7.181   0.991  26.690  0.00  0.00    +0.225 A 
ATOM      6  N   UNL     1       7.925   1.107  25.582  0.00  0.00    -0.216 NA
ATOM      7  N   UNL     1       6.225  -2.412  27.086  0.00  0.00    -0.342 N 
ATOM      8  H   UNL     1       5.783  -2.248  27.983  0.00  0.00    +0.144 HD
ATOM      9  H   UNL     1       6.617  -3.325  26.919  0.00  0.00    +0.144 HD
ATOM     10  C   UNL     1       8.209  -0.102  25.055  0.00  0.00    +0.164 A 
ATOM     11  N   UNL     1       8.860  -0.370  23.871  0.00  0.00    -0.241 N 
ATOM     12  N   UNL     1       9.170  -1.688  23.740  0.00  0.00    -0.173 NA
ENDROOT
BRANCH  11  13
ATOM     13  C   UNL     1       9.087   0.571  22.760  0.00  0.00    +0.058 C 
ATOM     14  C   UNL     1       7.782   1.295  22.393  0.00  0.00    +0.036 C 
ATOM     15  C   UNL     1       9.624  -0.193  21.530  0.00  0.00    +0.036 C 
ATOM     16  C   UNL     1      10.144   1.640  23.126  0.00  0.00    +0.036 C 
ENDBRANCH  11  13
BRANCH   1  17
ATOM     17  C   UNL     1       8.706  -3.752  24.981  0.00  0.00    +0.093 C 
BRANCH  17  23
ATOM     18  C   UNL     1       6.262  -5.698  20.944  0.00  0.00    +0.044 C 
ATOM     19  C   UNL     1       6.333  -5.419  22.417  0.00  0.00    -0.050 A 
ATOM     20  C   UNL     1       5.414  -6.018  23.284  0.00  0.00    +0.003 A 
ATOM     21  C   UNL     1       5.529  -5.834  24.660  0.00  0.00    +0.001 A 
ATOM     22  C   UNL     1       6.590  -5.091  25.181  0.00  0.00    +0.004 A 
ATOM     23  C   UNL     1       7.547  -4.502  24.337  0.00  0.00    -0.041 A 
ATOM     24  C   UNL     1       7.358  -4.621  22.948  0.00  0.00    +0.007 A 
ENDBRANCH  17  23
ENDBRANCH   1  17
TORSDOF 3
ENDMDL
