MODEL 1
REMARK VINA RESULT:      -6.9      0.000      0.000
REMARK  Name = 
REMARK  10 active torsions:
REMARK  status: ('A' for Active; 'I' for Inactive)
REMARK    1  A    between atoms: O_1  and  C_2
REMARK    2  A    between atoms: C_2  and  C_3
REMARK    3  A    between atoms: C_2  and  P_23
REMARK    4  A    between atoms: C_2  and  P_27
REMARK    5  A    between atoms: C_3  and  C_4
REMARK    6  A    between atoms: C_6  and  C_10
REMARK    7  A    between atoms: P_23  and  O_24
REMARK    8  A    between atoms: P_23  and  O_25
REMARK    9  A    between atoms: P_27  and  O_28
REMARK   10  A    between atoms: P_27  and  O_29
REMARK                            x       y       z     vdW  Elec       q    Type
REMARK                         _______ _______ _______ _____ _____    ______ ____
ROOT
ATOM      1  C   UNL     1       9.861  -1.332  23.346  0.00  0.00    -0.043 A 
ATOM      2  C   UNL     1       9.527  -1.485  21.992  0.00  0.00    +0.004 A 
ATOM      3  C   UNL     1       9.391  -0.367  21.175  0.00  0.00    +0.001 A 
ATOM      4  C   UNL     1       9.524   0.908  21.715  0.00  0.00    +0.008 A 
ATOM      5  C   UNL     1       9.885   1.095  23.066  0.00  0.00    -0.014 A 
ATOM      6  C   UNL     1      10.151  -0.050  23.818  0.00  0.00    +0.012 A 
ENDROOT
BRANCH   5   7
ATOM      7  C   UNL     1       9.865   2.432  23.685  0.00  0.00    +0.025 A 
ATOM      8  C   UNL     1       8.882   2.823  24.626  0.00  0.00    +0.144 A 
ATOM      9  O   UNL     1       7.924   2.016  25.203  0.00  0.00    -0.454 OA
ATOM     10  C   UNL     1       7.146   2.808  25.995  0.00  0.00    +0.136 A 
ATOM     11  C   UNL     1       6.053   2.389  26.751  0.00  0.00    +0.047 A 
ATOM     12  C   UNL     1       5.346   3.385  27.439  0.00  0.00    +0.004 A 
ATOM     13  C   UNL     1       5.735   4.725  27.378  0.00  0.00    +0.001 A 
ATOM     14  C   UNL     1       6.857   5.111  26.637  0.00  0.00    +0.012 A 
ATOM     15  C   UNL     1       7.576   4.127  25.934  0.00  0.00    +0.028 A 
ATOM     16  C   UNL     1       8.722   4.130  25.084  0.00  0.00    +0.029 A 
ATOM     17  C   UNL     1       9.611   5.119  24.644  0.00  0.00    +0.012 A 
ATOM     18  C   UNL     1      10.630   4.767  23.756  0.00  0.00    +0.001 A 
ATOM     19  C   UNL     1      10.749   3.457  23.289  0.00  0.00    +0.012 A 
ENDBRANCH   5   7
BRANCH   1  20
ATOM     20  C   UNL     1       9.794  -2.554  24.232  0.00  0.00    +0.095 C 
BRANCH  20  21
ATOM     21  C   UNL     1       8.446  -3.028  24.848  0.00  0.00    +0.271 C 
BRANCH  21  22
ATOM     22  O   UNL     1       7.409  -3.176  23.813  0.00  0.00    -0.367 OA
ATOM     23  H   UNL     1       7.750  -3.768  23.113  0.00  0.00    +0.212 HD
ENDBRANCH  21  22
BRANCH  21  24
ATOM     24  P   UNL     1       8.725  -4.763  25.455  0.00  0.00    +0.371 P 
ATOM     25  O   UNL     1       9.649  -5.688  24.733  0.00  0.00    -0.255 OA
BRANCH  24  26
ATOM     26  O   UNL     1       7.269  -5.384  25.710  0.00  0.00    -0.322 OA
ATOM     27  H   UNL     1       6.782  -5.499  24.872  0.00  0.00    +0.220 HD
ENDBRANCH  24  26
BRANCH  24  28
ATOM     28  O   UNL     1       9.235  -4.519  26.969  0.00  0.00    -0.322 OA
ATOM     29  H   UNL     1       9.160  -5.346  27.493  0.00  0.00    +0.220 HD
ENDBRANCH  24  28
ENDBRANCH  21  24
BRANCH  21  30
ATOM     30  P   UNL     1       7.847  -1.888  26.136  0.00  0.00    +0.371 P 
ATOM     31  O   UNL     1       8.886  -1.287  27.023  0.00  0.00    -0.255 OA
BRANCH  30  32
ATOM     32  O   UNL     1       6.720  -2.663  26.955  0.00  0.00    -0.322 OA
ATOM     33  H   UNL     1       6.330  -2.122  27.667  0.00  0.00    +0.220 HD
ENDBRANCH  30  32
BRANCH  30  34
ATOM     34  O   UNL     1       6.954  -0.784  25.378  0.00  0.00    -0.322 OA
ATOM     35  H   UNL     1       6.091  -1.106  25.039  0.00  0.00    +0.220 HD
ENDBRANCH  30  34
ENDBRANCH  21  30
ENDBRANCH  20  21
ENDBRANCH   1  20
TORSDOF 10
ENDMDL
MODEL 2
REMARK VINA RESULT:      -6.9      4.267      7.857
REMARK  Name = 
REMARK  10 active torsions:
REMARK  status: ('A' for Active; 'I' for Inactive)
REMARK    1  A    between atoms: O_1  and  C_2
REMARK    2  A    between atoms: C_2  and  C_3
REMARK    3  A    between atoms: C_2  and  P_23
REMARK    4  A    between atoms: C_2  and  P_27
REMARK    5  A    between atoms: C_3  and  C_4
REMARK    6  A    between atoms: C_6  and  C_10
REMARK    7  A    between atoms: P_23  and  O_24
REMARK    8  A    between atoms: P_23  and  O_25
REMARK    9  A    between atoms: P_27  and  O_28
REMARK   10  A    between atoms: P_27  and  O_29
REMARK                            x       y       z     vdW  Elec       q    Type
REMARK                         _______ _______ _______ _____ _____    ______ ____
ROOT
ATOM      1  C   UNL     1       8.079  -0.542  24.697  0.00  0.00    -0.043 A 
ATOM      2  C   UNL     1       8.435  -0.898  26.006  0.00  0.00    +0.004 A 
ATOM      3  C   UNL     1       8.355  -2.225  26.416  0.00  0.00    +0.001 A 
ATOM      4  C   UNL     1       7.863  -3.193  25.547  0.00  0.00    +0.008 A 
ATOM      5  C   UNL     1       7.521  -2.872  24.216  0.00  0.00    -0.014 A 
ATOM      6  C   UNL     1       7.748  -1.559  23.799  0.00  0.00    +0.012 A 
ENDROOT
BRANCH   5   7
ATOM      7  C   UNL     1       6.845  -3.848  23.343  0.00  0.00    +0.025 A 
ATOM      8  C   UNL     1       5.483  -4.199  23.502  0.00  0.00    +0.144 A 
ATOM      9  O   UNL     1       4.572  -3.609  24.352  0.00  0.00    -0.454 OA
ATOM     10  C   UNL     1       3.399  -4.296  24.235  0.00  0.00    +0.136 A 
ATOM     11  C   UNL     1       2.222  -4.032  24.931  0.00  0.00    +0.047 A 
ATOM     12  C   UNL     1       1.152  -4.911  24.713  0.00  0.00    +0.004 A 
ATOM     13  C   UNL     1       1.264  -5.984  23.827  0.00  0.00    +0.001 A 
ATOM     14  C   UNL     1       2.448  -6.204  23.117  0.00  0.00    +0.012 A 
ATOM     15  C   UNL     1       3.536  -5.338  23.327  0.00  0.00    +0.028 A 
ATOM     16  C   UNL     1       4.867  -5.249  22.822  0.00  0.00    +0.029 A 
ATOM     17  C   UNL     1       5.607  -5.976  21.880  0.00  0.00    +0.012 A 
ATOM     18  C   UNL     1       6.940  -5.631  21.653  0.00  0.00    +0.001 A 
ATOM     19  C   UNL     1       7.542  -4.594  22.369  0.00  0.00    +0.012 A 
ENDBRANCH   5   7
BRANCH   1  20
ATOM     20  C   UNL     1       7.986   0.928  24.366  0.00  0.00    +0.095 C 
BRANCH  20  21
ATOM     21  C   UNL     1       9.238   1.730  23.906  0.00  0.00    +0.271 C 
BRANCH  21  22
ATOM     22  O   UNL     1      10.438   1.322  24.654  0.00  0.00    -0.367 OA
ATOM     23  H   UNL     1      11.216   1.770  24.265  0.00  0.00    +0.212 HD
ENDBRANCH  21  22
BRANCH  21  24
ATOM     24  P   UNL     1       9.594   1.197  22.161  0.00  0.00    +0.371 P 
ATOM     25  O   UNL     1      10.145  -0.161  21.873  0.00  0.00    -0.255 OA
BRANCH  24  26
ATOM     26  O   UNL     1      10.442   2.385  21.498  0.00  0.00    -0.322 OA
ATOM     27  H   UNL     1      10.110   2.601  20.605  0.00  0.00    +0.220 HD
ENDBRANCH  24  26
BRANCH  24  28
ATOM     28  O   UNL     1       8.160   1.392  21.443  0.00  0.00    -0.322 OA
ATOM     29  H   UNL     1       7.608   0.587  21.557  0.00  0.00    +0.220 HD
ENDBRANCH  24  28
ENDBRANCH  21  24
BRANCH  21  30
ATOM     30  P   UNL     1       9.001   3.527  24.089  0.00  0.00    +0.371 P 
ATOM     31  O   UNL     1       8.347   3.984  25.350  0.00  0.00    -0.255 OA
BRANCH  30  32
ATOM     32  O   UNL     1       8.234   4.030  22.786  0.00  0.00    -0.322 OA
ATOM     33  H   UNL     1       7.966   4.966  22.842  0.00  0.00    +0.220 HD
ENDBRANCH  30  32
BRANCH  30  34
ATOM     34  O   UNL     1      10.448   4.196  23.855  0.00  0.00    -0.322 OA
ATOM     35  H   UNL     1      11.178   3.804  24.380  0.00  0.00    +0.220 HD
ENDBRANCH  30  34
ENDBRANCH  21  30
ENDBRANCH  20  21
ENDBRANCH   1  20
TORSDOF 10
ENDMDL
MODEL 3
REMARK VINA RESULT:      -6.9      3.343      7.920
REMARK  Name = 
REMARK  10 active torsions:
REMARK  status: ('A' for Active; 'I' for Inactive)
REMARK    1  A    between atoms: O_1  and  C_2
REMARK    2  A    between atoms: C_2  and  C_3
REMARK    3  A    between atoms: C_2  and  P_23
REMARK    4  A    between atoms: C_2  and  P_27
REMARK    5  A    between atoms: C_3  and  C_4
REMARK    6  A    between atoms: C_6  and  C_10
REMARK    7  A    between atoms: P_23  and  O_24
REMARK    8  A    between atoms: P_23  and  O_25
REMARK    9  A    between atoms: P_27  and  O_28
REMARK   10  A    between atoms: P_27  and  O_29
REMARK                            x       y       z     vdW  Elec       q    Type
REMARK                         _______ _______ _______ _____ _____    ______ ____
ROOT
ATOM      1  C   UNL     1       8.216   0.923  25.690  0.00  0.00    -0.043 A 
ATOM      2  C   UNL     1       7.163   1.149  26.589  0.00  0.00    +0.004 A 
ATOM      3  C   UNL     1       6.597   0.086  27.285  0.00  0.00    +0.001 A 
ATOM      4  C   UNL     1       7.032  -1.213  27.044  0.00  0.00    +0.008 A 
ATOM      5  C   UNL     1       8.106  -1.471  26.166  0.00  0.00    -0.014 A 
ATOM      6  C   UNL     1       8.741  -0.367  25.594  0.00  0.00    +0.012 A 
ENDROOT
BRANCH   5   7
ATOM      7  C   UNL     1       8.463  -2.847  25.778  0.00  0.00    +0.025 A 
ATOM      8  C   UNL     1       7.980  -3.456  24.594  0.00  0.00    +0.144 A 
ATOM      9  O   UNL     1       7.260  -2.848  23.587  0.00  0.00    -0.454 OA
ATOM     10  C   UNL     1       6.944  -3.810  22.673  0.00  0.00    +0.136 A 
ATOM     11  C   UNL     1       6.211  -3.619  21.504  0.00  0.00    +0.047 A 
ATOM     12  C   UNL     1       5.936  -4.763  20.741  0.00  0.00    +0.004 A 
ATOM     13  C   UNL     1       6.393  -6.023  21.132  0.00  0.00    +0.001 A 
ATOM     14  C   UNL     1       7.156  -6.178  22.293  0.00  0.00    +0.012 A 
ATOM     15  C   UNL     1       7.437  -5.044  23.077  0.00  0.00    +0.028 A 
ATOM     16  C   UNL     1       8.142  -4.808  24.294  0.00  0.00    +0.029 A 
ATOM     17  C   UNL     1       8.871  -5.617  25.176  0.00  0.00    +0.012 A 
ATOM     18  C   UNL     1       9.410  -5.047  26.330  0.00  0.00    +0.001 A 
ATOM     19  C   UNL     1       9.208  -3.697  26.621  0.00  0.00    +0.012 A 
ENDBRANCH   5   7
BRANCH   1  20
ATOM     20  C   UNL     1       8.654   2.072  24.813  0.00  0.00    +0.095 C 
BRANCH  20  21
ATOM     21  C   UNL     1       8.129   2.216  23.355  0.00  0.00    +0.271 C 
BRANCH  21  22
ATOM     22  O   UNL     1       6.805   1.591  23.200  0.00  0.00    -0.367 OA
ATOM     23  H   UNL     1       6.460   1.809  22.311  0.00  0.00    +0.212 HD
ENDBRANCH  21  22
BRANCH  21  24
ATOM     24  P   UNL     1       7.804   4.027  23.088  0.00  0.00    +0.371 P 
ATOM     25  O   UNL     1       6.824   4.763  23.941  0.00  0.00    -0.255 OA
BRANCH  24  26
ATOM     26  O   UNL     1       7.545   4.204  21.515  0.00  0.00    -0.322 OA
ATOM     27  H   UNL     1       7.928   3.463  21.008  0.00  0.00    +0.220 HD
ENDBRANCH  24  26
BRANCH  24  28
ATOM     28  O   UNL     1       9.281   4.666  23.239  0.00  0.00    -0.322 OA
ATOM     29  H   UNL     1       9.572   4.637  24.178  0.00  0.00    +0.220 HD
ENDBRANCH  24  28
ENDBRANCH  21  24
BRANCH  21  30
ATOM     30  P   UNL     1       9.279   1.491  22.142  0.00  0.00    +0.371 P 
ATOM     31  O   UNL     1       9.866   0.166  22.496  0.00  0.00    -0.255 OA
BRANCH  30  32
ATOM     32  O   UNL     1      10.392   2.591  21.841  0.00  0.00    -0.322 OA
ATOM     33  H   UNL     1      11.280   2.322  22.140  0.00  0.00    +0.220 HD
ENDBRANCH  30  32
BRANCH  30  34
ATOM     34  O   UNL     1       8.494   1.473  20.735  0.00  0.00    -0.322 OA
ATOM     35  H   UNL     1       9.034   1.718  19.953  0.00  0.00    +0.220 HD
ENDBRANCH  30  34
ENDBRANCH  21  30
ENDBRANCH  20  21
ENDBRANCH   1  20
TORSDOF 10
ENDMDL
MODEL 4
REMARK VINA RESULT:      -6.8      2.741      4.232
REMARK  Name = 
REMARK  10 active torsions:
REMARK  status: ('A' for Active; 'I' for Inactive)
REMARK    1  A    between atoms: O_1  and  C_2
REMARK    2  A    between atoms: C_2  and  C_3
REMARK    3  A    between atoms: C_2  and  P_23
REMARK    4  A    between atoms: C_2  and  P_27
REMARK    5  A    between atoms: C_3  and  C_4
REMARK    6  A    between atoms: C_6  and  C_10
REMARK    7  A    between atoms: P_23  and  O_24
REMARK    8  A    between atoms: P_23  and  O_25
REMARK    9  A    between atoms: P_27  and  O_28
REMARK   10  A    between atoms: P_27  and  O_29
REMARK                            x       y       z     vdW  Elec       q    Type
REMARK                         _______ _______ _______ _____ _____    ______ ____
ROOT
ATOM      1  C   UNL     1       7.701  -2.326  23.376  0.00  0.00    -0.043 A 
ATOM      2  C   UNL     1       8.624  -2.555  22.346  0.00  0.00    +0.004 A 
ATOM      3  C   UNL     1       9.301  -1.488  21.763  0.00  0.00    +0.001 A 
ATOM      4  C   UNL     1       9.018  -0.186  22.159  0.00  0.00    +0.008 A 
ATOM      5  C   UNL     1       8.114   0.076  23.210  0.00  0.00    -0.014 A 
ATOM      6  C   UNL     1       7.561  -1.025  23.865  0.00  0.00    +0.012 A 
ENDROOT
BRANCH   5   7
ATOM      7  C   UNL     1       7.683   1.451  23.523  0.00  0.00    +0.025 A 
ATOM      8  C   UNL     1       8.588   2.538  23.588  0.00  0.00    +0.144 A 
ATOM      9  O   UNL     1       9.922   2.524  23.239  0.00  0.00    -0.454 OA
ATOM     10  C   UNL     1      10.430   3.759  23.519  0.00  0.00    +0.136 A 
ATOM     11  C   UNL     1      11.748   4.165  23.326  0.00  0.00    +0.047 A 
ATOM     12  C   UNL     1      12.075   5.460  23.751  0.00  0.00    +0.004 A 
ATOM     13  C   UNL     1      11.117   6.301  24.321  0.00  0.00    +0.001 A 
ATOM     14  C   UNL     1       9.793   5.877  24.471  0.00  0.00    +0.012 A 
ATOM     15  C   UNL     1       9.446   4.578  24.058  0.00  0.00    +0.028 A 
ATOM     16  C   UNL     1       8.247   3.804  24.063  0.00  0.00    +0.029 A 
ATOM     17  C   UNL     1       6.924   4.052  24.450  0.00  0.00    +0.012 A 
ATOM     18  C   UNL     1       5.986   3.023  24.354  0.00  0.00    +0.001 A 
ATOM     19  C   UNL     1       6.359   1.756  23.903  0.00  0.00    +0.012 A 
ENDBRANCH   5   7
BRANCH   1  20
ATOM     20  C   UNL     1       6.847  -3.486  23.830  0.00  0.00    +0.095 C 
BRANCH  20  21
ATOM     21  C   UNL     1       5.686  -4.025  22.945  0.00  0.00    +0.271 C 
BRANCH  21  22
ATOM     22  O   UNL     1       5.378  -3.096  21.844  0.00  0.00    -0.367 OA
ATOM     23  H   UNL     1       5.732  -3.471  21.013  0.00  0.00    +0.212 HD
ENDBRANCH  21  22
BRANCH  21  24
ATOM     24  P   UNL     1       6.338  -5.539  22.085  0.00  0.00    +0.371 P 
ATOM     25  O   UNL     1       7.733  -6.015  22.325  0.00  0.00    -0.255 OA
BRANCH  24  26
ATOM     26  O   UNL     1       5.982  -5.356  20.532  0.00  0.00    -0.322 OA
ATOM     27  H   UNL     1       5.030  -5.496  20.369  0.00  0.00    +0.220 HD
ENDBRANCH  24  26
BRANCH  24  28
ATOM     28  O   UNL     1       5.269  -6.669  22.524  0.00  0.00    -0.322 OA
ATOM     29  H   UNL     1       4.630  -6.302  23.174  0.00  0.00    +0.220 HD
ENDBRANCH  24  28
ENDBRANCH  21  24
BRANCH  21  30
ATOM     30  P   UNL     1       4.173  -4.327  23.914  0.00  0.00    +0.371 P 
ATOM     31  O   UNL     1       2.992  -4.834  23.156  0.00  0.00    -0.255 OA
BRANCH  30  32
ATOM     32  O   UNL     1       3.856  -2.983  24.711  0.00  0.00    -0.322 OA
ATOM     33  H   UNL     1       4.660  -2.482  24.943  0.00  0.00    +0.220 HD
ENDBRANCH  30  32
BRANCH  30  34
ATOM     34  O   UNL     1       4.603  -5.295  25.127  0.00  0.00    -0.322 OA
ATOM     35  H   UNL     1       3.862  -5.747  25.583  0.00  0.00    +0.220 HD
ENDBRANCH  30  34
ENDBRANCH  21  30
ENDBRANCH  20  21
ENDBRANCH   1  20
TORSDOF 10
ENDMDL
MODEL 5
REMARK VINA RESULT:      -6.7      3.061      5.225
REMARK  Name = 
REMARK  10 active torsions:
REMARK  status: ('A' for Active; 'I' for Inactive)
REMARK    1  A    between atoms: O_1  and  C_2
REMARK    2  A    between atoms: C_2  and  C_3
REMARK    3  A    between atoms: C_2  and  P_23
REMARK    4  A    between atoms: C_2  and  P_27
REMARK    5  A    between atoms: C_3  and  C_4
REMARK    6  A    between atoms: C_6  and  C_10
REMARK    7  A    between atoms: P_23  and  O_24
REMARK    8  A    between atoms: P_23  and  O_25
REMARK    9  A    between atoms: P_27  and  O_28
REMARK   10  A    between atoms: P_27  and  O_29
REMARK                            x       y       z     vdW  Elec       q    Type
REMARK                         _______ _______ _______ _____ _____    ______ ____
ROOT
ATOM      1  C   UNL     1       4.945  -2.750  25.066  0.00  0.00    -0.043 A 
ATOM      2  C   UNL     1       4.648  -2.518  26.417  0.00  0.00    +0.004 A 
ATOM      3  C   UNL     1       5.460  -1.682  27.178  0.00  0.00    +0.001 A 
ATOM      4  C   UNL     1       6.602  -1.123  26.615  0.00  0.00    +0.008 A 
ATOM      5  C   UNL     1       6.914  -1.316  25.253  0.00  0.00    -0.014 A 
ATOM      6  C   UNL     1       6.002  -2.045  24.488  0.00  0.00    +0.012 A 
ENDROOT
BRANCH   5   7
ATOM      7  C   UNL     1       8.203  -0.870  24.693  0.00  0.00    +0.025 A 
ATOM      8  C   UNL     1       8.582   0.493  24.643  0.00  0.00    +0.144 A 
ATOM      9  O   UNL     1       7.916   1.557  25.215  0.00  0.00    -0.454 OA
ATOM     10  C   UNL     1       8.588   2.693  24.867  0.00  0.00    +0.136 A 
ATOM     11  C   UNL     1       8.240   3.992  25.229  0.00  0.00    +0.047 A 
ATOM     12  C   UNL     1       9.029   5.024  24.701  0.00  0.00    +0.004 A 
ATOM     13  C   UNL     1      10.116   4.752  23.868  0.00  0.00    +0.001 A 
ATOM     14  C   UNL     1      10.461   3.435  23.549  0.00  0.00    +0.012 A 
ATOM     15  C   UNL     1       9.678   2.386  24.064  0.00  0.00    +0.028 A 
ATOM     16  C   UNL     1       9.699   0.963  23.954  0.00  0.00    +0.029 A 
ATOM     17  C   UNL     1      10.541   0.044  23.315  0.00  0.00    +0.012 A 
ATOM     18  C   UNL     1      10.234  -1.317  23.383  0.00  0.00    +0.001 A 
ATOM     19  C   UNL     1       9.092  -1.759  24.054  0.00  0.00    +0.012 A 
ENDBRANCH   5   7
BRANCH   1  20
ATOM     20  C   UNL     1       4.160  -3.820  24.345  0.00  0.00    +0.095 C 
BRANCH  20  21
ATOM     21  C   UNL     1       4.761  -5.236  24.106  0.00  0.00    +0.271 C 
BRANCH  21  22
ATOM     22  O   UNL     1       5.516  -5.701  25.281  0.00  0.00    -0.367 OA
ATOM     23  H   UNL     1       5.962  -6.541  25.052  0.00  0.00    +0.212 HD
ENDBRANCH  21  22
BRANCH  21  24
ATOM     24  P   UNL     1       3.323  -6.409  24.003  0.00  0.00    +0.371 P 
ATOM     25  O   UNL     1       2.067  -6.150  24.768  0.00  0.00    -0.255 OA
BRANCH  24  26
ATOM     26  O   UNL     1       3.927  -7.875  24.242  0.00  0.00    -0.322 OA
ATOM     27  H   UNL     1       3.327  -8.420  24.786  0.00  0.00    +0.220 HD
ENDBRANCH  24  26
BRANCH  24  28
ATOM     28  O   UNL     1       3.023  -6.446  22.415  0.00  0.00    -0.322 OA
ATOM     29  H   UNL     1       3.339  -5.619  21.988  0.00  0.00    +0.220 HD
ENDBRANCH  24  28
ENDBRANCH  21  24
BRANCH  21  30
ATOM     30  P   UNL     1       5.847  -5.277  22.643  0.00  0.00    +0.371 P 
ATOM     31  O   UNL     1       5.458  -4.393  21.505  0.00  0.00    -0.255 OA
BRANCH  30  32
ATOM     32  O   UNL     1       5.985  -6.804  22.210  0.00  0.00    -0.322 OA
ATOM     33  H   UNL     1       5.201  -7.135  21.734  0.00  0.00    +0.220 HD
ENDBRANCH  30  32
BRANCH  30  34
ATOM     34  O   UNL     1       7.336  -4.987  23.182  0.00  0.00    -0.322 OA
ATOM     35  H   UNL     1       7.852  -4.340  22.655  0.00  0.00    +0.220 HD
ENDBRANCH  30  34
ENDBRANCH  21  30
ENDBRANCH  20  21
ENDBRANCH   1  20
TORSDOF 10
ENDMDL
MODEL 6
REMARK VINA RESULT:      -6.7      1.504      3.475
REMARK  Name = 
REMARK  10 active torsions:
REMARK  status: ('A' for Active; 'I' for Inactive)
REMARK    1  A    between atoms: O_1  and  C_2
REMARK    2  A    between atoms: C_2  and  C_3
REMARK    3  A    between atoms: C_2  and  P_23
REMARK    4  A    between atoms: C_2  and  P_27
REMARK    5  A    between atoms: C_3  and  C_4
REMARK    6  A    between atoms: C_6  and  C_10
REMARK    7  A    between atoms: P_23  and  O_24
REMARK    8  A    between atoms: P_23  and  O_25
REMARK    9  A    between atoms: P_27  and  O_28
REMARK   10  A    between atoms: P_27  and  O_29
REMARK                            x       y       z     vdW  Elec       q    Type
REMARK                         _______ _______ _______ _____ _____    ______ ____
ROOT
ATOM      1  C   UNL     1       9.395  -1.909  23.530  0.00  0.00    -0.043 A 
ATOM      2  C   UNL     1       9.614  -1.828  22.147  0.00  0.00    +0.004 A 
ATOM      3  C   UNL     1       9.379  -0.636  21.471  0.00  0.00    +0.001 A 
ATOM      4  C   UNL     1       8.867   0.462  22.154  0.00  0.00    +0.008 A 
ATOM      5  C   UNL     1       8.660   0.420  23.549  0.00  0.00    -0.014 A 
ATOM      6  C   UNL     1       9.040  -0.745  24.215  0.00  0.00    +0.012 A 
ENDROOT
BRANCH   5   7
ATOM      7  C   UNL     1       7.964   1.514  24.251  0.00  0.00    +0.025 A 
ATOM      8  C   UNL     1       8.516   2.812  24.377  0.00  0.00    +0.144 A 
ATOM      9  O   UNL     1       9.659   3.287  23.769  0.00  0.00    -0.454 OA
ATOM     10  C   UNL     1       9.860   4.560  24.215  0.00  0.00    +0.136 A 
ATOM     11  C   UNL     1      10.913   5.397  23.855  0.00  0.00    +0.047 A 
ATOM     12  C   UNL     1      10.970   6.646  24.490  0.00  0.00    +0.004 A 
ATOM     13  C   UNL     1      10.004   7.029  25.423  0.00  0.00    +0.001 A 
ATOM     14  C   UNL     1       8.938   6.181  25.739  0.00  0.00    +0.012 A 
ATOM     15  C   UNL     1       8.868   4.921  25.118  0.00  0.00    +0.028 A 
ATOM     16  C   UNL     1       7.977   3.809  25.190  0.00  0.00    +0.029 A 
ATOM     17  C   UNL     1       6.790   3.550  25.887  0.00  0.00    +0.012 A 
ATOM     18  C   UNL     1       6.183   2.300  25.751  0.00  0.00    +0.001 A 
ATOM     19  C   UNL     1       6.759   1.309  24.954  0.00  0.00    +0.012 A 
ENDBRANCH   5   7
BRANCH   1  20
ATOM     20  C   UNL     1       9.465  -3.272  24.178  0.00  0.00    +0.095 C 
BRANCH  20  21
ATOM     21  C   UNL     1       8.202  -3.933  24.801  0.00  0.00    +0.271 C 
BRANCH  21  22
ATOM     22  O   UNL     1       7.320  -2.927  25.415  0.00  0.00    -0.367 OA
ATOM     23  H   UNL     1       7.840  -2.413  26.065  0.00  0.00    +0.212 HD
ENDBRANCH  21  22
BRANCH  21  24
ATOM     24  P   UNL     1       7.202  -4.600  23.383  0.00  0.00    +0.371 P 
ATOM     25  O   UNL     1       6.711  -3.696  22.300  0.00  0.00    -0.255 OA
BRANCH  24  26
ATOM     26  O   UNL     1       6.048  -5.500  24.037  0.00  0.00    -0.322 OA
ATOM     27  H   UNL     1       5.416  -5.811  23.361  0.00  0.00    +0.220 HD
ENDBRANCH  24  26
BRANCH  24  28
ATOM     28  O   UNL     1       8.181  -5.734  22.776  0.00  0.00    -0.322 OA
ATOM     29  H   UNL     1       8.345  -5.569  21.821  0.00  0.00    +0.220 HD
ENDBRANCH  24  28
ENDBRANCH  21  24
BRANCH  21  30
ATOM     30  P   UNL     1       8.635  -5.189  26.047  0.00  0.00    +0.371 P 
ATOM     31  O   UNL     1       7.495  -5.932  26.661  0.00  0.00    -0.255 OA
BRANCH  30  32
ATOM     32  O   UNL     1       9.551  -4.470  27.135  0.00  0.00    -0.322 OA
ATOM     33  H   UNL     1      10.376  -4.957  27.317  0.00  0.00    +0.220 HD
ENDBRANCH  30  32
BRANCH  30  34
ATOM     34  O   UNL     1       9.713  -6.161  25.349  0.00  0.00    -0.322 OA
ATOM     35  H   UNL     1       9.532  -6.379  24.410  0.00  0.00    +0.220 HD
ENDBRANCH  30  34
ENDBRANCH  21  30
ENDBRANCH  20  21
ENDBRANCH   1  20
TORSDOF 10
ENDMDL
MODEL 7
REMARK VINA RESULT:      -6.7      3.642      7.870
REMARK  Name = 
REMARK  10 active torsions:
REMARK  status: ('A' for Active; 'I' for Inactive)
REMARK    1  A    between atoms: O_1  and  C_2
REMARK    2  A    between atoms: C_2  and  C_3
REMARK    3  A    between atoms: C_2  and  P_23
REMARK    4  A    between atoms: C_2  and  P_27
REMARK    5  A    between atoms: C_3  and  C_4
REMARK    6  A    between atoms: C_6  and  C_10
REMARK    7  A    between atoms: P_23  and  O_24
REMARK    8  A    between atoms: P_23  and  O_25
REMARK    9  A    between atoms: P_27  and  O_28
REMARK   10  A    between atoms: P_27  and  O_29
REMARK                            x       y       z     vdW  Elec       q    Type
REMARK                         _______ _______ _______ _____ _____    ______ ____
ROOT
ATOM      1  C   UNL     1       8.900   2.041  24.327  0.00  0.00    -0.043 A 
ATOM      2  C   UNL     1      10.272   1.810  24.152  0.00  0.00    +0.004 A 
ATOM      3  C   UNL     1      10.791   0.528  24.304  0.00  0.00    +0.001 A 
ATOM      4  C   UNL     1       9.959  -0.517  24.691  0.00  0.00    +0.008 A 
ATOM      5  C   UNL     1       8.570  -0.323  24.849  0.00  0.00    -0.014 A 
ATOM      6  C   UNL     1       8.066   0.943  24.551  0.00  0.00    +0.012 A 
ENDROOT
BRANCH   5   7
ATOM      7  C   UNL     1       7.711  -1.378  25.418  0.00  0.00    +0.025 A 
ATOM      8  C   UNL     1       7.352  -2.541  24.695  0.00  0.00    +0.144 A 
ATOM      9  O   UNL     1       7.840  -2.934  23.466  0.00  0.00    -0.454 OA
ATOM     10  C   UNL     1       7.179  -4.073  23.110  0.00  0.00    +0.136 A 
ATOM     11  C   UNL     1       7.363  -4.792  21.932  0.00  0.00    +0.047 A 
ATOM     12  C   UNL     1       6.524  -5.897  21.731  0.00  0.00    +0.004 A 
ATOM     13  C   UNL     1       5.566  -6.261  22.679  0.00  0.00    +0.001 A 
ATOM     14  C   UNL     1       5.426  -5.540  23.869  0.00  0.00    +0.012 A 
ATOM     15  C   UNL     1       6.255  -4.423  24.086  0.00  0.00    +0.028 A 
ATOM     16  C   UNL     1       6.396  -3.459  25.128  0.00  0.00    +0.029 A 
ATOM     17  C   UNL     1       5.785  -3.268  26.374  0.00  0.00    +0.012 A 
ATOM     18  C   UNL     1       6.147  -2.162  27.144  0.00  0.00    +0.001 A 
ATOM     19  C   UNL     1       7.086  -1.241  26.674  0.00  0.00    +0.012 A 
ENDBRANCH   5   7
BRANCH   1  20
ATOM     20  C   UNL     1       8.423   3.473  24.355  0.00  0.00    +0.095 C 
BRANCH  20  21
ATOM     21  C   UNL     1       7.709   4.107  23.126  0.00  0.00    +0.271 C 
BRANCH  21  22
ATOM     22  O   UNL     1       8.079   3.418  21.879  0.00  0.00    -0.367 OA
ATOM     23  H   UNL     1       8.443   4.077  21.255  0.00  0.00    +0.212 HD
ENDBRANCH  21  22
BRANCH  21  24
ATOM     24  P   UNL     1       5.897   3.741  23.321  0.00  0.00    +0.371 P 
ATOM     25  O   UNL     1       5.242   3.810  24.662  0.00  0.00    -0.255 OA
BRANCH  24  26
ATOM     26  O   UNL     1       5.638   2.357  22.553  0.00  0.00    -0.322 OA
ATOM     27  H   UNL     1       6.211   1.647  22.902  0.00  0.00    +0.220 HD
ENDBRANCH  24  26
BRANCH  24  28
ATOM     28  O   UNL     1       5.221   4.799  22.304  0.00  0.00    -0.322 OA
ATOM     29  H   UNL     1       4.776   4.328  21.565  0.00  0.00    +0.220 HD
ENDBRANCH  24  28
ENDBRANCH  21  24
BRANCH  21  30
ATOM     30  P   UNL     1       8.084   5.883  22.961  0.00  0.00    +0.371 P 
ATOM     31  O   UNL     1       9.474   6.300  23.306  0.00  0.00    -0.255 OA
BRANCH  30  32
ATOM     32  O   UNL     1       6.983   6.670  23.804  0.00  0.00    -0.322 OA
ATOM     33  H   UNL     1       6.200   6.909  23.274  0.00  0.00    +0.220 HD
ENDBRANCH  30  32
BRANCH  30  34
ATOM     34  O   UNL     1       7.658   6.294  21.464  0.00  0.00    -0.322 OA
ATOM     35  H   UNL     1       6.949   5.744  21.066  0.00  0.00    +0.220 HD
ENDBRANCH  30  34
ENDBRANCH  21  30
ENDBRANCH  20  21
ENDBRANCH   1  20
TORSDOF 10
ENDMDL
MODEL 8
REMARK VINA RESULT:      -6.6      3.723      7.873
REMARK  Name = 
REMARK  10 active torsions:
REMARK  status: ('A' for Active; 'I' for Inactive)
REMARK    1  A    between atoms: O_1  and  C_2
REMARK    2  A    between atoms: C_2  and  C_3
REMARK    3  A    between atoms: C_2  and  P_23
REMARK    4  A    between atoms: C_2  and  P_27
REMARK    5  A    between atoms: C_3  and  C_4
REMARK    6  A    between atoms: C_6  and  C_10
REMARK    7  A    between atoms: P_23  and  O_24
REMARK    8  A    between atoms: P_23  and  O_25
REMARK    9  A    between atoms: P_27  and  O_28
REMARK   10  A    between atoms: P_27  and  O_29
REMARK                            x       y       z     vdW  Elec       q    Type
REMARK                         _______ _______ _______ _____ _____    ______ ____
ROOT
ATOM      1  C   UNL     1       8.250   0.101  23.369  0.00  0.00    -0.043 A 
ATOM      2  C   UNL     1       9.625  -0.104  23.550  0.00  0.00    +0.004 A 
ATOM      3  C   UNL     1      10.156  -1.388  23.474  0.00  0.00    +0.001 A 
ATOM      4  C   UNL     1       9.315  -2.478  23.280  0.00  0.00    +0.008 A 
ATOM      5  C   UNL     1       7.931  -2.302  23.069  0.00  0.00    -0.014 A 
ATOM      6  C   UNL     1       7.457  -0.991  23.011  0.00  0.00    +0.012 A 
ENDROOT
BRANCH   5   7
ATOM      7  C   UNL     1       7.011  -3.454  23.030  0.00  0.00    +0.025 A 
ATOM      8  C   UNL     1       6.515  -4.074  24.202  0.00  0.00    +0.144 A 
ATOM      9  O   UNL     1       6.677  -3.636  25.500  0.00  0.00    -0.454 OA
ATOM     10  C   UNL     1       6.099  -4.562  26.318  0.00  0.00    +0.136 A 
ATOM     11  C   UNL     1       6.050  -4.509  27.709  0.00  0.00    +0.047 A 
ATOM     12  C   UNL     1       5.469  -5.607  28.360  0.00  0.00    +0.004 A 
ATOM     13  C   UNL     1       4.953  -6.686  27.641  0.00  0.00    +0.001 A 
ATOM     14  C   UNL     1       4.986  -6.697  26.243  0.00  0.00    +0.012 A 
ATOM     15  C   UNL     1       5.570  -5.608  25.571  0.00  0.00    +0.028 A 
ATOM     16  C   UNL     1       5.801  -5.272  24.204  0.00  0.00    +0.029 A 
ATOM     17  C   UNL     1       5.498  -5.884  22.981  0.00  0.00    +0.012 A 
ATOM     18  C   UNL     1       5.922  -5.280  21.796  0.00  0.00    +0.001 A 
ATOM     19  C   UNL     1       6.661  -4.095  21.824  0.00  0.00    +0.012 A 
ENDBRANCH   5   7
BRANCH   1  20
ATOM     20  C   UNL     1       7.696   1.475  23.664  0.00  0.00    +0.095 C 
BRANCH  20  21
ATOM     21  C   UNL     1       8.161   2.721  22.855  0.00  0.00    +0.271 C 
BRANCH  21  22
ATOM     22  O   UNL     1       8.629   2.341  21.512  0.00  0.00    -0.367 OA
ATOM     23  H   UNL     1       9.426   2.867  21.299  0.00  0.00    +0.212 HD
ENDBRANCH  21  22
BRANCH  21  24
ATOM     24  P   UNL     1       6.639   3.737  22.529  0.00  0.00    +0.371 P 
ATOM     25  O   UNL     1       5.367   3.091  22.090  0.00  0.00    -0.255 OA
BRANCH  24  26
ATOM     26  O   UNL     1       7.105   4.943  21.581  0.00  0.00    -0.322 OA
ATOM     27  H   UNL     1       6.606   5.759  21.777  0.00  0.00    +0.220 HD
ENDBRANCH  24  26
BRANCH  24  28
ATOM     28  O   UNL     1       6.430   4.503  23.937  0.00  0.00    -0.322 OA
ATOM     29  H   UNL     1       6.609   3.894  24.688  0.00  0.00    +0.220 HD
ENDBRANCH  24  28
ENDBRANCH  21  24
BRANCH  21  30
ATOM     30  P   UNL     1       9.483   3.635  23.712  0.00  0.00    +0.371 P 
ATOM     31  O   UNL     1      10.845   3.027  23.668  0.00  0.00    -0.255 OA
BRANCH  30  32
ATOM     32  O   UNL     1       8.979   3.894  25.202  0.00  0.00    -0.322 OA
ATOM     33  H   UNL     1       9.260   3.197  25.823  0.00  0.00    +0.220 HD
ENDBRANCH  30  32
BRANCH  30  34
ATOM     34  O   UNL     1       9.446   5.134  23.124  0.00  0.00    -0.322 OA
ATOM     35  H   UNL     1       9.619   5.208  22.161  0.00  0.00    +0.220 HD
ENDBRANCH  30  34
ENDBRANCH  21  30
ENDBRANCH  20  21
ENDBRANCH   1  20
TORSDOF 10
ENDMDL
MODEL 9
REMARK VINA RESULT:      -6.6      0.945      2.350
REMARK  Name = 
REMARK  10 active torsions:
REMARK  status: ('A' for Active; 'I' for Inactive)
REMARK    1  A    between atoms: O_1  and  C_2
REMARK    2  A    between atoms: C_2  and  C_3
REMARK    3  A    between atoms: C_2  and  P_23
REMARK    4  A    between atoms: C_2  and  P_27
REMARK    5  A    between atoms: C_3  and  C_4
REMARK    6  A    between atoms: C_6  and  C_10
REMARK    7  A    between atoms: P_23  and  O_24
REMARK    8  A    between atoms: P_23  and  O_25
REMARK    9  A    between atoms: P_27  and  O_28
REMARK   10  A    between atoms: P_27  and  O_29
REMARK                            x       y       z     vdW  Elec       q    Type
REMARK                         _______ _______ _______ _____ _____    ______ ____
ROOT
ATOM      1  C   UNL     1       9.809  -1.429  23.270  0.00  0.00    -0.043 A 
ATOM      2  C   UNL     1       9.629  -1.460  21.879  0.00  0.00    +0.004 A 
ATOM      3  C   UNL     1       9.438  -0.278  21.172  0.00  0.00    +0.001 A 
ATOM      4  C   UNL     1       9.364   0.934  21.851  0.00  0.00    +0.008 A 
ATOM      5  C   UNL     1       9.567   1.002  23.246  0.00  0.00    -0.014 A 
ATOM      6  C   UNL     1       9.896  -0.186  23.900  0.00  0.00    +0.012 A 
ENDROOT
BRANCH   5   7
ATOM      7  C   UNL     1       9.326   2.249  23.994  0.00  0.00    +0.025 A 
ATOM      8  C   UNL     1       8.406   2.329  25.067  0.00  0.00    +0.144 A 
ATOM      9  O   UNL     1       7.734   1.280  25.659  0.00  0.00    -0.454 OA
ATOM     10  C   UNL     1       6.905   1.809  26.605  0.00  0.00    +0.136 A 
ATOM     11  C   UNL     1       6.038   1.092  27.426  0.00  0.00    +0.047 A 
ATOM     12  C   UNL     1       5.218   1.842  28.281  0.00  0.00    +0.004 A 
ATOM     13  C   UNL     1       5.286   3.236  28.313  0.00  0.00    +0.001 A 
ATOM     14  C   UNL     1       6.190   3.927  27.500  0.00  0.00    +0.012 A 
ATOM     15  C   UNL     1       7.017   3.193  26.630  0.00  0.00    +0.028 A 
ATOM     16  C   UNL     1       8.017   3.526  25.668  0.00  0.00    +0.029 A 
ATOM     17  C   UNL     1       8.599   4.724  25.237  0.00  0.00    +0.012 A 
ATOM     18  C   UNL     1       9.550   4.687  24.216  0.00  0.00    +0.001 A 
ATOM     19  C   UNL     1       9.901   3.478  23.611  0.00  0.00    +0.012 A 
ENDBRANCH   5   7
BRANCH   1  20
ATOM     20  C   UNL     1       9.805  -2.744  24.012  0.00  0.00    +0.095 C 
BRANCH  20  21
ATOM     21  C   UNL     1       8.684  -3.087  25.036  0.00  0.00    +0.271 C 
BRANCH  21  22
ATOM     22  O   UNL     1       8.688  -2.145  26.167  0.00  0.00    -0.367 OA
ATOM     23  H   UNL     1       8.232  -2.565  26.923  0.00  0.00    +0.212 HD
ENDBRANCH  21  22
BRANCH  21  24
ATOM     24  P   UNL     1       7.068  -2.754  24.179  0.00  0.00    +0.371 P 
ATOM     25  O   UNL     1       6.851  -3.177  22.763  0.00  0.00    -0.255 OA
BRANCH  24  26
ATOM     26  O   UNL     1       6.735  -1.208  24.444  0.00  0.00    -0.322 OA
ATOM     27  H   UNL     1       6.205  -1.096  25.256  0.00  0.00    +0.220 HD
ENDBRANCH  24  26
BRANCH  24  28
ATOM     28  O   UNL     1       6.006  -3.480  25.158  0.00  0.00    -0.322 OA
ATOM     29  H   UNL     1       6.190  -3.248  26.095  0.00  0.00    +0.220 HD
ENDBRANCH  24  28
ENDBRANCH  21  24
BRANCH  21  30
ATOM     30  P   UNL     1       8.840  -4.787  25.673  0.00  0.00    +0.371 P 
ATOM     31  O   UNL     1       7.603  -5.622  25.638  0.00  0.00    -0.255 OA
BRANCH  30  32
ATOM     32  O   UNL     1       9.463  -4.680  27.136  0.00  0.00    -0.322 OA
ATOM     33  H   UNL     1      10.426  -4.835  27.149  0.00  0.00    +0.220 HD
ENDBRANCH  30  32
BRANCH  30  34
ATOM     34  O   UNL     1      10.070  -5.454  24.876  0.00  0.00    -0.322 OA
ATOM     35  H   UNL     1      10.022  -5.382  23.898  0.00  0.00    +0.220 HD
ENDBRANCH  30  34
ENDBRANCH  21  30
ENDBRANCH  20  21
ENDBRANCH   1  20
TORSDOF 10
ENDMDL
