MODEL 1
REMARK VINA RESULT:      -7.8      0.000      0.000
REMARK  Name = 
REMARK  3 active torsions:
REMARK  status: ('A' for Active; 'I' for Inactive)
REMARK    1  A    between atoms: C_2  and  C_3
REMARK    2  A    between atoms: C_3  and  C_4
REMARK    3  A    between atoms: C_7  and  N_10
REMARK                            x       y       z     vdW  Elec       q    Type
REMARK                         _______ _______ _______ _____ _____    ______ ____
ROOT
ATOM      1  C   UNL     1      10.158   1.132  22.823  0.00  0.00    -0.046 A 
ATOM      2  C   UNL     1      10.222   0.728  24.157  0.00  0.00    +0.005 A 
ATOM      3  C   UNL     1       9.792  -0.551  24.544  0.00  0.00    +0.023 A 
ATOM      4  C   UNL     1       9.280  -1.482  23.628  0.00  0.00    +0.030 A 
ATOM      5  C   UNL     1       9.253  -1.063  22.289  0.00  0.00    +0.023 A 
ATOM      6  C   UNL     1       9.688   0.212  21.886  0.00  0.00    +0.005 A 
ENDROOT
BRANCH   4   7
ATOM      7  N   UNL     1       8.819  -2.724  24.018  0.00  0.00    -0.327 N 
ATOM      8  C   UNL     1       7.943  -3.564  23.176  0.00  0.00    +0.124 C 
ATOM      9  C   UNL     1       6.602  -3.825  23.890  0.00  0.00    +0.126 C 
ATOM     10  N   UNL     1       6.819  -4.334  25.246  0.00  0.00    -0.301 N 
ATOM     11  C   UNL     1       6.352  -5.557  25.661  0.00  0.00    +0.328 C 
ATOM     12  O   UNL     1       6.600  -6.090  26.734  0.00  0.00    -0.279 OA
ATOM     13  C   UNL     1       7.726  -3.543  26.080  0.00  0.00    +0.126 C 
ATOM     14  C   UNL     1       9.068  -3.281  25.364  0.00  0.00    +0.124 C 
ENDBRANCH   4   7
BRANCH   1  15
ATOM     15  C   UNL     1      10.579   2.531  22.427  0.00  0.00    +0.052 C 
BRANCH  15  16
ATOM     16  C   UNL     1      10.653   3.532  23.584  0.00  0.00    +0.111 C 
ATOM     17  C   UNL     1       9.396   4.365  23.735  0.00  0.00    -0.014 A 
ATOM     18  C   UNL     1       8.084   3.984  23.956  0.00  0.00    +0.006 A 
ATOM     19  C   UNL     1       7.118   4.990  24.085  0.00  0.00    +0.000 A 
ATOM     20  C   UNL     1       7.469   6.350  23.999  0.00  0.00    +0.002 A 
ATOM     21  C   UNL     1       8.793   6.727  23.778  0.00  0.00    +0.023 A 
ATOM     22  C   UNL     1       9.724   5.718  23.651  0.00  0.00    +0.037 A 
ATOM     23  N   UNL     1      11.080   5.861  23.428  0.00  0.00    -0.285 N 
ATOM     24  H   UNL     1      11.576   6.734  23.329  0.00  0.00    +0.155 HD
ATOM     25  C   UNL     1      11.720   4.630  23.360  0.00  0.00    +0.225 C 
ATOM     26  O   UNL     1      12.917   4.490  23.182  0.00  0.00    -0.275 OA
ENDBRANCH  15  16
ENDBRANCH   1  15
TORSDOF 3
ENDMDL
MODEL 2
REMARK VINA RESULT:      -7.7      2.013      2.700
REMARK  Name = 
REMARK  3 active torsions:
REMARK  status: ('A' for Active; 'I' for Inactive)
REMARK    1  A    between atoms: C_2  and  C_3
REMARK    2  A    between atoms: C_3  and  C_4
REMARK    3  A    between atoms: C_7  and  N_10
REMARK                            x       y       z     vdW  Elec       q    Type
REMARK                         _______ _______ _______ _____ _____    ______ ____
ROOT
ATOM      1  C   UNL     1      10.072  -0.115  23.760  0.00  0.00    -0.046 A 
ATOM      2  C   UNL     1       9.550  -0.777  24.872  0.00  0.00    +0.005 A 
ATOM      3  C   UNL     1       8.857  -1.989  24.729  0.00  0.00    +0.023 A 
ATOM      4  C   UNL     1       8.650  -2.595  23.481  0.00  0.00    +0.030 A 
ATOM      5  C   UNL     1       9.209  -1.925  22.382  0.00  0.00    +0.023 A 
ATOM      6  C   UNL     1       9.914  -0.715  22.512  0.00  0.00    +0.005 A 
ENDROOT
BRANCH   4   7
ATOM      7  N   UNL     1       7.930  -3.765  23.339  0.00  0.00    -0.327 N 
ATOM      8  C   UNL     1       7.087  -4.060  22.162  0.00  0.00    +0.124 C 
ATOM      9  C   UNL     1       5.618  -4.254  22.590  0.00  0.00    +0.126 C 
ATOM     10  N   UNL     1       5.512  -5.227  23.679  0.00  0.00    -0.301 N 
ATOM     11  C   UNL     1       4.786  -6.387  23.566  0.00  0.00    +0.328 C 
ATOM     12  O   UNL     1       4.755  -7.293  24.389  0.00  0.00    -0.279 OA
ATOM     13  C   UNL     1       6.379  -4.981  24.833  0.00  0.00    +0.126 C 
ATOM     14  C   UNL     1       7.849  -4.787  24.404  0.00  0.00    +0.124 C 
ENDBRANCH   4   7
BRANCH   1  15
ATOM     15  C   UNL     1      10.775   1.215  23.924  0.00  0.00    +0.052 C 
BRANCH  15  16
ATOM     16  C   UNL     1      10.100   2.391  23.211  0.00  0.00    +0.111 C 
ATOM     17  C   UNL     1      10.747   3.727  23.518  0.00  0.00    -0.014 A 
ATOM     18  C   UNL     1      12.046   4.164  23.322  0.00  0.00    +0.006 A 
ATOM     19  C   UNL     1      12.358   5.482  23.678  0.00  0.00    +0.000 A 
ATOM     20  C   UNL     1      11.381   6.341  24.215  0.00  0.00    +0.002 A 
ATOM     21  C   UNL     1      10.073   5.894  24.407  0.00  0.00    +0.023 A 
ATOM     22  C   UNL     1       9.793   4.592  24.052  0.00  0.00    +0.037 A 
ATOM     23  N   UNL     1       8.577   3.945  24.157  0.00  0.00    -0.285 N 
ATOM     24  H   UNL     1       7.721   4.345  24.511  0.00  0.00    +0.155 HD
ATOM     25  C   UNL     1       8.652   2.637  23.699  0.00  0.00    +0.225 C 
ATOM     26  O   UNL     1       7.711   1.863  23.678  0.00  0.00    -0.275 OA
ENDBRANCH  15  16
ENDBRANCH   1  15
TORSDOF 3
ENDMDL
MODEL 3
REMARK VINA RESULT:      -7.7      2.275      9.192
REMARK  Name = 
REMARK  3 active torsions:
REMARK  status: ('A' for Active; 'I' for Inactive)
REMARK    1  A    between atoms: C_2  and  C_3
REMARK    2  A    between atoms: C_3  and  C_4
REMARK    3  A    between atoms: C_7  and  N_10
REMARK                            x       y       z     vdW  Elec       q    Type
REMARK                         _______ _______ _______ _____ _____    ______ ____
ROOT
ATOM      1  C   UNL     1       8.207  -2.794  23.331  0.00  0.00    -0.046 A 
ATOM      2  C   UNL     1       7.413  -1.702  22.976  0.00  0.00    +0.005 A 
ATOM      3  C   UNL     1       7.799  -0.393  23.304  0.00  0.00    +0.023 A 
ATOM      4  C   UNL     1       8.986  -0.110  23.997  0.00  0.00    +0.030 A 
ATOM      5  C   UNL     1       9.781  -1.221  24.317  0.00  0.00    +0.023 A 
ATOM      6  C   UNL     1       9.410  -2.537  23.987  0.00  0.00    +0.005 A 
ENDROOT
BRANCH   4   7
ATOM      7  N   UNL     1       9.342   1.176  24.355  0.00  0.00    -0.327 N 
ATOM      8  C   UNL     1       8.395   2.143  24.946  0.00  0.00    +0.124 C 
ATOM      9  C   UNL     1       8.261   3.384  24.040  0.00  0.00    +0.126 C 
ATOM     10  N   UNL     1       9.575   3.937  23.709  0.00  0.00    -0.301 N 
ATOM     11  C   UNL     1       9.942   5.219  24.038  0.00  0.00    +0.328 C 
ATOM     12  O   UNL     1      11.059   5.700  23.899  0.00  0.00    -0.279 OA
ATOM     13  C   UNL     1      10.545   2.982  23.171  0.00  0.00    +0.126 C 
ATOM     14  C   UNL     1      10.679   1.740  24.077  0.00  0.00    +0.124 C 
ENDBRANCH   4   7
BRANCH   1  15
ATOM     15  C   UNL     1       7.754  -4.203  23.015  0.00  0.00    +0.052 C 
BRANCH  15  16
ATOM     16  C   UNL     1       6.235  -4.402  23.001  0.00  0.00    +0.111 C 
ATOM     17  C   UNL     1       5.712  -5.098  24.241  0.00  0.00    -0.014 A 
ATOM     18  C   UNL     1       5.800  -4.745  25.576  0.00  0.00    +0.006 A 
ATOM     19  C   UNL     1       5.186  -5.578  26.520  0.00  0.00    +0.000 A 
ATOM     20  C   UNL     1       4.495  -6.738  26.126  0.00  0.00    +0.002 A 
ATOM     21  C   UNL     1       4.408  -7.087  24.778  0.00  0.00    +0.023 A 
ATOM     22  C   UNL     1       5.024  -6.252  23.869  0.00  0.00    +0.037 A 
ATOM     23  N   UNL     1       5.066  -6.405  22.497  0.00  0.00    -0.285 N 
ATOM     24  H   UNL     1       4.646  -7.156  21.970  0.00  0.00    +0.155 HD
ATOM     25  C   UNL     1       5.768  -5.372  21.889  0.00  0.00    +0.225 C 
ATOM     26  O   UNL     1       5.937  -5.274  20.686  0.00  0.00    -0.275 OA
ENDBRANCH  15  16
ENDBRANCH   1  15
TORSDOF 3
ENDMDL
MODEL 4
REMARK VINA RESULT:      -7.3      1.861      8.429
REMARK  Name = 
REMARK  3 active torsions:
REMARK  status: ('A' for Active; 'I' for Inactive)
REMARK    1  A    between atoms: C_2  and  C_3
REMARK    2  A    between atoms: C_3  and  C_4
REMARK    3  A    between atoms: C_7  and  N_10
REMARK                            x       y       z     vdW  Elec       q    Type
REMARK                         _______ _______ _______ _____ _____    ______ ____
ROOT
ATOM      1  C   UNL     1       9.357  -3.108  24.878  0.00  0.00    -0.046 A 
ATOM      2  C   UNL     1       9.962  -2.618  23.720  0.00  0.00    +0.005 A 
ATOM      3  C   UNL     1       9.826  -1.270  23.351  0.00  0.00    +0.023 A 
ATOM      4  C   UNL     1       9.086  -0.352  24.111  0.00  0.00    +0.030 A 
ATOM      5  C   UNL     1       8.512  -0.862  25.286  0.00  0.00    +0.023 A 
ATOM      6  C   UNL     1       8.647  -2.208  25.672  0.00  0.00    +0.005 A 
ENDROOT
BRANCH   4   7
ATOM      7  N   UNL     1       8.919   0.962  23.723  0.00  0.00    -0.327 N 
ATOM      8  C   UNL     1       9.848   1.661  22.811  0.00  0.00    +0.124 C 
ATOM      9  C   UNL     1      10.477   2.879  23.517  0.00  0.00    +0.126 C 
ATOM     10  N   UNL     1       9.446   3.732  24.112  0.00  0.00    -0.301 N 
ATOM     11  C   UNL     1       9.276   5.047  23.755  0.00  0.00    +0.328 C 
ATOM     12  O   UNL     1       8.364   5.775  24.123  0.00  0.00    -0.279 OA
ATOM     13  C   UNL     1       8.484   3.048  24.978  0.00  0.00    +0.126 C 
ATOM     14  C   UNL     1       7.855   1.828  24.272  0.00  0.00    +0.124 C 
ENDBRANCH   4   7
BRANCH   1  15
ATOM     15  C   UNL     1       9.471  -4.573  25.238  0.00  0.00    +0.052 C 
BRANCH  15  16
ATOM     16  C   UNL     1       8.165  -5.366  25.128  0.00  0.00    +0.111 C 
ATOM     17  C   UNL     1       7.203  -4.794  24.106  0.00  0.00    -0.014 A 
ATOM     18  C   UNL     1       7.357  -4.577  22.748  0.00  0.00    +0.006 A 
ATOM     19  C   UNL     1       6.269  -4.054  22.037  0.00  0.00    +0.000 A 
ATOM     20  C   UNL     1       5.052  -3.763  22.681  0.00  0.00    +0.002 A 
ATOM     21  C   UNL     1       4.903  -3.986  24.050  0.00  0.00    +0.023 A 
ATOM     22  C   UNL     1       5.990  -4.497  24.727  0.00  0.00    +0.037 A 
ATOM     23  N   UNL     1       6.066  -4.792  26.075  0.00  0.00    -0.285 N 
ATOM     24  H   UNL     1       5.327  -4.671  26.751  0.00  0.00    +0.155 HD
ATOM     25  C   UNL     1       7.312  -5.299  26.418  0.00  0.00    +0.225 C 
ATOM     26  O   UNL     1       7.625  -5.644  27.544  0.00  0.00    -0.275 OA
ENDBRANCH  15  16
ENDBRANCH   1  15
TORSDOF 3
ENDMDL
MODEL 5
REMARK VINA RESULT:      -7.3      1.952      8.599
REMARK  Name = 
REMARK  3 active torsions:
REMARK  status: ('A' for Active; 'I' for Inactive)
REMARK    1  A    between atoms: C_2  and  C_3
REMARK    2  A    between atoms: C_3  and  C_4
REMARK    3  A    between atoms: C_7  and  N_10
REMARK                            x       y       z     vdW  Elec       q    Type
REMARK                         _______ _______ _______ _____ _____    ______ ____
ROOT
ATOM      1  C   UNL     1       8.219  -2.840  23.637  0.00  0.00    -0.046 A 
ATOM      2  C   UNL     1       9.437  -2.313  23.208  0.00  0.00    +0.005 A 
ATOM      3  C   UNL     1       9.803  -0.995  23.523  0.00  0.00    +0.023 A 
ATOM      4  C   UNL     1       8.979  -0.144  24.275  0.00  0.00    +0.030 A 
ATOM      5  C   UNL     1       7.772  -0.707  24.719  0.00  0.00    +0.023 A 
ATOM      6  C   UNL     1       7.397  -2.028  24.418  0.00  0.00    +0.005 A 
ENDROOT
BRANCH   4   7
ATOM      7  N   UNL     1       9.323   1.165  24.547  0.00  0.00    -0.327 N 
ATOM      8  C   UNL     1       8.365   2.163  25.065  0.00  0.00    +0.124 C 
ATOM      9  C   UNL     1       8.228   3.338  24.077  0.00  0.00    +0.126 C 
ATOM     10  N   UNL     1       9.541   3.878  23.717  0.00  0.00    -0.301 N 
ATOM     11  C   UNL     1       9.897   5.182  23.961  0.00  0.00    +0.328 C 
ATOM     12  O   UNL     1      11.011   5.661  23.796  0.00  0.00    -0.279 OA
ATOM     13  C   UNL     1      10.522   2.896  23.250  0.00  0.00    +0.126 C 
ATOM     14  C   UNL     1      10.658   1.720  24.240  0.00  0.00    +0.124 C 
ENDBRANCH   4   7
BRANCH   1  15
ATOM     15  C   UNL     1       7.815  -4.246  23.248  0.00  0.00    +0.052 C 
BRANCH  15  16
ATOM     16  C   UNL     1       7.932  -5.282  24.371  0.00  0.00    +0.111 C 
ATOM     17  C   UNL     1       6.796  -5.209  25.372  0.00  0.00    -0.014 A 
ATOM     18  C   UNL     1       5.430  -5.340  25.195  0.00  0.00    +0.006 A 
ATOM     19  C   UNL     1       4.608  -5.255  26.325  0.00  0.00    +0.000 A 
ATOM     20  C   UNL     1       5.152  -5.048  27.606  0.00  0.00    +0.002 A 
ATOM     21  C   UNL     1       6.531  -4.919  27.778  0.00  0.00    +0.023 A 
ATOM     22  C   UNL     1       7.318  -5.003  26.649  0.00  0.00    +0.037 A 
ATOM     23  N   UNL     1       8.694  -4.903  26.586  0.00  0.00    -0.285 N 
ATOM     24  H   UNL     1       9.315  -4.753  27.367  0.00  0.00    +0.155 HD
ATOM     25  C   UNL     1       9.158  -5.041  25.284  0.00  0.00    +0.225 C 
ATOM     26  O   UNL     1      10.334  -5.001  24.968  0.00  0.00    -0.275 OA
ENDBRANCH  15  16
ENDBRANCH   1  15
TORSDOF 3
ENDMDL
MODEL 6
REMARK VINA RESULT:      -7.2      1.528      2.049
REMARK  Name = 
REMARK  3 active torsions:
REMARK  status: ('A' for Active; 'I' for Inactive)
REMARK    1  A    between atoms: C_2  and  C_3
REMARK    2  A    between atoms: C_3  and  C_4
REMARK    3  A    between atoms: C_7  and  N_10
REMARK                            x       y       z     vdW  Elec       q    Type
REMARK                         _______ _______ _______ _____ _____    ______ ____
ROOT
ATOM      1  C   UNL     1       9.612  -0.457  23.136  0.00  0.00    -0.046 A 
ATOM      2  C   UNL     1       9.692  -0.953  24.438  0.00  0.00    +0.005 A 
ATOM      3  C   UNL     1       9.101  -2.180  24.779  0.00  0.00    +0.023 A 
ATOM      4  C   UNL     1       8.405  -2.965  23.847  0.00  0.00    +0.030 A 
ATOM      5  C   UNL     1       8.364  -2.458  22.539  0.00  0.00    +0.023 A 
ATOM      6  C   UNL     1       8.959  -1.236  22.182  0.00  0.00    +0.005 A 
ENDROOT
BRANCH   4   7
ATOM      7  N   UNL     1       7.788  -4.150  24.196  0.00  0.00    -0.327 N 
ATOM      8  C   UNL     1       6.922  -4.914  23.274  0.00  0.00    +0.124 C 
ATOM      9  C   UNL     1       5.498  -5.034  23.853  0.00  0.00    +0.126 C 
ATOM     10  N   UNL     1       5.529  -5.541  25.226  0.00  0.00    -0.301 N 
ATOM     11  C   UNL     1       4.906  -6.707  25.599  0.00  0.00    +0.328 C 
ATOM     12  O   UNL     1       4.994  -7.246  26.694  0.00  0.00    -0.279 OA
ATOM     13  C   UNL     1       6.423  -4.830  26.142  0.00  0.00    +0.126 C 
ATOM     14  C   UNL     1       7.848  -4.709  25.563  0.00  0.00    +0.124 C 
ENDBRANCH   4   7
BRANCH   1  15
ATOM     15  C   UNL     1      10.213   0.890  22.794  0.00  0.00    +0.052 C 
BRANCH  15  16
ATOM     16  C   UNL     1       9.729   2.050  23.670  0.00  0.00    +0.111 C 
ATOM     17  C   UNL     1       8.309   2.481  23.360  0.00  0.00    -0.014 A 
ATOM     18  C   UNL     1       7.124   1.768  23.396  0.00  0.00    +0.006 A 
ATOM     19  C   UNL     1       5.938   2.445  23.084  0.00  0.00    +0.000 A 
ATOM     20  C   UNL     1       5.947   3.811  22.748  0.00  0.00    +0.002 A 
ATOM     21  C   UNL     1       7.146   4.524  22.716  0.00  0.00    +0.023 A 
ATOM     22  C   UNL     1       8.299   3.834  23.023  0.00  0.00    +0.037 A 
ATOM     23  N   UNL     1       9.586   4.337  23.051  0.00  0.00    -0.285 N 
ATOM     24  H   UNL     1       9.856   5.288  22.849  0.00  0.00    +0.155 HD
ATOM     25  C   UNL     1      10.508   3.363  23.409  0.00  0.00    +0.225 C 
ATOM     26  O   UNL     1      11.706   3.559  23.515  0.00  0.00    -0.275 OA
ENDBRANCH  15  16
ENDBRANCH   1  15
TORSDOF 3
ENDMDL
MODEL 7
REMARK VINA RESULT:      -7.2      2.213      3.122
REMARK  Name = 
REMARK  3 active torsions:
REMARK  status: ('A' for Active; 'I' for Inactive)
REMARK    1  A    between atoms: C_2  and  C_3
REMARK    2  A    between atoms: C_3  and  C_4
REMARK    3  A    between atoms: C_7  and  N_10
REMARK                            x       y       z     vdW  Elec       q    Type
REMARK                         _______ _______ _______ _____ _____    ______ ____
ROOT
ATOM      1  C   UNL     1       9.352  -0.128  24.523  0.00  0.00    -0.046 A 
ATOM      2  C   UNL     1       8.053   0.200  24.915  0.00  0.00    +0.005 A 
ATOM      3  C   UNL     1       7.079  -0.796  25.085  0.00  0.00    +0.023 A 
ATOM      4  C   UNL     1       7.349  -2.157  24.874  0.00  0.00    +0.030 A 
ATOM      5  C   UNL     1       8.669  -2.463  24.510  0.00  0.00    +0.023 A 
ATOM      6  C   UNL     1       9.657  -1.476  24.344  0.00  0.00    +0.005 A 
ENDROOT
BRANCH   4   7
ATOM      7  N   UNL     1       6.378  -3.130  25.001  0.00  0.00    -0.327 N 
ATOM      8  C   UNL     1       5.833  -3.564  26.304  0.00  0.00    +0.124 C 
ATOM      9  C   UNL     1       6.107  -5.066  26.526  0.00  0.00    +0.126 C 
ATOM     10  N   UNL     1       5.657  -5.857  25.379  0.00  0.00    -0.301 N 
ATOM     11  C   UNL     1       4.707  -6.843  25.487  0.00  0.00    +0.328 C 
ATOM     12  O   UNL     1       4.203  -7.454  24.554  0.00  0.00    -0.279 OA
ATOM     13  C   UNL     1       6.145  -5.410  24.073  0.00  0.00    +0.126 C 
ATOM     14  C   UNL     1       5.871  -3.907  23.851  0.00  0.00    +0.124 C 
ENDBRANCH   4   7
BRANCH   1  15
ATOM     15  C   UNL     1      10.379   0.961  24.296  0.00  0.00    +0.052 C 
BRANCH  15  16
ATOM     16  C   UNL     1      10.191   1.762  23.004  0.00  0.00    +0.111 C 
ATOM     17  C   UNL     1       9.203   2.902  23.147  0.00  0.00    -0.014 A 
ATOM     18  C   UNL     1       9.205   3.994  23.996  0.00  0.00    +0.006 A 
ATOM     19  C   UNL     1       8.159   4.920  23.882  0.00  0.00    +0.000 A 
ATOM     20  C   UNL     1       7.139   4.750  22.928  0.00  0.00    +0.002 A 
ATOM     21  C   UNL     1       7.145   3.648  22.073  0.00  0.00    +0.023 A 
ATOM     22  C   UNL     1       8.182   2.750  22.209  0.00  0.00    +0.037 A 
ATOM     23  N   UNL     1       8.384   1.597  21.475  0.00  0.00    -0.285 N 
ATOM     24  H   UNL     1       7.793   1.254  20.733  0.00  0.00    +0.155 HD
ATOM     25  C   UNL     1       9.537   0.932  21.874  0.00  0.00    +0.225 C 
ATOM     26  O   UNL     1       9.938  -0.103  21.373  0.00  0.00    -0.275 OA
ENDBRANCH  15  16
ENDBRANCH   1  15
TORSDOF 3
ENDMDL
MODEL 8
REMARK VINA RESULT:      -7.1      2.882      9.641
REMARK  Name = 
REMARK  3 active torsions:
REMARK  status: ('A' for Active; 'I' for Inactive)
REMARK    1  A    between atoms: C_2  and  C_3
REMARK    2  A    between atoms: C_3  and  C_4
REMARK    3  A    between atoms: C_7  and  N_10
REMARK                            x       y       z     vdW  Elec       q    Type
REMARK                         _______ _______ _______ _____ _____    ______ ____
ROOT
ATOM      1  C   UNL     1       6.207  -4.726  23.256  0.00  0.00    -0.046 A 
ATOM      2  C   UNL     1       5.500  -3.593  22.852  0.00  0.00    +0.005 A 
ATOM      3  C   UNL     1       6.160  -2.374  22.629  0.00  0.00    +0.023 A 
ATOM      4  C   UNL     1       7.545  -2.226  22.797  0.00  0.00    +0.030 A 
ATOM      5  C   UNL     1       8.237  -3.387  23.175  0.00  0.00    +0.023 A 
ATOM      6  C   UNL     1       7.590  -4.616  23.393  0.00  0.00    +0.005 A 
ENDROOT
BRANCH   4   7
ATOM      7  N   UNL     1       8.185  -1.015  22.617  0.00  0.00    -0.327 N 
ATOM      8  C   UNL     1       9.593  -0.900  22.186  0.00  0.00    +0.124 C 
ATOM      9  C   UNL     1      10.424  -0.170  23.261  0.00  0.00    +0.126 C 
ATOM     10  N   UNL     1       9.795   1.095  23.643  0.00  0.00    -0.301 N 
ATOM     11  C   UNL     1      10.420   2.309  23.492  0.00  0.00    +0.328 C 
ATOM     12  O   UNL     1       9.908   3.405  23.677  0.00  0.00    -0.279 OA
ATOM     13  C   UNL     1       8.383   1.010  24.023  0.00  0.00    +0.126 C 
ATOM     14  C   UNL     1       7.552   0.279  22.947  0.00  0.00    +0.124 C 
ENDBRANCH   4   7
BRANCH   1  15
ATOM     15  C   UNL     1       5.476  -6.021  23.540  0.00  0.00    +0.052 C 
BRANCH  15  16
ATOM     16  C   UNL     1       4.439  -5.940  24.665  0.00  0.00    +0.111 C 
ATOM     17  C   UNL     1       5.058  -5.750  26.035  0.00  0.00    -0.014 A 
ATOM     18  C   UNL     1       5.878  -4.748  26.521  0.00  0.00    +0.006 A 
ATOM     19  C   UNL     1       6.280  -4.817  27.861  0.00  0.00    +0.000 A 
ATOM     20  C   UNL     1       5.859  -5.871  28.693  0.00  0.00    +0.002 A 
ATOM     21  C   UNL     1       5.030  -6.877  28.197  0.00  0.00    +0.023 A 
ATOM     22  C   UNL     1       4.652  -6.788  26.874  0.00  0.00    +0.037 A 
ATOM     23  N   UNL     1       3.844  -7.667  26.179  0.00  0.00    -0.285 N 
ATOM     24  H   UNL     1       3.417  -8.502  26.552  0.00  0.00    +0.155 HD
ATOM     25  C   UNL     1       3.664  -7.266  24.862  0.00  0.00    +0.225 C 
ATOM     26  O   UNL     1       2.985  -7.867  24.049  0.00  0.00    -0.275 OA
ENDBRANCH  15  16
ENDBRANCH   1  15
TORSDOF 3
ENDMDL
MODEL 9
REMARK VINA RESULT:      -6.8      2.431      8.661
REMARK  Name = 
REMARK  3 active torsions:
REMARK  status: ('A' for Active; 'I' for Inactive)
REMARK    1  A    between atoms: C_2  and  C_3
REMARK    2  A    between atoms: C_3  and  C_4
REMARK    3  A    between atoms: C_7  and  N_10
REMARK                            x       y       z     vdW  Elec       q    Type
REMARK                         _______ _______ _______ _____ _____    ______ ____
ROOT
ATOM      1  C   UNL     1       8.666  -0.899  25.090  0.00  0.00    -0.046 A 
ATOM      2  C   UNL     1       9.831  -0.284  24.629  0.00  0.00    +0.005 A 
ATOM      3  C   UNL     1       9.795   1.008  24.082  0.00  0.00    +0.023 A 
ATOM      4  C   UNL     1       8.607   1.745  23.967  0.00  0.00    +0.030 A 
ATOM      5  C   UNL     1       7.455   1.116  24.464  0.00  0.00    +0.023 A 
ATOM      6  C   UNL     1       7.477  -0.174  25.023  0.00  0.00    +0.005 A 
ENDROOT
BRANCH   4   7
ATOM      7  N   UNL     1       8.569   2.998  23.390  0.00  0.00    -0.327 N 
ATOM      8  C   UNL     1       9.276   4.169  23.949  0.00  0.00    +0.124 C 
ATOM      9  C   UNL     1       8.269   5.280  24.310  0.00  0.00    +0.126 C 
ATOM     10  N   UNL     1       7.389   5.579  23.180  0.00  0.00    -0.301 N 
ATOM     11  C   UNL     1       7.321   6.824  22.603  0.00  0.00    +0.328 C 
ATOM     12  O   UNL     1       6.700   7.108  21.588  0.00  0.00    -0.279 OA
ATOM     13  C   UNL     1       6.719   4.424  22.578  0.00  0.00    +0.126 C 
ATOM     14  C   UNL     1       7.727   3.312  22.217  0.00  0.00    +0.124 C 
ENDBRANCH   4   7
BRANCH   1  15
ATOM     15  C   UNL     1       8.711  -2.311  25.633  0.00  0.00    +0.052 C 
BRANCH  15  16
ATOM     16  C   UNL     1       9.197  -3.368  24.636  0.00  0.00    +0.111 C 
ATOM     17  C   UNL     1       8.157  -3.730  23.594  0.00  0.00    -0.014 A 
ATOM     18  C   UNL     1       7.503  -2.942  22.664  0.00  0.00    +0.006 A 
ATOM     19  C   UNL     1       6.599  -3.564  21.793  0.00  0.00    +0.000 A 
ATOM     20  C   UNL     1       6.365  -4.950  21.857  0.00  0.00    +0.002 A 
ATOM     21  C   UNL     1       7.030  -5.739  22.796  0.00  0.00    +0.023 A 
ATOM     22  C   UNL     1       7.911  -5.102  23.643  0.00  0.00    +0.037 A 
ATOM     23  N   UNL     1       8.670  -5.681  24.642  0.00  0.00    -0.285 N 
ATOM     24  H   UNL     1       8.680  -6.660  24.887  0.00  0.00    +0.155 HD
ATOM     25  C   UNL     1       9.455  -4.743  25.298  0.00  0.00    +0.225 C 
ATOM     26  O   UNL     1      10.220  -5.006  26.209  0.00  0.00    -0.275 OA
ENDBRANCH  15  16
ENDBRANCH   1  15
TORSDOF 3
ENDMDL
