MODEL 1
REMARK VINA RESULT:      -7.9      0.000      0.000
REMARK  Name = 
REMARK  2 active torsions:
REMARK  status: ('A' for Active; 'I' for Inactive)
REMARK    1  A    between atoms: O_1  and  C_2
REMARK    2  A    between atoms: C_22  and  O_23
REMARK                            x       y       z     vdW  Elec       q    Type
REMARK                         _______ _______ _______ _____ _____    ______ ____
ROOT
ATOM      1  C   UNL     1       4.355  -1.364  26.762  0.00  0.00    +0.120 A 
ATOM      2  C   UNL     1       4.739  -2.694  26.681  0.00  0.00    +0.046 A 
ATOM      3  C   UNL     1       5.768  -3.061  25.817  0.00  0.00    +0.015 A 
ATOM      4  C   UNL     1       6.416  -2.098  25.013  0.00  0.00    +0.047 A 
ATOM      5  C   UNL     1       7.496  -2.488  24.026  0.00  0.00    +0.196 C 
ATOM      6  C   UNL     1       8.151  -1.296  23.358  0.00  0.00    +0.047 A 
ATOM      7  C   UNL     1       9.249  -1.451  22.487  0.00  0.00    +0.015 A 
ATOM      8  C   UNL     1       9.786  -0.357  21.811  0.00  0.00    +0.046 A 
ATOM      9  C   UNL     1       9.242   0.903  22.011  0.00  0.00    +0.120 A 
ATOM     10  C   UNL     1       8.173   1.086  22.881  0.00  0.00    +0.092 A 
ATOM     11  C   UNL     1       7.630  -0.014  23.553  0.00  0.00    +0.140 A 
ATOM     12  O   UNL     1       6.567   0.257  24.382  0.00  0.00    -0.455 OA
ATOM     13  C   UNL     1       7.013  -3.490  23.023  0.00  0.00    +0.019 A 
ATOM     14  C   UNL     1       7.720  -4.664  23.185  0.00  0.00    +0.067 A 
ATOM     15  C   UNL     1       7.513  -5.774  22.386  0.00  0.00    +0.015 A 
ATOM     16  C   UNL     1       6.545  -5.676  21.386  0.00  0.00    +0.001 A 
ATOM     17  C   UNL     1       5.815  -4.486  21.213  0.00  0.00    +0.000 A 
ATOM     18  C   UNL     1       8.668  -4.499  24.278  0.00  0.00    +0.341 C 
ATOM     19  O   UNL     1       9.441  -5.338  24.692  0.00  0.00    -0.245 OA
ATOM     20  C   UNL     1       6.045  -3.381  22.036  0.00  0.00    +0.009 A 
ATOM     21  O   UNL     1       8.520  -3.225  24.746  0.00  0.00    -0.440 OA
ATOM     22  C   UNL     1       6.015  -0.764  25.116  0.00  0.00    +0.140 A 
ATOM     23  C   UNL     1       4.987  -0.393  25.992  0.00  0.00    +0.092 A 
ENDROOT
BRANCH   1  24
ATOM     24  O   UNL     1       3.343  -1.050  27.620  0.00  0.00    -0.507 OA
ATOM     25  H   UNL     1       2.581  -0.740  27.107  0.00  0.00    +0.292 HD
ENDBRANCH   1  24
BRANCH   9  26
ATOM     26  O   UNL     1       9.791   1.942  21.321  0.00  0.00    -0.507 OA
ATOM     27  H   UNL     1      10.559   2.276  21.814  0.00  0.00    +0.292 HD
ENDBRANCH   9  26
TORSDOF 2
ENDMDL
MODEL 2
REMARK VINA RESULT:      -7.7      2.315      5.032
REMARK  Name = 
REMARK  2 active torsions:
REMARK  status: ('A' for Active; 'I' for Inactive)
REMARK    1  A    between atoms: O_1  and  C_2
REMARK    2  A    between atoms: C_22  and  O_23
REMARK                            x       y       z     vdW  Elec       q    Type
REMARK                         _______ _______ _______ _____ _____    ______ ____
ROOT
ATOM      1  C   UNL     1       9.465  -0.214  25.240  0.00  0.00    +0.120 A 
ATOM      2  C   UNL     1       9.108  -0.772  26.459  0.00  0.00    +0.046 A 
ATOM      3  C   UNL     1       8.346  -1.938  26.484  0.00  0.00    +0.015 A 
ATOM      4  C   UNL     1       7.922  -2.552  25.286  0.00  0.00    +0.047 A 
ATOM      5  C   UNL     1       7.044  -3.785  25.296  0.00  0.00    +0.196 C 
ATOM      6  C   UNL     1       6.809  -4.360  23.914  0.00  0.00    +0.047 A 
ATOM      7  C   UNL     1       6.105  -5.568  23.728  0.00  0.00    +0.015 A 
ATOM      8  C   UNL     1       5.820  -6.041  22.448  0.00  0.00    +0.046 A 
ATOM      9  C   UNL     1       6.248  -5.319  21.344  0.00  0.00    +0.120 A 
ATOM     10  C   UNL     1       6.963  -4.137  21.499  0.00  0.00    +0.092 A 
ATOM     11  C   UNL     1       7.242  -3.660  22.785  0.00  0.00    +0.140 A 
ATOM     12  O   UNL     1       7.940  -2.477  22.844  0.00  0.00    -0.455 OA
ATOM     13  C   UNL     1       5.758  -3.562  26.030  0.00  0.00    +0.019 A 
ATOM     14  C   UNL     1       5.722  -4.388  27.135  0.00  0.00    +0.067 A 
ATOM     15  C   UNL     1       4.646  -4.424  28.003  0.00  0.00    +0.015 A 
ATOM     16  C   UNL     1       3.568  -3.581  27.726  0.00  0.00    +0.001 A 
ATOM     17  C   UNL     1       3.594  -2.732  26.606  0.00  0.00    +0.000 A 
ATOM     18  C   UNL     1       6.953  -5.164  27.186  0.00  0.00    +0.341 C 
ATOM     19  O   UNL     1       7.252  -5.982  28.031  0.00  0.00    -0.245 OA
ATOM     20  C   UNL     1       4.696  -2.717  25.747  0.00  0.00    +0.009 A 
ATOM     21  O   UNL     1       7.700  -4.799  26.104  0.00  0.00    -0.440 OA
ATOM     22  C   UNL     1       8.298  -1.974  24.071  0.00  0.00    +0.140 A 
ATOM     23  C   UNL     1       9.072  -0.807  24.044  0.00  0.00    +0.092 A 
ENDROOT
BRANCH   1  24
ATOM     24  O   UNL     1      10.210   0.927  25.262  0.00  0.00    -0.507 OA
ATOM     25  H   UNL     1       9.659   1.656  25.588  0.00  0.00    +0.292 HD
ENDBRANCH   1  24
BRANCH   9  26
ATOM     26  O   UNL     1       5.937  -5.812  20.112  0.00  0.00    -0.507 OA
ATOM     27  H   UNL     1       6.039  -6.779  20.124  0.00  0.00    +0.292 HD
ENDBRANCH   9  26
TORSDOF 2
ENDMDL
MODEL 3
REMARK VINA RESULT:      -7.6      1.563      5.046
REMARK  Name = 
REMARK  2 active torsions:
REMARK  status: ('A' for Active; 'I' for Inactive)
REMARK    1  A    between atoms: O_1  and  C_2
REMARK    2  A    between atoms: C_22  and  O_23
REMARK                            x       y       z     vdW  Elec       q    Type
REMARK                         _______ _______ _______ _____ _____    ______ ____
ROOT
ATOM      1  C   UNL     1       9.464   1.403  22.047  0.00  0.00    +0.120 A 
ATOM      2  C   UNL     1       9.468   0.149  21.456  0.00  0.00    +0.046 A 
ATOM      3  C   UNL     1       8.623  -0.844  21.946  0.00  0.00    +0.015 A 
ATOM      4  C   UNL     1       7.772  -0.594  23.044  0.00  0.00    +0.047 A 
ATOM      5  C   UNL     1       6.891  -1.678  23.627  0.00  0.00    +0.196 C 
ATOM      6  C   UNL     1       5.963  -1.173  24.713  0.00  0.00    +0.047 A 
ATOM      7  C   UNL     1       4.993  -2.010  25.302  0.00  0.00    +0.015 A 
ATOM      8  C   UNL     1       4.206  -1.559  26.360  0.00  0.00    +0.046 A 
ATOM      9  C   UNL     1       4.370  -0.263  26.828  0.00  0.00    +0.120 A 
ATOM     10  C   UNL     1       5.304   0.589  26.251  0.00  0.00    +0.092 A 
ATOM     11  C   UNL     1       6.099   0.132  25.193  0.00  0.00    +0.140 A 
ATOM     12  O   UNL     1       7.004   1.037  24.693  0.00  0.00    -0.455 OA
ATOM     13  C   UNL     1       7.679  -2.868  24.079  0.00  0.00    +0.019 A 
ATOM     14  C   UNL     1       7.318  -3.962  23.319  0.00  0.00    +0.067 A 
ATOM     15  C   UNL     1       7.862  -5.218  23.516  0.00  0.00    +0.015 A 
ATOM     16  C   UNL     1       8.811  -5.357  24.530  0.00  0.00    +0.001 A 
ATOM     17  C   UNL     1       9.190  -4.249  25.310  0.00  0.00    +0.000 A 
ATOM     18  C   UNL     1       6.311  -3.553  22.350  0.00  0.00    +0.341 C 
ATOM     19  O   UNL     1       5.782  -4.264  21.520  0.00  0.00    -0.245 OA
ATOM     20  C   UNL     1       8.624  -2.992  25.087  0.00  0.00    +0.009 A 
ATOM     21  O   UNL     1       6.078  -2.224  22.553  0.00  0.00    -0.440 OA
ATOM     22  C   UNL     1       7.782   0.679  23.619  0.00  0.00    +0.140 A 
ATOM     23  C   UNL     1       8.625   1.681  23.121  0.00  0.00    +0.092 A 
ENDROOT
BRANCH   1  24
ATOM     24  O   UNL     1      10.307   2.344  21.536  0.00  0.00    -0.507 OA
ATOM     25  H   UNL     1      10.615   2.916  22.257  0.00  0.00    +0.292 HD
ENDBRANCH   1  24
BRANCH   9  26
ATOM     26  O   UNL     1       3.588   0.132  27.872  0.00  0.00    -0.507 OA
ATOM     27  H   UNL     1       3.723   1.082  28.025  0.00  0.00    +0.292 HD
ENDBRANCH   9  26
TORSDOF 2
ENDMDL
MODEL 4
REMARK VINA RESULT:      -7.1      1.356      1.393
REMARK  Name = 
REMARK  2 active torsions:
REMARK  status: ('A' for Active; 'I' for Inactive)
REMARK    1  A    between atoms: O_1  and  C_2
REMARK    2  A    between atoms: C_22  and  O_23
REMARK                            x       y       z     vdW  Elec       q    Type
REMARK                         _______ _______ _______ _____ _____    ______ ____
ROOT
ATOM      1  C   UNL     1       4.774  -1.698  27.990  0.00  0.00    +0.120 A 
ATOM      2  C   UNL     1       4.975  -2.996  27.543  0.00  0.00    +0.046 A 
ATOM      3  C   UNL     1       5.967  -3.251  26.598  0.00  0.00    +0.015 A 
ATOM      4  C   UNL     1       6.760  -2.205  26.081  0.00  0.00    +0.047 A 
ATOM      5  C   UNL     1       7.801  -2.456  25.010  0.00  0.00    +0.196 C 
ATOM      6  C   UNL     1       8.629  -1.229  24.686  0.00  0.00    +0.047 A 
ATOM      7  C   UNL     1       9.719  -1.291  23.792  0.00  0.00    +0.015 A 
ATOM      8  C   UNL     1      10.417  -0.140  23.435  0.00  0.00    +0.046 A 
ATOM      9  C   UNL     1      10.045   1.081  23.979  0.00  0.00    +0.120 A 
ATOM     10  C   UNL     1       8.989   1.166  24.879  0.00  0.00    +0.092 A 
ATOM     11  C   UNL     1       8.283   0.009  25.231  0.00  0.00    +0.140 A 
ATOM     12  O   UNL     1       7.247   0.189  26.116  0.00  0.00    -0.455 OA
ATOM     13  C   UNL     1       7.212  -3.070  23.778  0.00  0.00    +0.019 A 
ATOM     14  C   UNL     1       7.749  -4.330  23.603  0.00  0.00    +0.067 A 
ATOM     15  C   UNL     1       7.413  -5.140  22.534  0.00  0.00    +0.015 A 
ATOM     16  C   UNL     1       6.492  -4.640  21.611  0.00  0.00    +0.001 A 
ATOM     17  C   UNL     1       5.936  -3.359  21.780  0.00  0.00    +0.000 A 
ATOM     18  C   UNL     1       8.681  -4.602  24.688  0.00  0.00    +0.341 C 
ATOM     19  O   UNL     1       9.322  -5.620  24.846  0.00  0.00    -0.245 OA
ATOM     20  C   UNL     1       6.294  -2.564  22.871  0.00  0.00    +0.009 A 
ATOM     21  O   UNL     1       8.697  -3.496  25.488  0.00  0.00    -0.440 OA
ATOM     22  C   UNL     1       6.542  -0.908  26.550  0.00  0.00    +0.140 A 
ATOM     23  C   UNL     1       5.552  -0.651  27.506  0.00  0.00    +0.092 A 
ENDROOT
BRANCH   1  24
ATOM     24  O   UNL     1       3.793  -1.494  28.914  0.00  0.00    -0.507 OA
ATOM     25  H   UNL     1       3.583  -2.339  29.342  0.00  0.00    +0.292 HD
ENDBRANCH   1  24
BRANCH   9  26
ATOM     26  O   UNL     1      10.747   2.182  23.593  0.00  0.00    -0.507 OA
ATOM     27  H   UNL     1      11.405   1.919  22.926  0.00  0.00    +0.292 HD
ENDBRANCH   9  26
TORSDOF 2
ENDMDL
MODEL 5
REMARK VINA RESULT:      -7.0      3.744      7.207
REMARK  Name = 
REMARK  2 active torsions:
REMARK  status: ('A' for Active; 'I' for Inactive)
REMARK    1  A    between atoms: O_1  and  C_2
REMARK    2  A    between atoms: C_22  and  O_23
REMARK                            x       y       z     vdW  Elec       q    Type
REMARK                         _______ _______ _______ _____ _____    ______ ____
ROOT
ATOM      1  C   UNL     1       9.091  -3.969  24.713  0.00  0.00    +0.120 A 
ATOM      2  C   UNL     1       9.073  -3.983  26.100  0.00  0.00    +0.046 A 
ATOM      3  C   UNL     1       7.999  -4.568  26.767  0.00  0.00    +0.015 A 
ATOM      4  C   UNL     1       6.923  -5.135  26.050  0.00  0.00    +0.047 A 
ATOM      5  C   UNL     1       5.721  -5.722  26.759  0.00  0.00    +0.196 C 
ATOM      6  C   UNL     1       4.742  -6.392  25.816  0.00  0.00    +0.047 A 
ATOM      7  C   UNL     1       3.614  -7.088  26.298  0.00  0.00    +0.015 A 
ATOM      8  C   UNL     1       2.675  -7.625  25.419  0.00  0.00    +0.046 A 
ATOM      9  C   UNL     1       2.862  -7.484  24.052  0.00  0.00    +0.120 A 
ATOM     10  C   UNL     1       3.977  -6.821  23.550  0.00  0.00    +0.092 A 
ATOM     11  C   UNL     1       4.915  -6.276  24.435  0.00  0.00    +0.140 A 
ATOM     12  O   UNL     1       5.977  -5.626  23.852  0.00  0.00    -0.455 OA
ATOM     13  C   UNL     1       5.042  -4.725  27.647  0.00  0.00    +0.019 A 
ATOM     14  C   UNL     1       5.139  -5.150  28.956  0.00  0.00    +0.067 A 
ATOM     15  C   UNL     1       4.587  -4.446  30.011  0.00  0.00    +0.015 A 
ATOM     16  C   UNL     1       3.912  -3.262  29.710  0.00  0.00    +0.001 A 
ATOM     17  C   UNL     1       3.809  -2.816  28.381  0.00  0.00    +0.000 A 
ATOM     18  C   UNL     1       5.875  -6.406  28.993  0.00  0.00    +0.341 C 
ATOM     19  O   UNL     1       6.147  -7.051  29.984  0.00  0.00    -0.245 OA
ATOM     20  C   UNL     1       4.378  -3.548  27.336  0.00  0.00    +0.009 A 
ATOM     21  O   UNL     1       6.196  -6.718  27.704  0.00  0.00    -0.440 OA
ATOM     22  C   UNL     1       6.967  -5.113  24.654  0.00  0.00    +0.140 A 
ATOM     23  C   UNL     1       8.050  -4.533  23.982  0.00  0.00    +0.092 A 
ENDROOT
BRANCH   1  24
ATOM     24  O   UNL     1      10.160  -3.385  24.102  0.00  0.00    -0.507 OA
ATOM     25  H   UNL     1       9.896  -2.511  23.772  0.00  0.00    +0.292 HD
ENDBRANCH   1  24
BRANCH   9  26
ATOM     26  O   UNL     1       1.913  -8.013  23.229  0.00  0.00    -0.507 OA
ATOM     27  H   UNL     1       2.196  -7.896  22.306  0.00  0.00    +0.292 HD
ENDBRANCH   9  26
TORSDOF 2
ENDMDL
MODEL 6
REMARK VINA RESULT:      -7.0      3.441      6.836
REMARK  Name = 
REMARK  2 active torsions:
REMARK  status: ('A' for Active; 'I' for Inactive)
REMARK    1  A    between atoms: O_1  and  C_2
REMARK    2  A    between atoms: C_22  and  O_23
REMARK                            x       y       z     vdW  Elec       q    Type
REMARK                         _______ _______ _______ _____ _____    ______ ____
ROOT
ATOM      1  C   UNL     1       6.086  -5.568  21.308  0.00  0.00    +0.120 A 
ATOM      2  C   UNL     1       7.227  -4.890  21.707  0.00  0.00    +0.046 A 
ATOM      3  C   UNL     1       7.487  -4.721  23.066  0.00  0.00    +0.015 A 
ATOM      4  C   UNL     1       6.596  -5.220  24.041  0.00  0.00    +0.047 A 
ATOM      5  C   UNL     1       6.832  -4.994  25.519  0.00  0.00    +0.196 C 
ATOM      6  C   UNL     1       5.833  -5.718  26.399  0.00  0.00    +0.047 A 
ATOM      7  C   UNL     1       5.952  -5.715  27.805  0.00  0.00    +0.015 A 
ATOM      8  C   UNL     1       4.979  -6.310  28.605  0.00  0.00    +0.046 A 
ATOM      9  C   UNL     1       3.888  -6.925  28.011  0.00  0.00    +0.120 A 
ATOM     10  C   UNL     1       3.758  -6.960  26.627  0.00  0.00    +0.092 A 
ATOM     11  C   UNL     1       4.732  -6.357  25.824  0.00  0.00    +0.140 A 
ATOM     12  O   UNL     1       4.515  -6.427  24.468  0.00  0.00    -0.455 OA
ATOM     13  C   UNL     1       6.924  -3.540  25.863  0.00  0.00    +0.019 A 
ATOM     14  C   UNL     1       8.191  -3.269  26.338  0.00  0.00    +0.067 A 
ATOM     15  C   UNL     1       8.576  -2.010  26.759  0.00  0.00    +0.015 A 
ATOM     16  C   UNL     1       7.626  -0.990  26.690  0.00  0.00    +0.001 A 
ATOM     17  C   UNL     1       6.332  -1.251  26.205  0.00  0.00    +0.000 A 
ATOM     18  C   UNL     1       8.975  -4.496  26.318  0.00  0.00    +0.341 C 
ATOM     19  O   UNL     1      10.134  -4.615  26.661  0.00  0.00    -0.245 OA
ATOM     20  C   UNL     1       5.972  -2.534  25.786  0.00  0.00    +0.009 A 
ATOM     21  O   UNL     1       8.161  -5.483  25.843  0.00  0.00    -0.440 OA
ATOM     22  C   UNL     1       5.455  -5.904  23.614  0.00  0.00    +0.140 A 
ATOM     23  C   UNL     1       5.198  -6.082  22.249  0.00  0.00    +0.092 A 
ENDROOT
BRANCH   1  24
ATOM     24  O   UNL     1       5.871  -5.709  19.970  0.00  0.00    -0.507 OA
ATOM     25  H   UNL     1       5.310  -6.487  19.821  0.00  0.00    +0.292 HD
ENDBRANCH   1  24
BRANCH   9  26
ATOM     26  O   UNL     1       2.955  -7.483  28.832  0.00  0.00    -0.507 OA
ATOM     27  H   UNL     1       3.288  -8.339  29.151  0.00  0.00    +0.292 HD
ENDBRANCH   9  26
TORSDOF 2
ENDMDL
MODEL 7
REMARK VINA RESULT:      -6.9      2.243      5.066
REMARK  Name = 
REMARK  2 active torsions:
REMARK  status: ('A' for Active; 'I' for Inactive)
REMARK    1  A    between atoms: O_1  and  C_2
REMARK    2  A    between atoms: C_22  and  O_23
REMARK                            x       y       z     vdW  Elec       q    Type
REMARK                         _______ _______ _______ _____ _____    ______ ____
ROOT
ATOM      1  C   UNL     1       6.103  -5.547  21.516  0.00  0.00    +0.120 A 
ATOM      2  C   UNL     1       5.017  -5.558  22.378  0.00  0.00    +0.046 A 
ATOM      3  C   UNL     1       5.011  -4.711  23.485  0.00  0.00    +0.015 A 
ATOM      4  C   UNL     1       6.101  -3.854  23.747  0.00  0.00    +0.047 A 
ATOM      5  C   UNL     1       6.137  -2.972  24.977  0.00  0.00    +0.196 C 
ATOM      6  C   UNL     1       7.329  -2.037  25.005  0.00  0.00    +0.047 A 
ATOM      7  C   UNL     1       7.480  -1.065  26.017  0.00  0.00    +0.015 A 
ATOM      8  C   UNL     1       8.624  -0.272  26.081  0.00  0.00    +0.046 A 
ATOM      9  C   UNL     1       9.619  -0.431  25.128  0.00  0.00    +0.120 A 
ATOM     10  C   UNL     1       9.485  -1.366  24.108  0.00  0.00    +0.092 A 
ATOM     11  C   UNL     1       8.340  -2.167  24.049  0.00  0.00    +0.140 A 
ATOM     12  O   UNL     1       8.298  -3.074  23.017  0.00  0.00    -0.455 OA
ATOM     13  C   UNL     1       6.019  -3.759  26.245  0.00  0.00    +0.019 A 
ATOM     14  C   UNL     1       4.851  -3.405  26.888  0.00  0.00    +0.067 A 
ATOM     15  C   UNL     1       4.473  -3.950  28.101  0.00  0.00    +0.015 A 
ATOM     16  C   UNL     1       5.326  -4.894  28.676  0.00  0.00    +0.001 A 
ATOM     17  C   UNL     1       6.518  -5.267  28.029  0.00  0.00    +0.000 A 
ATOM     18  C   UNL     1       4.157  -2.403  26.090  0.00  0.00    +0.341 C 
ATOM     19  O   UNL     1       3.096  -1.880  26.359  0.00  0.00    -0.245 OA
ATOM     20  C   UNL     1       6.872  -4.700  26.803  0.00  0.00    +0.009 A 
ATOM     21  O   UNL     1       4.928  -2.166  24.989  0.00  0.00    -0.440 OA
ATOM     22  C   UNL     1       7.181  -3.859  22.861  0.00  0.00    +0.140 A 
ATOM     23  C   UNL     1       7.185  -4.702  21.744  0.00  0.00    +0.092 A 
ENDROOT
BRANCH   1  24
ATOM     24  O   UNL     1       6.068  -6.392  20.447  0.00  0.00    -0.507 OA
ATOM     25  H   UNL     1       6.020  -5.867  19.632  0.00  0.00    +0.292 HD
ENDBRANCH   1  24
BRANCH   9  26
ATOM     26  O   UNL     1      10.725   0.358  25.236  0.00  0.00    -0.507 OA
ATOM     27  H   UNL     1      11.081   0.526  24.347  0.00  0.00    +0.292 HD
ENDBRANCH   9  26
TORSDOF 2
ENDMDL
MODEL 8
REMARK VINA RESULT:      -6.9      3.581      7.148
REMARK  Name = 
REMARK  2 active torsions:
REMARK  status: ('A' for Active; 'I' for Inactive)
REMARK    1  A    between atoms: O_1  and  C_2
REMARK    2  A    between atoms: C_22  and  O_23
REMARK                            x       y       z     vdW  Elec       q    Type
REMARK                         _______ _______ _______ _____ _____    ______ ____
ROOT
ATOM      1  C   UNL     1       8.474  -1.054  22.633  0.00  0.00    +0.120 A 
ATOM      2  C   UNL     1       7.193  -0.545  22.786  0.00  0.00    +0.046 A 
ATOM      3  C   UNL     1       7.021   0.811  23.061  0.00  0.00    +0.015 A 
ATOM      4  C   UNL     1       8.133   1.668  23.199  0.00  0.00    +0.047 A 
ATOM      5  C   UNL     1       7.966   3.130  23.555  0.00  0.00    +0.196 C 
ATOM      6  C   UNL     1       9.270   3.902  23.528  0.00  0.00    +0.047 A 
ATOM      7  C   UNL     1       9.303   5.298  23.728  0.00  0.00    +0.015 A 
ATOM      8  C   UNL     1      10.516   5.983  23.788  0.00  0.00    +0.046 A 
ATOM      9  C   UNL     1      11.703   5.283  23.633  0.00  0.00    +0.120 A 
ATOM     10  C   UNL     1      11.697   3.911  23.413  0.00  0.00    +0.092 A 
ATOM     11  C   UNL     1      10.479   3.223  23.360  0.00  0.00    +0.140 A 
ATOM     12  O   UNL     1      10.568   1.867  23.153  0.00  0.00    -0.455 OA
ATOM     13  C   UNL     1       7.236   3.319  24.849  0.00  0.00    +0.019 A 
ATOM     14  C   UNL     1       6.044   3.970  24.602  0.00  0.00    +0.067 A 
ATOM     15  C   UNL     1       5.156   4.306  25.607  0.00  0.00    +0.015 A 
ATOM     16  C   UNL     1       5.504   3.961  26.914  0.00  0.00    +0.001 A 
ATOM     17  C   UNL     1       6.714   3.295  27.179  0.00  0.00    +0.000 A 
ATOM     18  C   UNL     1       5.932   4.223  23.172  0.00  0.00    +0.341 C 
ATOM     19  O   UNL     1       5.005   4.770  22.610  0.00  0.00    -0.245 OA
ATOM     20  C   UNL     1       7.591   2.967  26.143  0.00  0.00    +0.009 A 
ATOM     21  O   UNL     1       7.063   3.730  22.588  0.00  0.00    -0.440 OA
ATOM     22  C   UNL     1       9.413   1.132  23.036  0.00  0.00    +0.140 A 
ATOM     23  C   UNL     1       9.587  -0.228  22.751  0.00  0.00    +0.092 A 
ENDROOT
BRANCH   1  24
ATOM     24  O   UNL     1       8.596  -2.385  22.367  0.00  0.00    -0.507 OA
ATOM     25  H   UNL     1       8.516  -2.523  21.410  0.00  0.00    +0.292 HD
ENDBRANCH   1  24
BRANCH   9  26
ATOM     26  O   UNL     1      12.865   5.991  23.710  0.00  0.00    -0.507 OA
ATOM     27  H   UNL     1      12.653   6.938  23.778  0.00  0.00    +0.292 HD
ENDBRANCH   9  26
TORSDOF 2
ENDMDL
MODEL 9
REMARK VINA RESULT:      -6.8      4.349      8.682
REMARK  Name = 
REMARK  2 active torsions:
REMARK  status: ('A' for Active; 'I' for Inactive)
REMARK    1  A    between atoms: O_1  and  C_2
REMARK    2  A    between atoms: C_22  and  O_23
REMARK                            x       y       z     vdW  Elec       q    Type
REMARK                         _______ _______ _______ _____ _____    ______ ____
ROOT
ATOM      1  C   UNL     1      12.663   4.986  23.341  0.00  0.00    +0.120 A 
ATOM      2  C   UNL     1      11.907   5.973  23.956  0.00  0.00    +0.046 A 
ATOM      3  C   UNL     1      10.576   5.717  24.279  0.00  0.00    +0.015 A 
ATOM      4  C   UNL     1       9.983   4.472  23.977  0.00  0.00    +0.047 A 
ATOM      5  C   UNL     1       8.523   4.199  24.267  0.00  0.00    +0.196 C 
ATOM      6  C   UNL     1       8.118   2.766  23.987  0.00  0.00    +0.047 A 
ATOM      7  C   UNL     1       6.826   2.291  24.296  0.00  0.00    +0.015 A 
ATOM      8  C   UNL     1       6.439   0.997  23.953  0.00  0.00    +0.046 A 
ATOM      9  C   UNL     1       7.342   0.161  23.314  0.00  0.00    +0.120 A 
ATOM     10  C   UNL     1       8.629   0.597  23.018  0.00  0.00    +0.092 A 
ATOM     11  C   UNL     1       9.014   1.899  23.356  0.00  0.00    +0.140 A 
ATOM     12  O   UNL     1      10.299   2.249  23.014  0.00  0.00    -0.455 OA
ATOM     13  C   UNL     1       7.616   5.175  23.585  0.00  0.00    +0.019 A 
ATOM     14  C   UNL     1       6.942   5.907  24.541  0.00  0.00    +0.067 A 
ATOM     15  C   UNL     1       6.012   6.879  24.217  0.00  0.00    +0.015 A 
ATOM     16  C   UNL     1       5.766   7.108  22.863  0.00  0.00    +0.001 A 
ATOM     17  C   UNL     1       6.448   6.371  21.878  0.00  0.00    +0.000 A 
ATOM     18  C   UNL     1       7.370   5.467  25.861  0.00  0.00    +0.341 C 
ATOM     19  O   UNL     1       6.983   5.906  26.925  0.00  0.00    -0.245 OA
ATOM     20  C   UNL     1       7.383   5.396  22.235  0.00  0.00    +0.009 A 
ATOM     21  O   UNL     1       8.284   4.472  25.674  0.00  0.00    -0.440 OA
ATOM     22  C   UNL     1      10.767   3.493  23.361  0.00  0.00    +0.140 A 
ATOM     23  C   UNL     1      12.107   3.746  23.044  0.00  0.00    +0.092 A 
ENDROOT
BRANCH   1  24
ATOM     24  O   UNL     1      13.960   5.280  23.042  0.00  0.00    -0.507 OA
ATOM     25  H   UNL     1      14.002   6.174  22.668  0.00  0.00    +0.292 HD
ENDBRANCH   1  24
BRANCH   9  26
ATOM     26  O   UNL     1       6.917  -1.092  22.987  0.00  0.00    -0.507 OA
ATOM     27  H   UNL     1       7.214  -1.714  23.673  0.00  0.00    +0.292 HD
ENDBRANCH   9  26
TORSDOF 2
ENDMDL
