MODEL 1
REMARK VINA RESULT:      -7.2      0.000      0.000
REMARK  Name = 
REMARK  5 active torsions:
REMARK  status: ('A' for Active; 'I' for Inactive)
REMARK    1  A    between atoms: C_1  and  N_2
REMARK    2  A    between atoms: N_5  and  C_8
REMARK    3  A    between atoms: C_11  and  C_14
REMARK    4  A    between atoms: C_20  and  N_21
REMARK    5  A    between atoms: C_22  and  C_24
REMARK                            x       y       z     vdW  Elec       q    Type
REMARK                         _______ _______ _______ _____ _____    ______ ____
ROOT
ATOM      1  C   UNL     1       7.536  -2.876  23.798  0.00  0.00    +0.001 A 
ATOM      2  C   UNL     1       8.830  -3.410  23.820  0.00  0.00    +0.121 A 
ATOM      3  N   UNL     1       9.999  -2.717  23.829  0.00  0.00    -0.237 NA
ATOM      4  C   UNL     1       9.818  -1.387  23.778  0.00  0.00    +0.140 A 
ATOM      5  N   UNL     1      10.828  -0.472  23.722  0.00  0.00    -0.344 N 
ATOM      6  H   UNL     1      11.809  -0.712  23.719  0.00  0.00    +0.167 HD
ATOM      7  C   UNL     1      10.303   0.792  23.641  0.00  0.00    +0.108 A 
ATOM      8  C   UNL     1       8.926   0.701  23.661  0.00  0.00    +0.061 A 
ATOM      9  C   UNL     1       8.614  -0.692  23.759  0.00  0.00    +0.040 A 
ATOM     10  C   UNL     1       7.444  -1.469  23.809  0.00  0.00    +0.023 A 
ENDROOT
BRANCH   1  14
ATOM     11  C   UNL     1       4.060  -5.497  23.550  0.00  0.00    +0.030 A 
ATOM     12  C   UNL     1       3.955  -4.201  24.071  0.00  0.00    +0.024 A 
ATOM     13  C   UNL     1       5.059  -3.328  24.137  0.00  0.00    +0.010 A 
ATOM     14  C   UNL     1       6.324  -3.718  23.677  0.00  0.00    -0.016 A 
ATOM     15  C   UNL     1       6.415  -5.003  23.122  0.00  0.00    +0.010 A 
ATOM     16  C   UNL     1       5.313  -5.859  23.051  0.00  0.00    +0.024 A 
BRANCH  11  21
ATOM     17  C   UNL     1       0.444  -9.014  23.501  0.00  0.00    +0.105 C 
ATOM     18  N   UNL     1       0.486  -7.755  24.240  0.00  0.00    -0.302 NA
ATOM     19  C   UNL     1       0.559  -6.587  23.329  0.00  0.00    +0.103 C 
ATOM     20  C   UNL     1       1.914  -6.380  22.609  0.00  0.00    +0.120 C 
ATOM     21  N   UNL     1       3.015  -6.394  23.583  0.00  0.00    -0.327 N 
ATOM     22  C   UNL     1       3.027  -7.556  24.486  0.00  0.00    +0.120 C 
ATOM     23  C   UNL     1       1.643  -7.713  25.163  0.00  0.00    +0.103 C 
ENDBRANCH  11  21
ENDBRANCH   1  14
BRANCH   8  24
ATOM     24  N   UNL     1       8.013   1.753  23.572  0.00  0.00    -0.280 N 
ATOM     25  H   UNL     1       7.716   2.161  24.447  0.00  0.00    +0.155 HD
ATOM     26  C   UNL     1       7.561   2.286  22.372  0.00  0.00    +0.250 C 
ATOM     27  O   UNL     1       7.916   1.935  21.251  0.00  0.00    -0.270 OA
BRANCH  26  28
ATOM     28  C   UNL     1       6.580   3.390  22.443  0.00  0.00    +0.055 A 
ATOM     29  C   UNL     1       6.903   4.747  22.450  0.00  0.00    +0.016 A 
ATOM     30  C   UNL     1       5.879   5.685  22.614  0.00  0.00    +0.020 A 
ATOM     31  C   UNL     1       4.573   5.236  22.760  0.00  0.00    +0.111 A 
ATOM     32  N   UNL     1       4.230   3.932  22.750  0.00  0.00    -0.263 NA
ATOM     33  C   UNL     1       5.241   3.042  22.608  0.00  0.00    +0.123 A 
ENDBRANCH  26  28
ENDBRANCH   8  24
TORSDOF 4
ENDMDL
MODEL 2
REMARK VINA RESULT:      -6.9      2.932      3.263
REMARK  Name = 
REMARK  5 active torsions:
REMARK  status: ('A' for Active; 'I' for Inactive)
REMARK    1  A    between atoms: C_1  and  N_2
REMARK    2  A    between atoms: N_5  and  C_8
REMARK    3  A    between atoms: C_11  and  C_14
REMARK    4  A    between atoms: C_20  and  N_21
REMARK    5  A    between atoms: C_22  and  C_24
REMARK                            x       y       z     vdW  Elec       q    Type
REMARK                         _______ _______ _______ _____ _____    ______ ____
ROOT
ATOM      1  C   UNL     1       7.750  -1.019  22.762  0.00  0.00    +0.001 A 
ATOM      2  C   UNL     1       8.514  -0.958  21.590  0.00  0.00    +0.121 A 
ATOM      3  N   UNL     1       9.410   0.006  21.248  0.00  0.00    -0.237 NA
ATOM      4  C   UNL     1       9.494   0.987  22.160  0.00  0.00    +0.140 A 
ATOM      5  N   UNL     1      10.278   2.097  22.031  0.00  0.00    -0.344 N 
ATOM      6  H   UNL     1      10.872   2.279  21.235  0.00  0.00    +0.167 HD
ATOM      7  C   UNL     1      10.104   2.914  23.117  0.00  0.00    +0.108 A 
ATOM      8  C   UNL     1       9.204   2.321  23.979  0.00  0.00    +0.061 A 
ATOM      9  C   UNL     1       8.821   1.083  23.373  0.00  0.00    +0.040 A 
ATOM     10  C   UNL     1       7.953   0.024  23.691  0.00  0.00    +0.023 A 
ENDROOT
BRANCH   1  14
ATOM     11  C   UNL     1       4.858  -4.209  23.445  0.00  0.00    +0.030 A 
ATOM     12  C   UNL     1       4.937  -3.105  24.305  0.00  0.00    +0.024 A 
ATOM     13  C   UNL     1       5.846  -2.050  24.089  0.00  0.00    +0.010 A 
ATOM     14  C   UNL     1       6.719  -2.055  22.993  0.00  0.00    -0.016 A 
ATOM     15  C   UNL     1       6.609  -3.143  22.114  0.00  0.00    +0.010 A 
ATOM     16  C   UNL     1       5.697  -4.180  22.330  0.00  0.00    +0.024 A 
BRANCH  11  21
ATOM     17  C   UNL     1       2.006  -8.319  24.092  0.00  0.00    +0.105 C 
ATOM     18  N   UNL     1       2.363  -7.290  25.066  0.00  0.00    -0.302 NA
ATOM     19  C   UNL     1       1.863  -5.954  24.661  0.00  0.00    +0.103 C 
ATOM     20  C   UNL     1       2.601  -5.293  23.471  0.00  0.00    +0.120 C 
ATOM     21  N   UNL     1       4.051  -5.294  23.708  0.00  0.00    -0.327 N 
ATOM     22  C   UNL     1       4.618  -6.604  24.066  0.00  0.00    +0.120 C 
ATOM     23  C   UNL     1       3.830  -7.214  25.251  0.00  0.00    +0.103 C 
ENDBRANCH  11  21
ENDBRANCH   1  14
BRANCH   8  24
ATOM     24  N   UNL     1       8.733   2.836  25.188  0.00  0.00    -0.280 N 
ATOM     25  H   UNL     1       9.257   2.584  26.014  0.00  0.00    +0.155 HD
ATOM     26  C   UNL     1       7.652   3.701  25.292  0.00  0.00    +0.250 C 
ATOM     27  O   UNL     1       6.995   4.146  24.355  0.00  0.00    -0.270 OA
BRANCH  26  28
ATOM     28  C   UNL     1       7.264   4.147  26.647  0.00  0.00    +0.055 A 
ATOM     29  C   UNL     1       7.181   5.478  27.057  0.00  0.00    +0.016 A 
ATOM     30  C   UNL     1       6.890   5.756  28.396  0.00  0.00    +0.020 A 
ATOM     31  C   UNL     1       6.688   4.699  29.274  0.00  0.00    +0.111 A 
ATOM     32  N   UNL     1       6.755   3.404  28.904  0.00  0.00    -0.263 NA
ATOM     33  C   UNL     1       7.056   3.159  27.607  0.00  0.00    +0.123 A 
ENDBRANCH  26  28
ENDBRANCH   8  24
TORSDOF 4
ENDMDL
MODEL 3
REMARK VINA RESULT:      -6.8      1.263      1.673
REMARK  Name = 
REMARK  5 active torsions:
REMARK  status: ('A' for Active; 'I' for Inactive)
REMARK    1  A    between atoms: C_1  and  N_2
REMARK    2  A    between atoms: N_5  and  C_8
REMARK    3  A    between atoms: C_11  and  C_14
REMARK    4  A    between atoms: C_20  and  N_21
REMARK    5  A    between atoms: C_22  and  C_24
REMARK                            x       y       z     vdW  Elec       q    Type
REMARK                         _______ _______ _______ _____ _____    ______ ____
ROOT
ATOM      1  C   UNL     1       7.556  -2.186  23.238  0.00  0.00    +0.001 A 
ATOM      2  C   UNL     1       8.930  -2.423  23.105  0.00  0.00    +0.121 A 
ATOM      3  N   UNL     1       9.884  -1.517  22.763  0.00  0.00    -0.237 NA
ATOM      4  C   UNL     1       9.381  -0.298  22.508  0.00  0.00    +0.140 A 
ATOM      5  N   UNL     1      10.119   0.772  22.094  0.00  0.00    -0.344 N 
ATOM      6  H   UNL     1      11.118   0.745  21.944  0.00  0.00    +0.167 HD
ATOM      7  C   UNL     1       9.297   1.850  21.890  0.00  0.00    +0.108 A 
ATOM      8  C   UNL     1       8.002   1.482  22.193  0.00  0.00    +0.061 A 
ATOM      9  C   UNL     1       8.055   0.111  22.598  0.00  0.00    +0.040 A 
ATOM     10  C   UNL     1       7.128  -0.861  23.013  0.00  0.00    +0.023 A 
ENDROOT
BRANCH   1  14
ATOM     11  C   UNL     1       4.552  -5.273  23.917  0.00  0.00    +0.030 A 
ATOM     12  C   UNL     1       5.822  -5.594  23.421  0.00  0.00    +0.024 A 
ATOM     13  C   UNL     1       6.817  -4.616  23.218  0.00  0.00    +0.010 A 
ATOM     14  C   UNL     1       6.580  -3.266  23.509  0.00  0.00    -0.016 A 
ATOM     15  C   UNL     1       5.320  -2.956  24.041  0.00  0.00    +0.010 A 
ATOM     16  C   UNL     1       4.343  -3.933  24.250  0.00  0.00    +0.024 A 
BRANCH  11  21
ATOM     17  C   UNL     1       1.067  -8.914  24.130  0.00  0.00    +0.105 C 
ATOM     18  N   UNL     1       1.055  -7.597  24.761  0.00  0.00    -0.302 NA
ATOM     19  C   UNL     1       1.096  -6.506  23.757  0.00  0.00    +0.103 C 
ATOM     20  C   UNL     1       2.452  -6.310  23.034  0.00  0.00    +0.120 C 
ATOM     21  N   UNL     1       3.540  -6.203  24.015  0.00  0.00    -0.327 N 
ATOM     22  C   UNL     1       3.583  -7.284  25.012  0.00  0.00    +0.120 C 
ATOM     23  C   UNL     1       2.198  -7.435  25.688  0.00  0.00    +0.103 C 
ENDBRANCH  11  21
ENDBRANCH   1  14
BRANCH   8  24
ATOM     24  N   UNL     1       6.858   2.276  22.094  0.00  0.00    -0.280 N 
ATOM     25  H   UNL     1       6.210   2.036  21.357  0.00  0.00    +0.155 HD
ATOM     26  C   UNL     1       6.552   3.305  22.975  0.00  0.00    +0.250 C 
ATOM     27  O   UNL     1       7.214   3.631  23.956  0.00  0.00    -0.270 OA
BRANCH  26  28
ATOM     28  C   UNL     1       5.309   4.067  22.728  0.00  0.00    +0.055 A 
ATOM     29  C   UNL     1       5.158   5.438  22.935  0.00  0.00    +0.016 A 
ATOM     30  C   UNL     1       3.899   6.015  22.747  0.00  0.00    +0.020 A 
ATOM     31  C   UNL     1       2.840   5.207  22.355  0.00  0.00    +0.111 A 
ATOM     32  N   UNL     1       2.958   3.881  22.140  0.00  0.00    -0.263 NA
ATOM     33  C   UNL     1       4.183   3.341  22.346  0.00  0.00    +0.123 A 
ENDBRANCH  26  28
ENDBRANCH   8  24
TORSDOF 4
ENDMDL
MODEL 4
REMARK VINA RESULT:      -6.7      2.125      9.022
REMARK  Name = 
REMARK  5 active torsions:
REMARK  status: ('A' for Active; 'I' for Inactive)
REMARK    1  A    between atoms: C_1  and  N_2
REMARK    2  A    between atoms: N_5  and  C_8
REMARK    3  A    between atoms: C_11  and  C_14
REMARK    4  A    between atoms: C_20  and  N_21
REMARK    5  A    between atoms: C_22  and  C_24
REMARK                            x       y       z     vdW  Elec       q    Type
REMARK                         _______ _______ _______ _____ _____    ______ ____
ROOT
ATOM      1  C   UNL     1       7.766  -0.766  23.817  0.00  0.00    +0.001 A 
ATOM      2  C   UNL     1       9.159  -0.769  23.967  0.00  0.00    +0.121 A 
ATOM      3  N   UNL     1       9.950  -1.843  24.227  0.00  0.00    -0.237 NA
ATOM      4  C   UNL     1       9.252  -2.981  24.376  0.00  0.00    +0.140 A 
ATOM      5  N   UNL     1       9.803  -4.189  24.695  0.00  0.00    -0.344 N 
ATOM      6  H   UNL     1      10.791  -4.338  24.844  0.00  0.00    +0.167 HD
ATOM      7  C   UNL     1       8.815  -5.132  24.807  0.00  0.00    +0.108 A 
ATOM      8  C   UNL     1       7.600  -4.534  24.541  0.00  0.00    +0.061 A 
ATOM      9  C   UNL     1       7.879  -3.161  24.255  0.00  0.00    +0.040 A 
ATOM     10  C   UNL     1       7.127  -2.019  23.928  0.00  0.00    +0.023 A 
ENDROOT
BRANCH   1  14
ATOM     11  C   UNL     1       5.403   2.832  23.123  0.00  0.00    +0.030 A 
ATOM     12  C   UNL     1       5.171   2.015  24.238  0.00  0.00    +0.024 A 
ATOM     13  C   UNL     1       5.940   0.862  24.496  0.00  0.00    +0.010 A 
ATOM     14  C   UNL     1       6.982   0.477  23.643  0.00  0.00    -0.016 A 
ATOM     15  C   UNL     1       7.235   1.318  22.550  0.00  0.00    +0.010 A 
ATOM     16  C   UNL     1       6.476   2.466  22.307  0.00  0.00    +0.024 A 
BRANCH  11  21
ATOM     17  C   UNL     1       2.502   6.671  21.612  0.00  0.00    +0.105 C 
ATOM     18  N   UNL     1       2.578   6.044  22.929  0.00  0.00    -0.302 NA
ATOM     19  C   UNL     1       3.931   6.174  23.521  0.00  0.00    +0.103 C 
ATOM     20  C   UNL     1       5.033   5.296  22.877  0.00  0.00    +0.120 C 
ATOM     21  N   UNL     1       4.589   3.896  22.804  0.00  0.00    -0.327 N 
ATOM     22  C   UNL     1       3.272   3.696  22.181  0.00  0.00    +0.120 C 
ATOM     23  C   UNL     1       2.222   4.609  22.861  0.00  0.00    +0.103 C 
ENDBRANCH  11  21
ENDBRANCH   1  14
BRANCH   8  24
ATOM     24  N   UNL     1       6.341  -5.137  24.574  0.00  0.00    -0.280 N 
ATOM     25  H   UNL     1       5.916  -5.234  25.486  0.00  0.00    +0.155 HD
ATOM     26  C   UNL     1       5.645  -5.537  23.441  0.00  0.00    +0.250 C 
ATOM     27  O   UNL     1       6.018  -5.393  22.281  0.00  0.00    -0.270 OA
BRANCH  26  28
ATOM     28  C   UNL     1       4.327  -6.178  23.642  0.00  0.00    +0.055 A 
ATOM     29  C   UNL     1       3.128  -5.727  23.090  0.00  0.00    +0.016 A 
ATOM     30  C   UNL     1       1.939  -6.376  23.437  0.00  0.00    +0.020 A 
ATOM     31  C   UNL     1       1.990  -7.450  24.315  0.00  0.00    +0.111 A 
ATOM     32  N   UNL     1       3.135  -7.912  24.857  0.00  0.00    -0.263 NA
ATOM     33  C   UNL     1       4.272  -7.257  24.521  0.00  0.00    +0.123 A 
ENDBRANCH  26  28
ENDBRANCH   8  24
TORSDOF 4
ENDMDL
MODEL 5
REMARK VINA RESULT:      -6.7      1.964      3.309
REMARK  Name = 
REMARK  5 active torsions:
REMARK  status: ('A' for Active; 'I' for Inactive)
REMARK    1  A    between atoms: C_1  and  N_2
REMARK    2  A    between atoms: N_5  and  C_8
REMARK    3  A    between atoms: C_11  and  C_14
REMARK    4  A    between atoms: C_20  and  N_21
REMARK    5  A    between atoms: C_22  and  C_24
REMARK                            x       y       z     vdW  Elec       q    Type
REMARK                         _______ _______ _______ _____ _____    ______ ____
ROOT
ATOM      1  C   UNL     1       8.930  -0.232  24.475  0.00  0.00    +0.001 A 
ATOM      2  C   UNL     1      10.324  -0.268  24.344  0.00  0.00    +0.121 A 
ATOM      3  N   UNL     1      11.151   0.788  24.122  0.00  0.00    -0.237 NA
ATOM      4  C   UNL     1      10.490   1.950  23.992  0.00  0.00    +0.140 A 
ATOM      5  N   UNL     1      11.082   3.147  23.711  0.00  0.00    -0.344 N 
ATOM      6  H   UNL     1      12.076   3.270  23.579  0.00  0.00    +0.167 HD
ATOM      7  C   UNL     1      10.124   4.123  23.609  0.00  0.00    +0.108 A 
ATOM      8  C   UNL     1       8.888   3.556  23.843  0.00  0.00    +0.061 A 
ATOM      9  C   UNL     1       9.121   2.168  24.098  0.00  0.00    +0.040 A 
ATOM     10  C   UNL     1       8.330   1.042  24.387  0.00  0.00    +0.023 A 
ENDROOT
BRANCH   1  14
ATOM     11  C   UNL     1       6.365  -3.725  24.958  0.00  0.00    +0.030 A 
ATOM     12  C   UNL     1       6.807  -3.319  23.692  0.00  0.00    +0.024 A 
ATOM     13  C   UNL     1       7.658  -2.209  23.514  0.00  0.00    +0.010 A 
ATOM     14  C   UNL     1       8.106  -1.455  24.606  0.00  0.00    -0.016 A 
ATOM     15  C   UNL     1       7.691  -1.887  25.875  0.00  0.00    +0.010 A 
ATOM     16  C   UNL     1       6.857  -2.996  26.043  0.00  0.00    +0.024 A 
BRANCH  11  21
ATOM     17  C   UNL     1       2.752  -7.194  25.550  0.00  0.00    +0.105 C 
ATOM     18  N   UNL     1       4.186  -7.391  25.353  0.00  0.00    -0.302 NA
ATOM     19  C   UNL     1       4.979  -6.782  26.449  0.00  0.00    +0.103 C 
ATOM     20  C   UNL     1       5.041  -5.235  26.453  0.00  0.00    +0.120 C 
ATOM     21  N   UNL     1       5.449  -4.739  25.131  0.00  0.00    -0.327 N 
ATOM     22  C   UNL     1       4.666  -5.269  24.003  0.00  0.00    +0.120 C 
ATOM     23  C   UNL     1       4.634  -6.815  24.064  0.00  0.00    +0.103 C 
ENDBRANCH  11  21
ENDBRANCH   1  14
BRANCH   8  24
ATOM     24  N   UNL     1       7.649   4.198  23.809  0.00  0.00    -0.280 N 
ATOM     25  H   UNL     1       7.475   4.871  24.542  0.00  0.00    +0.155 HD
ATOM     26  C   UNL     1       6.705   4.005  22.808  0.00  0.00    +0.250 C 
ATOM     27  O   UNL     1       6.838   3.284  21.825  0.00  0.00    -0.270 OA
BRANCH  26  28
ATOM     28  C   UNL     1       5.431   4.748  22.921  0.00  0.00    +0.055 A 
ATOM     29  C   UNL     1       4.179   4.246  22.565  0.00  0.00    +0.016 A 
ATOM     30  C   UNL     1       3.067   5.090  22.638  0.00  0.00    +0.020 A 
ATOM     31  C   UNL     1       3.243   6.399  23.067  0.00  0.00    +0.111 A 
ATOM     32  N   UNL     1       4.438   6.909  23.425  0.00  0.00    -0.263 NA
ATOM     33  C   UNL     1       5.504   6.078  23.329  0.00  0.00    +0.123 A 
ENDBRANCH  26  28
ENDBRANCH   8  24
TORSDOF 4
ENDMDL
MODEL 6
REMARK VINA RESULT:      -6.6      2.796      9.503
REMARK  Name = 
REMARK  5 active torsions:
REMARK  status: ('A' for Active; 'I' for Inactive)
REMARK    1  A    between atoms: C_1  and  N_2
REMARK    2  A    between atoms: N_5  and  C_8
REMARK    3  A    between atoms: C_11  and  C_14
REMARK    4  A    between atoms: C_20  and  N_21
REMARK    5  A    between atoms: C_22  and  C_24
REMARK                            x       y       z     vdW  Elec       q    Type
REMARK                         _______ _______ _______ _____ _____    ______ ____
ROOT
ATOM      1  C   UNL     1       7.708  -2.486  25.426  0.00  0.00    +0.001 A 
ATOM      2  C   UNL     1       8.728  -2.871  26.305  0.00  0.00    +0.121 A 
ATOM      3  N   UNL     1       8.797  -4.024  27.021  0.00  0.00    -0.237 NA
ATOM      4  C   UNL     1       7.725  -4.814  26.843  0.00  0.00    +0.140 A 
ATOM      5  N   UNL     1       7.524  -6.000  27.487  0.00  0.00    -0.344 N 
ATOM      6  H   UNL     1       8.168  -6.397  28.156  0.00  0.00    +0.167 HD
ATOM      7  C   UNL     1       6.319  -6.533  27.108  0.00  0.00    +0.108 A 
ATOM      8  C   UNL     1       5.731  -5.689  26.189  0.00  0.00    +0.061 A 
ATOM      9  C   UNL     1       6.633  -4.594  26.010  0.00  0.00    +0.040 A 
ATOM     10  C   UNL     1       6.654  -3.408  25.255  0.00  0.00    +0.023 A 
ENDROOT
BRANCH   1  14
ATOM     11  C   UNL     1       7.513   1.501  23.672  0.00  0.00    +0.030 A 
ATOM     12  C   UNL     1       8.730   0.817  23.784  0.00  0.00    +0.024 A 
ATOM     13  C   UNL     1       8.813  -0.483  24.324  0.00  0.00    +0.010 A 
ATOM     14  C   UNL     1       7.671  -1.157  24.775  0.00  0.00    -0.016 A 
ATOM     15  C   UNL     1       6.450  -0.483  24.626  0.00  0.00    +0.010 A 
ATOM     16  C   UNL     1       6.375   0.801  24.079  0.00  0.00    +0.024 A 
BRANCH  11  21
ATOM     17  C   UNL     1       7.379   6.189  21.815  0.00  0.00    +0.105 C 
ATOM     18  N   UNL     1       6.731   5.660  23.012  0.00  0.00    -0.302 NA
ATOM     19  C   UNL     1       7.721   5.154  23.994  0.00  0.00    +0.103 C 
ATOM     20  C   UNL     1       8.429   3.830  23.613  0.00  0.00    +0.120 C 
ATOM     21  N   UNL     1       7.436   2.810  23.249  0.00  0.00    -0.327 N 
ATOM     22  C   UNL     1       6.453   3.235  22.240  0.00  0.00    +0.120 C 
ATOM     23  C   UNL     1       5.792   4.566  22.675  0.00  0.00    +0.103 C 
ENDBRANCH  11  21
ENDBRANCH   1  14
BRANCH   8  24
ATOM     24  N   UNL     1       4.487  -5.850  25.575  0.00  0.00    -0.280 N 
ATOM     25  H   UNL     1       3.683  -5.567  26.117  0.00  0.00    +0.155 HD
ATOM     26  C   UNL     1       4.320  -6.306  24.274  0.00  0.00    +0.250 C 
ATOM     27  O   UNL     1       5.222  -6.595  23.493  0.00  0.00    -0.270 OA
BRANCH  26  28
ATOM     28  C   UNL     1       2.936  -6.438  23.771  0.00  0.00    +0.055 A 
ATOM     29  C   UNL     1       2.203  -7.625  23.752  0.00  0.00    +0.016 A 
ATOM     30  C   UNL     1       0.935  -7.627  23.163  0.00  0.00    +0.020 A 
ATOM     31  C   UNL     1       0.443  -6.447  22.621  0.00  0.00    +0.111 A 
ATOM     32  N   UNL     1       1.125  -5.284  22.633  0.00  0.00    -0.263 NA
ATOM     33  C   UNL     1       2.358  -5.311  23.192  0.00  0.00    +0.123 A 
ENDBRANCH  26  28
ENDBRANCH   8  24
TORSDOF 4
ENDMDL
MODEL 7
REMARK VINA RESULT:      -6.6      3.866      9.658
REMARK  Name = 
REMARK  5 active torsions:
REMARK  status: ('A' for Active; 'I' for Inactive)
REMARK    1  A    between atoms: C_1  and  N_2
REMARK    2  A    between atoms: N_5  and  C_8
REMARK    3  A    between atoms: C_11  and  C_14
REMARK    4  A    between atoms: C_20  and  N_21
REMARK    5  A    between atoms: C_22  and  C_24
REMARK                            x       y       z     vdW  Elec       q    Type
REMARK                         _______ _______ _______ _____ _____    ______ ____
ROOT
ATOM      1  C   UNL     1       8.649  -1.538  24.350  0.00  0.00    +0.001 A 
ATOM      2  C   UNL     1       9.789  -2.156  23.822  0.00  0.00    +0.121 A 
ATOM      3  N   UNL     1      10.223  -3.420  24.072  0.00  0.00    -0.237 NA
ATOM      4  C   UNL     1       9.447  -4.073  24.953  0.00  0.00    +0.140 A 
ATOM      5  N   UNL     1       9.693  -5.334  25.412  0.00  0.00    -0.344 N 
ATOM      6  H   UNL     1      10.484  -5.895  25.129  0.00  0.00    +0.167 HD
ATOM      7  C   UNL     1       8.733  -5.689  26.324  0.00  0.00    +0.108 A 
ATOM      8  C   UNL     1       7.835  -4.649  26.449  0.00  0.00    +0.061 A 
ATOM      9  C   UNL     1       8.284  -3.619  25.565  0.00  0.00    +0.040 A 
ATOM     10  C   UNL     1       7.860  -2.324  25.216  0.00  0.00    +0.023 A 
ENDROOT
BRANCH   1  14
ATOM     11  C   UNL     1       7.488   2.599  23.610  0.00  0.00    +0.030 A 
ATOM     12  C   UNL     1       8.259   2.251  24.727  0.00  0.00    +0.024 A 
ATOM     13  C   UNL     1       8.668   0.925  24.972  0.00  0.00    +0.010 A 
ATOM     14  C   UNL     1       8.320  -0.116  24.101  0.00  0.00    -0.016 A 
ATOM     15  C   UNL     1       7.581   0.244  22.964  0.00  0.00    +0.010 A 
ATOM     16  C   UNL     1       7.189   1.563  22.722  0.00  0.00    +0.024 A 
BRANCH  11  21
ATOM     17  C   UNL     1       5.357   7.108  22.849  0.00  0.00    +0.105 C 
ATOM     18  N   UNL     1       6.670   6.799  23.412  0.00  0.00    -0.302 NA
ATOM     19  C   UNL     1       7.528   6.081  22.439  0.00  0.00    +0.103 C 
ATOM     20  C   UNL     1       7.138   4.609  22.157  0.00  0.00    +0.120 C 
ATOM     21  N   UNL     1       6.993   3.871  23.420  0.00  0.00    -0.327 N 
ATOM     22  C   UNL     1       6.113   4.508  24.411  0.00  0.00    +0.120 C 
ATOM     23  C   UNL     1       6.548   5.977  24.637  0.00  0.00    +0.103 C 
ENDBRANCH  11  21
ENDBRANCH   1  14
BRANCH   8  24
ATOM     24  N   UNL     1       6.724  -4.595  27.292  0.00  0.00    -0.280 N 
ATOM     25  H   UNL     1       6.637  -3.766  27.863  0.00  0.00    +0.155 HD
ATOM     26  C   UNL     1       5.734  -5.568  27.331  0.00  0.00    +0.250 C 
ATOM     27  O   UNL     1       5.685  -6.571  26.626  0.00  0.00    -0.270 OA
BRANCH  26  28
ATOM     28  C   UNL     1       4.626  -5.375  28.292  0.00  0.00    +0.055 A 
ATOM     29  C   UNL     1       3.372  -5.979  28.198  0.00  0.00    +0.016 A 
ATOM     30  C   UNL     1       2.386  -5.636  29.127  0.00  0.00    +0.020 A 
ATOM     31  C   UNL     1       2.686  -4.710  30.117  0.00  0.00    +0.111 A 
ATOM     32  N   UNL     1       3.891  -4.116  30.237  0.00  0.00    -0.263 NA
ATOM     33  C   UNL     1       4.825  -4.450  29.315  0.00  0.00    +0.123 A 
ENDBRANCH  26  28
ENDBRANCH   8  24
TORSDOF 4
ENDMDL
MODEL 8
REMARK VINA RESULT:      -6.3      2.425      4.881
REMARK  Name = 
REMARK  5 active torsions:
REMARK  status: ('A' for Active; 'I' for Inactive)
REMARK    1  A    between atoms: C_1  and  N_2
REMARK    2  A    between atoms: N_5  and  C_8
REMARK    3  A    between atoms: C_11  and  C_14
REMARK    4  A    between atoms: C_20  and  N_21
REMARK    5  A    between atoms: C_22  and  C_24
REMARK                            x       y       z     vdW  Elec       q    Type
REMARK                         _______ _______ _______ _____ _____    ______ ____
ROOT
ATOM      1  C   UNL     1       8.000   1.836  23.755  0.00  0.00    +0.001 A 
ATOM      2  C   UNL     1       9.332   2.219  23.957  0.00  0.00    +0.121 A 
ATOM      3  N   UNL     1       9.861   3.459  23.780  0.00  0.00    -0.237 NA
ATOM      4  C   UNL     1       8.962   4.351  23.332  0.00  0.00    +0.140 A 
ATOM      5  N   UNL     1       9.249   5.649  23.023  0.00  0.00    -0.344 N 
ATOM      6  H   UNL     1      10.167   6.060  23.108  0.00  0.00    +0.167 HD
ATOM      7  C   UNL     1       8.120   6.274  22.561  0.00  0.00    +0.108 A 
ATOM      8  C   UNL     1       7.074   5.374  22.583  0.00  0.00    +0.061 A 
ATOM      9  C   UNL     1       7.608   4.146  23.086  0.00  0.00    +0.040 A 
ATOM     10  C   UNL     1       7.115   2.855  23.345  0.00  0.00    +0.023 A 
ENDROOT
BRANCH   1  14
ATOM     11  C   UNL     1       6.495  -2.249  23.991  0.00  0.00    +0.030 A 
ATOM     12  C   UNL     1       7.760  -1.972  23.456  0.00  0.00    +0.024 A 
ATOM     13  C   UNL     1       8.278  -0.663  23.394  0.00  0.00    +0.010 A 
ATOM     14  C   UNL     1       7.545   0.432  23.870  0.00  0.00    -0.016 A 
ATOM     15  C   UNL     1       6.295   0.145  24.439  0.00  0.00    +0.010 A 
ATOM     16  C   UNL     1       5.794  -1.158  24.507  0.00  0.00    +0.024 A 
BRANCH  11  21
ATOM     17  C   UNL     1       4.543  -6.896  24.206  0.00  0.00    +0.105 C 
ATOM     18  N   UNL     1       4.393  -5.887  23.160  0.00  0.00    -0.302 NA
ATOM     19  C   UNL     1       5.697  -5.532  22.549  0.00  0.00    +0.103 C 
ATOM     20  C   UNL     1       6.645  -4.686  23.435  0.00  0.00    +0.120 C 
ATOM     21  N   UNL     1       5.937  -3.508  23.956  0.00  0.00    -0.327 N 
ATOM     22  C   UNL     1       4.656  -3.800  24.619  0.00  0.00    +0.120 C 
ATOM     23  C   UNL     1       3.763  -4.656  23.688  0.00  0.00    +0.103 C 
ENDBRANCH  11  21
ENDBRANCH   1  14
BRANCH   8  24
ATOM     24  N   UNL     1       5.760   5.602  22.170  0.00  0.00    -0.280 N 
ATOM     25  H   UNL     1       5.610   5.651  21.172  0.00  0.00    +0.155 HD
ATOM     26  C   UNL     1       4.681   5.695  23.038  0.00  0.00    +0.250 C 
ATOM     27  O   UNL     1       4.727   5.564  24.257  0.00  0.00    -0.270 OA
BRANCH  26  28
ATOM     28  C   UNL     1       3.351   5.956  22.446  0.00  0.00    +0.055 A 
ATOM     29  C   UNL     1       2.165   5.338  22.844  0.00  0.00    +0.016 A 
ATOM     30  C   UNL     1       0.991   5.611  22.135  0.00  0.00    +0.020 A 
ATOM     31  C   UNL     1       1.042   6.491  21.062  0.00  0.00    +0.111 A 
ATOM     32  N   UNL     1       2.172   7.108  20.661  0.00  0.00    -0.263 NA
ATOM     33  C   UNL     1       3.299   6.814  21.351  0.00  0.00    +0.123 A 
ENDBRANCH  26  28
ENDBRANCH   8  24
TORSDOF 4
ENDMDL
MODEL 9
REMARK VINA RESULT:      -6.3      3.796      9.830
REMARK  Name = 
REMARK  5 active torsions:
REMARK  status: ('A' for Active; 'I' for Inactive)
REMARK    1  A    between atoms: C_1  and  N_2
REMARK    2  A    between atoms: N_5  and  C_8
REMARK    3  A    between atoms: C_11  and  C_14
REMARK    4  A    between atoms: C_20  and  N_21
REMARK    5  A    between atoms: C_22  and  C_24
REMARK                            x       y       z     vdW  Elec       q    Type
REMARK                         _______ _______ _______ _____ _____    ______ ____
ROOT
ATOM      1  C   UNL     1       7.539  -1.679  23.233  0.00  0.00    +0.001 A 
ATOM      2  C   UNL     1       7.848  -2.619  22.241  0.00  0.00    +0.121 A 
ATOM      3  N   UNL     1       7.408  -3.903  22.167  0.00  0.00    -0.237 NA
ATOM      4  C   UNL     1       6.626  -4.247  23.203  0.00  0.00    +0.140 A 
ATOM      5  N   UNL     1       6.099  -5.491  23.394  0.00  0.00    -0.344 N 
ATOM      6  H   UNL     1       6.248  -6.270  22.768  0.00  0.00    +0.167 HD
ATOM      7  C   UNL     1       5.383  -5.516  24.562  0.00  0.00    +0.108 A 
ATOM      8  C   UNL     1       5.428  -4.261  25.136  0.00  0.00    +0.061 A 
ATOM      9  C   UNL     1       6.214  -3.446  24.263  0.00  0.00    +0.040 A 
ATOM     10  C   UNL     1       6.660  -2.112  24.247  0.00  0.00    +0.023 A 
ENDROOT
BRANCH   1  14
ATOM     11  C   UNL     1       9.437   2.232  23.563  0.00  0.00    +0.030 A 
ATOM     12  C   UNL     1       9.704   1.386  22.478  0.00  0.00    +0.024 A 
ATOM     13  C   UNL     1       9.082   0.129  22.338  0.00  0.00    +0.010 A 
ATOM     14  C   UNL     1       8.159  -0.336  23.283  0.00  0.00    -0.016 A 
ATOM     15  C   UNL     1       7.867   0.531  24.347  0.00  0.00    +0.010 A 
ATOM     16  C   UNL     1       8.479   1.781  24.473  0.00  0.00    +0.024 A 
BRANCH  11  21
ATOM     17  C   UNL     1      12.075   6.405  24.599  0.00  0.00    +0.105 C 
ATOM     18  N   UNL     1      11.356   6.057  23.376  0.00  0.00    -0.302 NA
ATOM     19  C   UNL     1       9.905   5.875  23.626  0.00  0.00    +0.103 C 
ATOM     20  C   UNL     1       9.513   4.591  24.399  0.00  0.00    +0.120 C 
ATOM     21  N   UNL     1      10.119   3.412  23.766  0.00  0.00    -0.327 N 
ATOM     22  C   UNL     1      11.569   3.511  23.534  0.00  0.00    +0.120 C 
ATOM     23  C   UNL     1      11.894   4.818  22.771  0.00  0.00    +0.103 C 
ENDBRANCH  11  21
ENDBRANCH   1  14
BRANCH   8  24
ATOM     24  N   UNL     1       4.850  -3.869  26.344  0.00  0.00    -0.280 N 
ATOM     25  H   UNL     1       5.343  -4.140  27.184  0.00  0.00    +0.155 HD
ATOM     26  C   UNL     1       3.702  -3.093  26.437  0.00  0.00    +0.250 C 
ATOM     27  O   UNL     1       3.069  -2.632  25.492  0.00  0.00    -0.270 OA
BRANCH  26  28
ATOM     28  C   UNL     1       3.203  -2.773  27.792  0.00  0.00    +0.055 A 
ATOM     29  C   UNL     1       4.010  -2.511  28.899  0.00  0.00    +0.016 A 
ATOM     30  C   UNL     1       3.405  -2.313  30.144  0.00  0.00    +0.020 A 
ATOM     31  C   UNL     1       2.021  -2.378  30.238  0.00  0.00    +0.111 A 
ATOM     32  N   UNL     1       1.216  -2.622  29.184  0.00  0.00    -0.263 NA
ATOM     33  C   UNL     1       1.825  -2.828  27.992  0.00  0.00    +0.123 A 
ENDBRANCH  26  28
ENDBRANCH   8  24
TORSDOF 4
ENDMDL
