MODEL 1
REMARK VINA RESULT:      -4.0      0.000      0.000
REMARK  Name = 
REMARK  3 active torsions:
REMARK  status: ('A' for Active; 'I' for Inactive)
REMARK    1  A    between atoms: N_1  and  C_2
REMARK    2  A    between atoms: C_2  and  C_3
REMARK    3  A    between atoms: C_3  and  C_4
REMARK                            x       y       z     vdW  Elec       q    Type
REMARK                         _______ _______ _______ _____ _____    ______ ____
ROOT
ATOM      1  C   UNL     1       7.246  -5.382  25.998  0.00  0.00    +0.037 A 
ATOM      2  N   UNL     1       7.884  -5.728  27.162  0.00  0.00    -0.282 N 
ATOM      3  H   UNL     1       8.890  -5.734  27.324  0.00  0.00    +0.189 HD
ATOM      4  N   UNL     1       7.047  -6.073  28.154  0.00  0.00    -0.182 NA
ATOM      5  C   UNL     1       5.838  -5.951  27.599  0.00  0.00    +0.134 A 
ATOM      6  C   UNL     1       5.901  -5.524  26.259  0.00  0.00    +0.044 A 
ENDROOT
BRANCH   1   7
ATOM      7  C   UNL     1       7.995  -4.982  24.770  0.00  0.00    +0.069 C 
BRANCH   7   8
ATOM      8  C   UNL     1       9.407  -4.438  25.047  0.00  0.00    +0.084 C 
BRANCH   8   9
ATOM      9  N   UNL     1      10.363  -5.497  25.406  0.00  0.00    -0.330 NA
ATOM     10  H   UNL     1      11.264  -5.069  25.627  0.00  0.00    +0.118 HD
ATOM     11  H   UNL     1      10.050  -5.940  26.273  0.00  0.00    +0.118 HD
ENDBRANCH   8   9
ENDBRANCH   7   8
ENDBRANCH   1   7
TORSDOF 3
ENDMDL
MODEL 2
REMARK VINA RESULT:      -3.6      3.496      4.421
REMARK  Name = 
REMARK  3 active torsions:
REMARK  status: ('A' for Active; 'I' for Inactive)
REMARK    1  A    between atoms: N_1  and  C_2
REMARK    2  A    between atoms: C_2  and  C_3
REMARK    3  A    between atoms: C_3  and  C_4
REMARK                            x       y       z     vdW  Elec       q    Type
REMARK                         _______ _______ _______ _____ _____    ______ ____
ROOT
ATOM      1  C   UNL     1       7.429  -4.684  22.795  0.00  0.00    +0.037 A 
ATOM      2  N   UNL     1       6.533  -3.850  22.175  0.00  0.00    -0.282 N 
ATOM      3  H   UNL     1       6.381  -2.863  22.381  0.00  0.00    +0.189 HD
ATOM      4  N   UNL     1       5.827  -4.446  21.201  0.00  0.00    -0.182 NA
ATOM      5  C   UNL     1       6.280  -5.702  21.209  0.00  0.00    +0.134 A 
ATOM      6  C   UNL     1       7.277  -5.908  22.181  0.00  0.00    +0.044 A 
ENDROOT
BRANCH   1   7
ATOM      7  C   UNL     1       8.301  -4.223  23.916  0.00  0.00    +0.069 C 
BRANCH   7   8
ATOM      8  C   UNL     1       8.516  -5.276  25.016  0.00  0.00    +0.084 C 
BRANCH   8   9
ATOM      9  N   UNL     1       9.932  -5.637  25.187  0.00  0.00    -0.330 NA
ATOM     10  H   UNL     1      10.004  -6.651  25.297  0.00  0.00    +0.118 HD
ATOM     11  H   UNL     1      10.432  -5.419  24.324  0.00  0.00    +0.118 HD
ENDBRANCH   8   9
ENDBRANCH   7   8
ENDBRANCH   1   7
TORSDOF 3
ENDMDL
MODEL 3
REMARK VINA RESULT:      -3.6      2.698      4.643
REMARK  Name = 
REMARK  3 active torsions:
REMARK  status: ('A' for Active; 'I' for Inactive)
REMARK    1  A    between atoms: N_1  and  C_2
REMARK    2  A    between atoms: C_2  and  C_3
REMARK    3  A    between atoms: C_3  and  C_4
REMARK                            x       y       z     vdW  Elec       q    Type
REMARK                         _______ _______ _______ _____ _____    ______ ____
ROOT
ATOM      1  C   UNL     1       8.684  -3.327  23.790  0.00  0.00    +0.037 A 
ATOM      2  N   UNL     1       9.917  -2.741  23.927  0.00  0.00    -0.282 N 
ATOM      3  H   UNL     1      10.610  -2.948  24.645  0.00  0.00    +0.189 HD
ATOM      4  N   UNL     1      10.184  -1.821  22.986  0.00  0.00    -0.182 NA
ATOM      5  C   UNL     1       9.083  -1.815  22.232  0.00  0.00    +0.134 A 
ATOM      6  C   UNL     1       8.115  -2.732  22.686  0.00  0.00    +0.044 A 
ENDROOT
BRANCH   1   7
ATOM      7  C   UNL     1       8.187  -4.364  24.742  0.00  0.00    +0.069 C 
BRANCH   7   8
ATOM      8  C   UNL     1       9.185  -4.720  25.857  0.00  0.00    +0.084 C 
BRANCH   8   9
ATOM      9  N   UNL     1      10.332  -5.499  25.366  0.00  0.00    -0.330 NA
ATOM     10  H   UNL     1      10.171  -5.742  24.386  0.00  0.00    +0.118 HD
ATOM     11  H   UNL     1      11.159  -4.899  25.367  0.00  0.00    +0.118 HD
ENDBRANCH   8   9
ENDBRANCH   7   8
ENDBRANCH   1   7
TORSDOF 3
ENDMDL
MODEL 4
REMARK VINA RESULT:      -3.6      5.661      7.198
REMARK  Name = 
REMARK  3 active torsions:
REMARK  status: ('A' for Active; 'I' for Inactive)
REMARK    1  A    between atoms: N_1  and  C_2
REMARK    2  A    between atoms: C_2  and  C_3
REMARK    3  A    between atoms: C_3  and  C_4
REMARK                            x       y       z     vdW  Elec       q    Type
REMARK                         _______ _______ _______ _____ _____    ______ ____
ROOT
ATOM      1  C   UNL     1      10.280  -0.060  23.698  0.00  0.00    +0.037 A 
ATOM      2  N   UNL     1      10.446  -0.576  22.438  0.00  0.00    -0.282 N 
ATOM      3  H   UNL     1      10.771  -0.072  21.614  0.00  0.00    +0.189 HD
ATOM      4  N   UNL     1      10.147  -1.882  22.347  0.00  0.00    -0.182 NA
ATOM      5  C   UNL     1       9.770  -2.204  23.587  0.00  0.00    +0.134 A 
ATOM      6  C   UNL     1       9.832  -1.109  24.469  0.00  0.00    +0.044 A 
ENDROOT
BRANCH   1   7
ATOM      7  C   UNL     1      10.543   1.377  24.010  0.00  0.00    +0.069 C 
BRANCH   7   8
ATOM      8  C   UNL     1       9.759   2.363  23.126  0.00  0.00    +0.084 C 
BRANCH   8   9
ATOM      9  N   UNL     1      10.128   2.268  21.705  0.00  0.00    -0.330 NA
ATOM     10  H   UNL     1       9.306   1.984  21.168  0.00  0.00    +0.118 HD
ATOM     11  H   UNL     1      10.368   3.202  21.367  0.00  0.00    +0.118 HD
ENDBRANCH   8   9
ENDBRANCH   7   8
ENDBRANCH   1   7
TORSDOF 3
ENDMDL
MODEL 5
REMARK VINA RESULT:      -3.6     11.186     11.664
REMARK  Name = 
REMARK  3 active torsions:
REMARK  status: ('A' for Active; 'I' for Inactive)
REMARK    1  A    between atoms: N_1  and  C_2
REMARK    2  A    between atoms: C_2  and  C_3
REMARK    3  A    between atoms: C_3  and  C_4
REMARK                            x       y       z     vdW  Elec       q    Type
REMARK                         _______ _______ _______ _____ _____    ______ ____
ROOT
ATOM      1  C   UNL     1      10.520   5.623  23.716  0.00  0.00    +0.037 A 
ATOM      2  N   UNL     1       9.972   4.389  23.469  0.00  0.00    -0.282 N 
ATOM      3  H   UNL     1      10.479   3.509  23.373  0.00  0.00    +0.189 HD
ATOM      4  N   UNL     1       8.634   4.404  23.366  0.00  0.00    -0.182 NA
ATOM      5  C   UNL     1       8.321   5.689  23.544  0.00  0.00    +0.134 A 
ATOM      6  C   UNL     1       9.454   6.494  23.764  0.00  0.00    +0.044 A 
ENDROOT
BRANCH   1   7
ATOM      7  C   UNL     1      11.993   5.827  23.849  0.00  0.00    +0.069 C 
BRANCH   7   8
ATOM      8  C   UNL     1      12.825   5.095  22.781  0.00  0.00    +0.084 C 
BRANCH   8   9
ATOM      9  N   UNL     1      14.265   5.103  23.080  0.00  0.00    -0.330 NA
ATOM     10  H   UNL     1      14.783   5.245  22.211  0.00  0.00    +0.118 HD
ATOM     11  H   UNL     1      14.475   5.918  23.660  0.00  0.00    +0.118 HD
ENDBRANCH   8   9
ENDBRANCH   7   8
ENDBRANCH   1   7
TORSDOF 3
ENDMDL
MODEL 6
REMARK VINA RESULT:      -3.6      5.012      6.232
REMARK  Name = 
REMARK  3 active torsions:
REMARK  status: ('A' for Active; 'I' for Inactive)
REMARK    1  A    between atoms: N_1  and  C_2
REMARK    2  A    between atoms: C_2  and  C_3
REMARK    3  A    between atoms: C_3  and  C_4
REMARK                            x       y       z     vdW  Elec       q    Type
REMARK                         _______ _______ _______ _____ _____    ______ ____
ROOT
ATOM      1  C   UNL     1       9.251  -1.415  22.414  0.00  0.00    +0.037 A 
ATOM      2  N   UNL     1      10.183  -1.950  23.266  0.00  0.00    -0.282 N 
ATOM      3  H   UNL     1      11.119  -1.588  23.445  0.00  0.00    +0.189 HD
ATOM      4  N   UNL     1       9.758  -3.050  23.908  0.00  0.00    -0.182 NA
ATOM      5  C   UNL     1       8.519  -3.225  23.441  0.00  0.00    +0.134 A 
ATOM      6  C   UNL     1       8.151  -2.238  22.508  0.00  0.00    +0.044 A 
ENDROOT
BRANCH   1   7
ATOM      7  C   UNL     1       9.529  -0.199  21.592  0.00  0.00    +0.069 C 
BRANCH   7   8
ATOM      8  C   UNL     1       9.726   1.083  22.419  0.00  0.00    +0.084 C 
BRANCH   8   9
ATOM      9  N   UNL     1      10.162   2.225  21.601  0.00  0.00    -0.330 NA
ATOM     10  H   UNL     1      11.180   2.298  21.649  0.00  0.00    +0.118 HD
ATOM     11  H   UNL     1       9.947   2.028  20.622  0.00  0.00    +0.118 HD
ENDBRANCH   8   9
ENDBRANCH   7   8
ENDBRANCH   1   7
TORSDOF 3
ENDMDL
MODEL 7
REMARK VINA RESULT:      -3.5      5.663      7.395
REMARK  Name = 
REMARK  3 active torsions:
REMARK  status: ('A' for Active; 'I' for Inactive)
REMARK    1  A    between atoms: N_1  and  C_2
REMARK    2  A    between atoms: C_2  and  C_3
REMARK    3  A    between atoms: C_3  and  C_4
REMARK                            x       y       z     vdW  Elec       q    Type
REMARK                         _______ _______ _______ _____ _____    ______ ____
ROOT
ATOM      1  C   UNL     1      10.020   0.227  22.462  0.00  0.00    +0.037 A 
ATOM      2  N   UNL     1      10.535   0.362  23.726  0.00  0.00    -0.282 N 
ATOM      3  H   UNL     1      10.771  -0.394  24.369  0.00  0.00    +0.189 HD
ATOM      4  N   UNL     1      10.738   1.637  24.092  0.00  0.00    -0.182 NA
ATOM      5  C   UNL     1      10.331   2.336  23.030  0.00  0.00    +0.134 A 
ATOM      6  C   UNL     1       9.873   1.511  21.986  0.00  0.00    +0.044 A 
ENDROOT
BRANCH   1   7
ATOM      7  C   UNL     1       9.706  -1.107  21.869  0.00  0.00    +0.069 C 
BRANCH   7   8
ATOM      8  C   UNL     1       9.083  -2.103  22.863  0.00  0.00    +0.084 C 
BRANCH   8   9
ATOM      9  N   UNL     1      10.088  -2.763  23.711  0.00  0.00    -0.330 NA
ATOM     10  H   UNL     1      10.507  -2.067  24.331  0.00  0.00    +0.118 HD
ATOM     11  H   UNL     1       9.613  -3.427  24.325  0.00  0.00    +0.118 HD
ENDBRANCH   8   9
ENDBRANCH   7   8
ENDBRANCH   1   7
TORSDOF 3
ENDMDL
MODEL 8
REMARK VINA RESULT:      -3.4      8.992     10.093
REMARK  Name = 
REMARK  3 active torsions:
REMARK  status: ('A' for Active; 'I' for Inactive)
REMARK    1  A    between atoms: N_1  and  C_2
REMARK    2  A    between atoms: C_2  and  C_3
REMARK    3  A    between atoms: C_3  and  C_4
REMARK                            x       y       z     vdW  Elec       q    Type
REMARK                         _______ _______ _______ _____ _____    ______ ____
ROOT
ATOM      1  C   UNL     1       8.064   2.809  22.123  0.00  0.00    +0.037 A 
ATOM      2  N   UNL     1       9.226   3.240  22.711  0.00  0.00    -0.282 N 
ATOM      3  H   UNL     1       9.364   4.120  23.207  0.00  0.00    +0.189 HD
ATOM      4  N   UNL     1      10.241   2.369  22.602  0.00  0.00    -0.182 NA
ATOM      5  C   UNL     1       9.712   1.356  21.913  0.00  0.00    +0.134 A 
ATOM      6  C   UNL     1       8.360   1.575  21.587  0.00  0.00    +0.044 A 
ENDROOT
BRANCH   1   7
ATOM      7  C   UNL     1       6.820   3.635  22.118  0.00  0.00    +0.069 C 
BRANCH   7   8
ATOM      8  C   UNL     1       7.030   5.084  22.592  0.00  0.00    +0.084 C 
BRANCH   8   9
ATOM      9  N   UNL     1       7.568   5.954  21.537  0.00  0.00    -0.330 NA
ATOM     10  H   UNL     1       7.569   5.442  20.652  0.00  0.00    +0.118 HD
ATOM     11  H   UNL     1       6.927   6.738  21.399  0.00  0.00    +0.118 HD
ENDBRANCH   8   9
ENDBRANCH   7   8
ENDBRANCH   1   7
TORSDOF 3
ENDMDL
MODEL 9
REMARK VINA RESULT:      -3.4      3.132      4.215
REMARK  Name = 
REMARK  3 active torsions:
REMARK  status: ('A' for Active; 'I' for Inactive)
REMARK    1  A    between atoms: N_1  and  C_2
REMARK    2  A    between atoms: C_2  and  C_3
REMARK    3  A    between atoms: C_3  and  C_4
REMARK                            x       y       z     vdW  Elec       q    Type
REMARK                         _______ _______ _______ _____ _____    ______ ____
ROOT
ATOM      1  C   UNL     1       8.347  -3.392  23.390  0.00  0.00    +0.037 A 
ATOM      2  N   UNL     1       9.527  -3.288  24.083  0.00  0.00    -0.282 N 
ATOM      3  H   UNL     1      10.190  -2.516  24.039  0.00  0.00    +0.189 HD
ATOM      4  N   UNL     1       9.770  -4.332  24.892  0.00  0.00    -0.182 NA
ATOM      5  C   UNL     1       8.716  -5.129  24.700  0.00  0.00    +0.134 A 
ATOM      6  C   UNL     1       7.799  -4.595  23.775  0.00  0.00    +0.044 A 
ENDROOT
BRANCH   1   7
ATOM      7  C   UNL     1       7.898  -2.345  22.425  0.00  0.00    +0.069 C 
BRANCH   7   8
ATOM      8  C   UNL     1       8.863  -1.153  22.299  0.00  0.00    +0.084 C 
BRANCH   8   9
ATOM      9  N   UNL     1      10.043  -1.462  21.477  0.00  0.00    -0.330 NA
ATOM     10  H   UNL     1       9.759  -1.515  20.497  0.00  0.00    +0.118 HD
ATOM     11  H   UNL     1      10.696  -0.678  21.533  0.00  0.00    +0.118 HD
ENDBRANCH   8   9
ENDBRANCH   7   8
ENDBRANCH   1   7
TORSDOF 3
ENDMDL
