MODEL 1
REMARK VINA RESULT:      -8.9      0.000      0.000
REMARK  Name = 
REMARK  5 active torsions:
REMARK  status: ('A' for Active; 'I' for Inactive)
REMARK    1  A    between atoms: C_6  and  C_7
REMARK    2  A    between atoms: N_9  and  C_10
REMARK    3  A    between atoms: C_10  and  C_11
REMARK    4  A    between atoms: C_21  and  O_22
REMARK    5  A    between atoms: C_27  and  C_29
REMARK                            x       y       z     vdW  Elec       q    Type
REMARK                         _______ _______ _______ _____ _____    ______ ____
ROOT
ATOM      1  C   UNL     1       4.300  -5.932  23.388  0.00  0.00    +0.228 C 
ATOM      2  O   UNL     1       3.104  -5.584  22.695  0.00  0.00    -0.357 OA
ATOM      3  C   UNL     1       1.976  -6.365  23.021  0.00  0.00    +0.164 C 
ATOM      4  C   UNL     1       1.614  -6.078  24.454  0.00  0.00    +0.050 C 
ATOM      5  C   UNL     1       2.774  -6.394  25.400  0.00  0.00    +0.078 C 
ATOM      6  C   UNL     1       2.536  -7.757  26.068  0.00  0.00    +0.028 C 
ATOM      7  N   UNL     1       4.106  -6.190  24.809  0.00  0.00    -0.266 N 
ATOM      8  C   UNL     1       5.232  -6.283  25.636  0.00  0.00    +0.269 C 
ATOM      9  O   UNL     1       5.198  -6.891  26.702  0.00  0.00    -0.268 OA
ATOM     10  C   UNL     1       6.458  -5.477  25.212  0.00  0.00    +0.151 A 
ATOM     11  N   UNL     1       6.457  -4.781  23.986  0.00  0.00    -0.335 N 
ATOM     12  C   UNL     1       7.477  -3.871  23.723  0.00  0.00    +0.103 A 
ATOM     13  C   UNL     1       8.524  -3.624  24.525  0.00  0.00    +0.103 A 
ATOM     14  C   UNL     1       8.593  -4.411  25.769  0.00  0.00    +0.236 A 
ATOM     15  O   UNL     1       9.513  -4.289  26.581  0.00  0.00    -0.283 OA
ATOM     16  C   UNL     1       7.477  -5.355  26.091  0.00  0.00    +0.194 A 
ATOM     17  C   UNL     1       5.249  -4.748  23.151  0.00  0.00    +0.173 C 
ENDROOT
BRANCH  13  18
ATOM     18  C   UNL     1       9.503  -2.580  24.115  0.00  0.00    +0.250 C 
ATOM     19  N   UNL     1       9.366  -1.364  24.752  0.00  0.00    -0.307 N 
ATOM     20  H   UNL     1       8.644  -1.255  25.460  0.00  0.00    +0.149 HD
ATOM     21  O   UNL     1      10.360  -2.788  23.265  0.00  0.00    -0.270 OA
BRANCH  19  22
ATOM     22  C   UNL     1      10.304  -0.275  24.575  0.00  0.00    +0.142 C 
BRANCH  22  23
ATOM     23  C   UNL     1       9.664   0.910  23.912  0.00  0.00    +0.005 A 
ATOM     24  C   UNL     1       9.564   0.979  22.517  0.00  0.00    +0.131 A 
ATOM     25  F   UNL     1      10.072  -0.007  21.763  0.00  0.00    -0.205 F 
ATOM     26  C   UNL     1       8.934   2.046  21.886  0.00  0.00    +0.077 A 
ATOM     27  C   UNL     1       8.402   3.065  22.663  0.00  0.00    +0.126 A 
ATOM     28  F   UNL     1       7.774   4.089  22.068  0.00  0.00    -0.205 F 
ATOM     29  C   UNL     1       8.505   3.039  24.050  0.00  0.00    +0.039 A 
ATOM     30  C   UNL     1       9.144   1.964  24.675  0.00  0.00    +0.011 A 
ENDBRANCH  22  23
ENDBRANCH  19  22
ENDBRANCH  13  18
BRANCH  16  31
ATOM     31  O   UNL     1       7.564  -5.983  27.321  0.00  0.00    -0.502 OA
ATOM     32  H   UNL     1       7.277  -6.909  27.176  0.00  0.00    +0.292 HD
ENDBRANCH  16  31
TORSDOF 4
ENDMDL
MODEL 2
REMARK VINA RESULT:      -8.8      1.763      2.017
REMARK  Name = 
REMARK  5 active torsions:
REMARK  status: ('A' for Active; 'I' for Inactive)
REMARK    1  A    between atoms: C_6  and  C_7
REMARK    2  A    between atoms: N_9  and  C_10
REMARK    3  A    between atoms: C_10  and  C_11
REMARK    4  A    between atoms: C_21  and  O_22
REMARK    5  A    between atoms: C_27  and  C_29
REMARK                            x       y       z     vdW  Elec       q    Type
REMARK                         _______ _______ _______ _____ _____    ______ ____
ROOT
ATOM      1  C   UNL     1       3.386  -5.446  25.572  0.00  0.00    +0.228 C 
ATOM      2  O   UNL     1       2.065  -4.924  25.690  0.00  0.00    -0.357 OA
ATOM      3  C   UNL     1       1.253  -5.566  26.649  0.00  0.00    +0.164 C 
ATOM      4  C   UNL     1       1.834  -5.283  28.009  0.00  0.00    +0.050 C 
ATOM      5  C   UNL     1       3.277  -5.777  28.116  0.00  0.00    +0.078 C 
ATOM      6  C   UNL     1       3.308  -7.121  28.860  0.00  0.00    +0.028 C 
ATOM      7  N   UNL     1       4.028  -5.726  26.850  0.00  0.00    -0.266 N 
ATOM      8  C   UNL     1       5.402  -5.990  26.870  0.00  0.00    +0.269 C 
ATOM      9  O   UNL     1       5.921  -6.624  27.784  0.00  0.00    -0.268 OA
ATOM     10  C   UNL     1       6.239  -5.334  25.774  0.00  0.00    +0.151 A 
ATOM     11  N   UNL     1       5.609  -4.602  24.747  0.00  0.00    -0.335 N 
ATOM     12  C   UNL     1       6.387  -3.822  23.896  0.00  0.00    +0.103 A 
ATOM     13  C   UNL     1       7.726  -3.738  23.926  0.00  0.00    +0.103 A 
ATOM     14  C   UNL     1       8.409  -4.570  24.932  0.00  0.00    +0.236 A 
ATOM     15  O   UNL     1       9.637  -4.594  25.049  0.00  0.00    -0.283 OA
ATOM     16  C   UNL     1       7.585  -5.374  25.888  0.00  0.00    +0.194 A 
ATOM     17  C   UNL     1       4.157  -4.386  24.771  0.00  0.00    +0.173 C 
ENDROOT
BRANCH  13  18
ATOM     18  C   UNL     1       8.402  -2.814  22.973  0.00  0.00    +0.250 C 
ATOM     19  N   UNL     1       9.622  -2.327  23.394  0.00  0.00    -0.307 N 
ATOM     20  H   UNL     1       9.993  -2.631  24.291  0.00  0.00    +0.149 HD
ATOM     21  O   UNL     1       7.901  -2.504  21.900  0.00  0.00    -0.270 OA
BRANCH  19  22
ATOM     22  C   UNL     1      10.478  -1.520  22.550  0.00  0.00    +0.142 C 
BRANCH  22  23
ATOM     23  C   UNL     1      10.257  -0.053  22.772  0.00  0.00    +0.005 A 
ATOM     24  C   UNL     1       9.582   0.719  21.819  0.00  0.00    +0.131 A 
ATOM     25  F   UNL     1       9.153   0.150  20.683  0.00  0.00    -0.205 F 
ATOM     26  C   UNL     1       9.326   2.070  22.027  0.00  0.00    +0.077 A 
ATOM     27  C   UNL     1       9.763   2.662  23.204  0.00  0.00    +0.126 A 
ATOM     28  F   UNL     1       9.506   3.958  23.426  0.00  0.00    -0.205 F 
ATOM     29  C   UNL     1      10.459   1.929  24.161  0.00  0.00    +0.039 A 
ATOM     30  C   UNL     1      10.714   0.572  23.941  0.00  0.00    +0.011 A 
ENDBRANCH  22  23
ENDBRANCH  19  22
ENDBRANCH  13  18
BRANCH  16  31
ATOM     31  O   UNL     1       8.294  -6.049  26.866  0.00  0.00    -0.502 OA
ATOM     32  H   UNL     1       7.677  -6.709  27.244  0.00  0.00    +0.292 HD
ENDBRANCH  16  31
TORSDOF 4
ENDMDL
MODEL 3
REMARK VINA RESULT:      -8.6      3.698      9.328
REMARK  Name = 
REMARK  5 active torsions:
REMARK  status: ('A' for Active; 'I' for Inactive)
REMARK    1  A    between atoms: C_6  and  C_7
REMARK    2  A    between atoms: N_9  and  C_10
REMARK    3  A    between atoms: C_10  and  C_11
REMARK    4  A    between atoms: C_21  and  O_22
REMARK    5  A    between atoms: C_27  and  C_29
REMARK                            x       y       z     vdW  Elec       q    Type
REMARK                         _______ _______ _______ _____ _____    ______ ____
ROOT
ATOM      1  C   UNL     1      10.709   3.454  23.139  0.00  0.00    +0.228 C 
ATOM      2  O   UNL     1      11.731   4.228  23.758  0.00  0.00    -0.357 OA
ATOM      3  C   UNL     1      11.603   5.624  23.598  0.00  0.00    +0.164 C 
ATOM      4  C   UNL     1      10.370   6.063  24.342  0.00  0.00    +0.050 C 
ATOM      5  C   UNL     1       9.120   5.350  23.826  0.00  0.00    +0.078 C 
ATOM      6  C   UNL     1       8.351   6.282  22.877  0.00  0.00    +0.028 C 
ATOM      7  N   UNL     1       9.365   3.986  23.330  0.00  0.00    -0.266 N 
ATOM      8  C   UNL     1       8.269   3.183  22.996  0.00  0.00    +0.269 C 
ATOM      9  O   UNL     1       7.173   3.669  22.730  0.00  0.00    -0.268 OA
ATOM     10  C   UNL     1       8.468   1.673  23.116  0.00  0.00    +0.151 A 
ATOM     11  N   UNL     1       9.737   1.151  23.436  0.00  0.00    -0.335 N 
ATOM     12  C   UNL     1       9.851  -0.196  23.768  0.00  0.00    +0.103 A 
ATOM     13  C   UNL     1       8.847  -1.086  23.760  0.00  0.00    +0.103 A 
ATOM     14  C   UNL     1       7.530  -0.579  23.337  0.00  0.00    +0.236 A 
ATOM     15  O   UNL     1       6.532  -1.301  23.272  0.00  0.00    -0.283 OA
ATOM     16  C   UNL     1       7.379   0.877  23.027  0.00  0.00    +0.194 A 
ATOM     17  C   UNL     1      10.854   2.052  23.748  0.00  0.00    +0.173 C 
ENDROOT
BRANCH  13  18
ATOM     18  C   UNL     1       9.131  -2.483  24.193  0.00  0.00    +0.250 C 
ATOM     19  N   UNL     1       8.160  -3.061  24.983  0.00  0.00    -0.307 N 
ATOM     20  H   UNL     1       7.320  -2.532  25.203  0.00  0.00    +0.149 HD
ATOM     21  O   UNL     1      10.160  -3.066  23.876  0.00  0.00    -0.270 OA
BRANCH  19  22
ATOM     22  C   UNL     1       8.205  -4.450  25.390  0.00  0.00    +0.142 C 
BRANCH  22  23
ATOM     23  C   UNL     1       6.952  -5.183  25.010  0.00  0.00    +0.005 A 
ATOM     24  C   UNL     1       6.630  -5.396  23.664  0.00  0.00    +0.131 A 
ATOM     25  F   UNL     1       7.433  -4.916  22.703  0.00  0.00    -0.205 F 
ATOM     26  C   UNL     1       5.498  -6.112  23.291  0.00  0.00    +0.077 A 
ATOM     27  C   UNL     1       4.667  -6.616  24.283  0.00  0.00    +0.126 A 
ATOM     28  F   UNL     1       3.584  -7.325  23.938  0.00  0.00    -0.205 F 
ATOM     29  C   UNL     1       4.945  -6.402  25.629  0.00  0.00    +0.039 A 
ATOM     30  C   UNL     1       6.083  -5.677  25.993  0.00  0.00    +0.011 A 
ENDBRANCH  22  23
ENDBRANCH  19  22
ENDBRANCH  13  18
BRANCH  16  31
ATOM     31  O   UNL     1       6.093   1.295  22.733  0.00  0.00    -0.502 OA
ATOM     32  H   UNL     1       5.880   1.999  23.379  0.00  0.00    +0.292 HD
ENDBRANCH  16  31
TORSDOF 4
ENDMDL
MODEL 4
REMARK VINA RESULT:      -8.6      1.757      2.152
REMARK  Name = 
REMARK  5 active torsions:
REMARK  status: ('A' for Active; 'I' for Inactive)
REMARK    1  A    between atoms: C_6  and  C_7
REMARK    2  A    between atoms: N_9  and  C_10
REMARK    3  A    between atoms: C_10  and  C_11
REMARK    4  A    between atoms: C_21  and  O_22
REMARK    5  A    between atoms: C_27  and  C_29
REMARK                            x       y       z     vdW  Elec       q    Type
REMARK                         _______ _______ _______ _____ _____    ______ ____
ROOT
ATOM      1  C   UNL     1       3.384  -5.921  25.612  0.00  0.00    +0.228 C 
ATOM      2  O   UNL     1       2.016  -5.525  25.564  0.00  0.00    -0.357 OA
ATOM      3  C   UNL     1       1.180  -6.152  26.511  0.00  0.00    +0.164 C 
ATOM      4  C   UNL     1       1.603  -5.687  27.880  0.00  0.00    +0.050 C 
ATOM      5  C   UNL     1       3.068  -6.023  28.157  0.00  0.00    +0.078 C 
ATOM      6  C   UNL     1       3.151  -7.282  29.035  0.00  0.00    +0.028 C 
ATOM      7  N   UNL     1       3.926  -6.016  26.961  0.00  0.00    -0.266 N 
ATOM      8  C   UNL     1       5.311  -6.139  27.123  0.00  0.00    +0.269 C 
ATOM      9  O   UNL     1       5.798  -6.630  28.138  0.00  0.00    -0.268 OA
ATOM     10  C   UNL     1       6.183  -5.507  26.041  0.00  0.00    +0.151 A 
ATOM     11  N   UNL     1       5.588  -4.941  24.895  0.00  0.00    -0.335 N 
ATOM     12  C   UNL     1       6.369  -4.170  24.038  0.00  0.00    +0.103 A 
ATOM     13  C   UNL     1       7.686  -3.951  24.172  0.00  0.00    +0.103 A 
ATOM     14  C   UNL     1       8.345  -4.613  25.311  0.00  0.00    +0.236 A 
ATOM     15  O   UNL     1       9.553  -4.504  25.533  0.00  0.00    -0.283 OA
ATOM     16  C   UNL     1       7.511  -5.402  26.272  0.00  0.00    +0.194 A 
ATOM     17  C   UNL     1       4.127  -4.869  24.775  0.00  0.00    +0.173 C 
ENDROOT
BRANCH  13  18
ATOM     18  C   UNL     1       8.361  -3.057  23.191  0.00  0.00    +0.250 C 
ATOM     19  N   UNL     1       9.503  -2.436  23.652  0.00  0.00    -0.307 N 
ATOM     20  H   UNL     1       9.826  -2.632  24.596  0.00  0.00    +0.149 HD
ATOM     21  O   UNL     1       7.923  -2.881  22.060  0.00  0.00    -0.270 OA
BRANCH  19  22
ATOM     22  C   UNL     1      10.359  -1.635  22.801  0.00  0.00    +0.142 C 
BRANCH  22  23
ATOM     23  C   UNL     1      10.010  -0.177  22.875  0.00  0.00    +0.005 A 
ATOM     24  C   UNL     1      10.322   0.575  24.014  0.00  0.00    +0.131 A 
ATOM     25  F   UNL     1      10.911  -0.018  25.062  0.00  0.00    -0.205 F 
ATOM     26  C   UNL     1      10.049   1.936  24.083  0.00  0.00    +0.077 A 
ATOM     27  C   UNL     1       9.444   2.555  22.998  0.00  0.00    +0.126 A 
ATOM     28  F   UNL     1       9.194   3.870  23.044  0.00  0.00    -0.205 F 
ATOM     29  C   UNL     1       9.099   1.833  21.860  0.00  0.00    +0.039 A 
ATOM     30  C   UNL     1       9.374   0.463  21.801  0.00  0.00    +0.011 A 
ENDBRANCH  22  23
ENDBRANCH  19  22
ENDBRANCH  13  18
BRANCH  16  31
ATOM     31  O   UNL     1       8.184  -5.910  27.369  0.00  0.00    -0.502 OA
ATOM     32  H   UNL     1       8.302  -6.867  27.198  0.00  0.00    +0.292 HD
ENDBRANCH  16  31
TORSDOF 4
ENDMDL
MODEL 5
REMARK VINA RESULT:      -8.0      2.133      3.227
REMARK  Name = 
REMARK  5 active torsions:
REMARK  status: ('A' for Active; 'I' for Inactive)
REMARK    1  A    between atoms: C_6  and  C_7
REMARK    2  A    between atoms: N_9  and  C_10
REMARK    3  A    between atoms: C_10  and  C_11
REMARK    4  A    between atoms: C_21  and  O_22
REMARK    5  A    between atoms: C_27  and  C_29
REMARK                            x       y       z     vdW  Elec       q    Type
REMARK                         _______ _______ _______ _____ _____    ______ ____
ROOT
ATOM      1  C   UNL     1       4.443  -4.481  27.741  0.00  0.00    +0.228 C 
ATOM      2  O   UNL     1       4.544  -4.680  29.148  0.00  0.00    -0.357 OA
ATOM      3  C   UNL     1       3.444  -5.336  29.739  0.00  0.00    +0.164 C 
ATOM      4  C   UNL     1       3.412  -6.747  29.215  0.00  0.00    +0.050 C 
ATOM      5  C   UNL     1       3.295  -6.777  27.691  0.00  0.00    +0.078 C 
ATOM      6  C   UNL     1       1.838  -7.057  27.291  0.00  0.00    +0.028 C 
ATOM      7  N   UNL     1       3.940  -5.640  27.014  0.00  0.00    -0.266 N 
ATOM      8  C   UNL     1       4.042  -5.655  25.618  0.00  0.00    +0.269 C 
ATOM      9  O   UNL     1       3.303  -6.350  24.927  0.00  0.00    -0.268 OA
ATOM     10  C   UNL     1       5.207  -4.876  25.011  0.00  0.00    +0.151 A 
ATOM     11  N   UNL     1       6.045  -4.100  25.837  0.00  0.00    -0.335 N 
ATOM     12  C   UNL     1       7.228  -3.587  25.312  0.00  0.00    +0.103 A 
ATOM     13  C   UNL     1       7.636  -3.722  24.041  0.00  0.00    +0.103 A 
ATOM     14  C   UNL     1       6.728  -4.450  23.138  0.00  0.00    +0.236 A 
ATOM     15  O   UNL     1       6.981  -4.626  21.943  0.00  0.00    -0.283 OA
ATOM     16  C   UNL     1       5.477  -5.051  23.698  0.00  0.00    +0.194 A 
ATOM     17  C   UNL     1       5.863  -4.105  27.294  0.00  0.00    +0.173 C 
ENDROOT
BRANCH  13  18
ATOM     18  C   UNL     1       8.957  -3.153  23.654  0.00  0.00    +0.250 C 
ATOM     19  N   UNL     1       8.928  -2.261  22.603  0.00  0.00    -0.307 N 
ATOM     20  H   UNL     1       8.034  -2.028  22.177  0.00  0.00    +0.149 HD
ATOM     21  O   UNL     1       9.994  -3.469  24.225  0.00  0.00    -0.270 OA
BRANCH  19  22
ATOM     22  C   UNL     1      10.092  -1.515  22.174  0.00  0.00    +0.142 C 
BRANCH  22  23
ATOM     23  C   UNL     1      10.062  -0.100  22.674  0.00  0.00    +0.005 A 
ATOM     24  C   UNL     1       9.492   0.918  21.900  0.00  0.00    +0.131 A 
ATOM     25  F   UNL     1       8.994   0.634  20.688  0.00  0.00    -0.205 F 
ATOM     26  C   UNL     1       9.413   2.226  22.365  0.00  0.00    +0.077 A 
ATOM     27  C   UNL     1       9.922   2.523  23.621  0.00  0.00    +0.126 A 
ATOM     28  F   UNL     1       9.834   3.776  24.090  0.00  0.00    -0.205 F 
ATOM     29  C   UNL     1      10.517   1.540  24.406  0.00  0.00    +0.039 A 
ATOM     30  C   UNL     1      10.595   0.229  23.928  0.00  0.00    +0.011 A 
ENDBRANCH  22  23
ENDBRANCH  19  22
ENDBRANCH  13  18
BRANCH  16  31
ATOM     31  O   UNL     1       4.727  -5.804  22.811  0.00  0.00    -0.502 OA
ATOM     32  H   UNL     1       4.740  -5.317  21.962  0.00  0.00    +0.292 HD
ENDBRANCH  16  31
TORSDOF 4
ENDMDL
MODEL 6
REMARK VINA RESULT:      -7.9      2.790      3.491
REMARK  Name = 
REMARK  5 active torsions:
REMARK  status: ('A' for Active; 'I' for Inactive)
REMARK    1  A    between atoms: C_6  and  C_7
REMARK    2  A    between atoms: N_9  and  C_10
REMARK    3  A    between atoms: C_10  and  C_11
REMARK    4  A    between atoms: C_21  and  O_22
REMARK    5  A    between atoms: C_27  and  C_29
REMARK                            x       y       z     vdW  Elec       q    Type
REMARK                         _______ _______ _______ _____ _____    ______ ____
ROOT
ATOM      1  C   UNL     1       5.214  -3.237  27.338  0.00  0.00    +0.228 C 
ATOM      2  O   UNL     1       4.500  -2.832  28.502  0.00  0.00    -0.357 OA
ATOM      3  C   UNL     1       3.810  -3.867  29.169  0.00  0.00    +0.164 C 
ATOM      4  C   UNL     1       4.834  -4.816  29.732  0.00  0.00    +0.050 C 
ATOM      5  C   UNL     1       5.727  -5.393  28.633  0.00  0.00    +0.078 C 
ATOM      6  C   UNL     1       5.250  -6.808  28.271  0.00  0.00    +0.028 C 
ATOM      7  N   UNL     1       5.955  -4.481  27.500  0.00  0.00    -0.266 N 
ATOM      8  C   UNL     1       6.893  -4.839  26.525  0.00  0.00    +0.269 C 
ATOM      9  O   UNL     1       7.235  -6.007  26.360  0.00  0.00    -0.268 OA
ATOM     10  C   UNL     1       7.569  -3.693  25.776  0.00  0.00    +0.151 A 
ATOM     11  N   UNL     1       7.159  -2.363  26.001  0.00  0.00    -0.335 N 
ATOM     12  C   UNL     1       7.931  -1.321  25.493  0.00  0.00    +0.103 A 
ATOM     13  C   UNL     1       9.033  -1.466  24.742  0.00  0.00    +0.103 A 
ATOM     14  C   UNL     1       9.424  -2.848  24.416  0.00  0.00    +0.236 A 
ATOM     15  O   UNL     1      10.407  -3.113  23.719  0.00  0.00    -0.283 OA
ATOM     16  C   UNL     1       8.635  -3.980  24.997  0.00  0.00    +0.194 A 
ATOM     17  C   UNL     1       6.147  -2.059  27.021  0.00  0.00    +0.173 C 
ENDROOT
BRANCH  13  18
ATOM     18  C   UNL     1       9.772  -0.243  24.321  0.00  0.00    +0.250 C 
ATOM     19  N   UNL     1       9.605   0.119  23.000  0.00  0.00    -0.307 N 
ATOM     20  H   UNL     1       8.989  -0.435  22.410  0.00  0.00    +0.149 HD
ATOM     21  O   UNL     1      10.485   0.385  25.093  0.00  0.00    -0.270 OA
BRANCH  19  22
ATOM     22  C   UNL     1      10.142   1.345  22.449  0.00  0.00    +0.142 C 
BRANCH  22  23
ATOM     23  C   UNL     1       9.239   2.515  22.709  0.00  0.00    +0.005 A 
ATOM     24  C   UNL     1       8.043   2.666  21.997  0.00  0.00    +0.131 A 
ATOM     25  F   UNL     1       7.714   1.774  21.051  0.00  0.00    -0.205 F 
ATOM     26  C   UNL     1       7.171   3.718  22.256  0.00  0.00    +0.077 A 
ATOM     27  C   UNL     1       7.505   4.640  23.237  0.00  0.00    +0.126 A 
ATOM     28  F   UNL     1       6.663   5.646  23.511  0.00  0.00    -0.205 F 
ATOM     29  C   UNL     1       8.697   4.533  23.947  0.00  0.00    +0.039 A 
ATOM     30  C   UNL     1       9.569   3.474  23.677  0.00  0.00    +0.011 A 
ENDBRANCH  22  23
ENDBRANCH  19  22
ENDBRANCH  13  18
BRANCH  16  31
ATOM     31  O   UNL     1       9.122  -5.247  24.728  0.00  0.00    -0.502 OA
ATOM     32  H   UNL     1       9.148  -5.328  23.752  0.00  0.00    +0.292 HD
ENDBRANCH  16  31
TORSDOF 4
ENDMDL
MODEL 7
REMARK VINA RESULT:      -7.8      3.952      9.519
REMARK  Name = 
REMARK  5 active torsions:
REMARK  status: ('A' for Active; 'I' for Inactive)
REMARK    1  A    between atoms: C_6  and  C_7
REMARK    2  A    between atoms: N_9  and  C_10
REMARK    3  A    between atoms: C_10  and  C_11
REMARK    4  A    between atoms: C_21  and  O_22
REMARK    5  A    between atoms: C_27  and  C_29
REMARK                            x       y       z     vdW  Elec       q    Type
REMARK                         _______ _______ _______ _____ _____    ______ ____
ROOT
ATOM      1  C   UNL     1      10.821   3.946  23.286  0.00  0.00    +0.228 C 
ATOM      2  O   UNL     1      12.108   4.476  23.592  0.00  0.00    -0.357 OA
ATOM      3  C   UNL     1      12.190   5.884  23.588  0.00  0.00    +0.164 C 
ATOM      4  C   UNL     1      11.351   6.398  24.728  0.00  0.00    +0.050 C 
ATOM      5  C   UNL     1       9.896   5.949  24.599  0.00  0.00    +0.078 C 
ATOM      6  C   UNL     1       9.050   7.098  24.029  0.00  0.00    +0.028 C 
ATOM      7  N   UNL     1       9.723   4.640  23.948  0.00  0.00    -0.266 N 
ATOM      8  C   UNL     1       8.452   4.056  23.933  0.00  0.00    +0.269 C 
ATOM      9  O   UNL     1       7.434   4.727  24.080  0.00  0.00    -0.268 OA
ATOM     10  C   UNL     1       8.402   2.531  23.867  0.00  0.00    +0.151 A 
ATOM     11  N   UNL     1       9.592   1.791  23.712  0.00  0.00    -0.335 N 
ATOM     12  C   UNL     1       9.559   0.410  23.885  0.00  0.00    +0.103 A 
ATOM     13  C   UNL     1       8.459  -0.314  24.141  0.00  0.00    +0.103 A 
ATOM     14  C   UNL     1       7.190   0.430  24.213  0.00  0.00    +0.236 A 
ATOM     15  O   UNL     1       6.108  -0.123  24.426  0.00  0.00    -0.283 OA
ATOM     16  C   UNL     1       7.215   1.920  24.081  0.00  0.00    +0.194 A 
ATOM     17  C   UNL     1      10.894   2.471  23.706  0.00  0.00    +0.173 C 
ENDROOT
BRANCH  13  18
ATOM     18  C   UNL     1       8.607  -1.782  24.349  0.00  0.00    +0.250 C 
ATOM     19  N   UNL     1       7.622  -2.368  25.116  0.00  0.00    -0.307 N 
ATOM     20  H   UNL     1       6.860  -1.793  25.467  0.00  0.00    +0.149 HD
ATOM     21  O   UNL     1       9.545  -2.415  23.880  0.00  0.00    -0.270 OA
BRANCH  19  22
ATOM     22  C   UNL     1       7.532  -3.799  25.317  0.00  0.00    +0.142 C 
BRANCH  22  23
ATOM     23  C   UNL     1       7.008  -4.501  24.098  0.00  0.00    +0.005 A 
ATOM     24  C   UNL     1       5.691  -4.299  23.669  0.00  0.00    +0.131 A 
ATOM     25  F   UNL     1       4.878  -3.494  24.369  0.00  0.00    -0.205 F 
ATOM     26  C   UNL     1       5.201  -4.903  22.516  0.00  0.00    +0.077 A 
ATOM     27  C   UNL     1       6.041  -5.732  21.785  0.00  0.00    +0.126 A 
ATOM     28  F   UNL     1       5.588  -6.305  20.662  0.00  0.00    -0.205 F 
ATOM     29  C   UNL     1       7.348  -5.973  22.197  0.00  0.00    +0.039 A 
ATOM     30  C   UNL     1       7.830  -5.364  23.359  0.00  0.00    +0.011 A 
ENDBRANCH  22  23
ENDBRANCH  19  22
ENDBRANCH  13  18
BRANCH  16  31
ATOM     31  O   UNL     1       5.999   2.556  24.259  0.00  0.00    -0.502 OA
ATOM     32  H   UNL     1       5.767   2.949  23.392  0.00  0.00    +0.292 HD
ENDBRANCH  16  31
TORSDOF 4
ENDMDL
MODEL 8
REMARK VINA RESULT:      -7.6      2.045      2.739
REMARK  Name = 
REMARK  5 active torsions:
REMARK  status: ('A' for Active; 'I' for Inactive)
REMARK    1  A    between atoms: C_6  and  C_7
REMARK    2  A    between atoms: N_9  and  C_10
REMARK    3  A    between atoms: C_10  and  C_11
REMARK    4  A    between atoms: C_21  and  O_22
REMARK    5  A    between atoms: C_27  and  C_29
REMARK                            x       y       z     vdW  Elec       q    Type
REMARK                         _______ _______ _______ _____ _____    ______ ____
ROOT
ATOM      1  C   UNL     1       5.136  -4.839  23.028  0.00  0.00    +0.228 C 
ATOM      2  O   UNL     1       3.780  -4.917  22.596  0.00  0.00    -0.357 OA
ATOM      3  C   UNL     1       3.023  -5.948  23.190  0.00  0.00    +0.164 C 
ATOM      4  C   UNL     1       2.877  -5.627  24.654  0.00  0.00    +0.050 C 
ATOM      5  C   UNL     1       4.238  -5.503  25.339  0.00  0.00    +0.078 C 
ATOM      6  C   UNL     1       4.552  -6.800  26.100  0.00  0.00    +0.028 C 
ATOM      7  N   UNL     1       5.308  -4.993  24.467  0.00  0.00    -0.266 N 
ATOM      8  C   UNL     1       6.548  -4.678  25.034  0.00  0.00    +0.269 C 
ATOM      9  O   UNL     1       6.904  -5.156  26.108  0.00  0.00    -0.268 OA
ATOM     10  C   UNL     1       7.371  -3.606  24.322  0.00  0.00    +0.151 A 
ATOM     11  N   UNL     1       6.924  -3.070  23.098  0.00  0.00    -0.335 N 
ATOM     12  C   UNL     1       7.556  -1.941  22.582  0.00  0.00    +0.103 A 
ATOM     13  C   UNL     1       8.615  -1.326  23.128  0.00  0.00    +0.103 A 
ATOM     14  C   UNL     1       9.156  -1.928  24.360  0.00  0.00    +0.236 A 
ATOM     15  O   UNL     1      10.137  -1.467  24.948  0.00  0.00    -0.283 OA
ATOM     16  C   UNL     1       8.458  -3.110  24.955  0.00  0.00    +0.194 A 
ATOM     17  C   UNL     1       5.624  -3.467  22.542  0.00  0.00    +0.173 C 
ENDROOT
BRANCH  13  18
ATOM     18  C   UNL     1       9.140  -0.096  22.473  0.00  0.00    +0.250 C 
ATOM     19  N   UNL     1       9.786   0.787  23.313  0.00  0.00    -0.307 N 
ATOM     20  H   UNL     1       9.889   0.549  24.296  0.00  0.00    +0.149 HD
ATOM     21  O   UNL     1       8.994   0.117  21.276  0.00  0.00    -0.270 OA
BRANCH  19  22
ATOM     22  C   UNL     1      10.469   1.970  22.832  0.00  0.00    +0.142 C 
BRANCH  22  23
ATOM     23  C   UNL     1      10.057   3.198  23.591  0.00  0.00    +0.005 A 
ATOM     24  C   UNL     1      10.836   4.360  23.546  0.00  0.00    +0.131 A 
ATOM     25  F   UNL     1      11.978   4.370  22.842  0.00  0.00    -0.205 F 
ATOM     26  C   UNL     1      10.447   5.522  24.204  0.00  0.00    +0.077 A 
ATOM     27  C   UNL     1       9.263   5.518  24.928  0.00  0.00    +0.126 A 
ATOM     28  F   UNL     1       8.867   6.636  25.550  0.00  0.00    -0.205 F 
ATOM     29  C   UNL     1       8.478   4.373  25.013  0.00  0.00    +0.039 A 
ATOM     30  C   UNL     1       8.879   3.209  24.351  0.00  0.00    +0.011 A 
ENDBRANCH  22  23
ENDBRANCH  19  22
ENDBRANCH  13  18
BRANCH  16  31
ATOM     31  O   UNL     1       8.965  -3.557  26.163  0.00  0.00    -0.502 OA
ATOM     32  H   UNL     1       9.260  -2.759  26.647  0.00  0.00    +0.292 HD
ENDBRANCH  16  31
TORSDOF 4
ENDMDL
MODEL 9
REMARK VINA RESULT:      -7.4      3.997      9.359
REMARK  Name = 
REMARK  5 active torsions:
REMARK  status: ('A' for Active; 'I' for Inactive)
REMARK    1  A    between atoms: C_6  and  C_7
REMARK    2  A    between atoms: N_9  and  C_10
REMARK    3  A    between atoms: C_10  and  C_11
REMARK    4  A    between atoms: C_21  and  O_22
REMARK    5  A    between atoms: C_27  and  C_29
REMARK                            x       y       z     vdW  Elec       q    Type
REMARK                         _______ _______ _______ _____ _____    ______ ____
ROOT
ATOM      1  C   UNL     1       9.864   4.254  23.467  0.00  0.00    +0.228 C 
ATOM      2  O   UNL     1      10.974   4.989  23.973  0.00  0.00    -0.357 OA
ATOM      3  C   UNL     1      10.724   6.356  24.215  0.00  0.00    +0.164 C 
ATOM      4  C   UNL     1       9.732   6.452  25.343  0.00  0.00    +0.050 C 
ATOM      5  C   UNL     1       8.431   5.723  25.008  0.00  0.00    +0.078 C 
ATOM      6  C   UNL     1       7.369   6.742  24.565  0.00  0.00    +0.028 C 
ATOM      7  N   UNL     1       8.603   4.552  24.133  0.00  0.00    -0.266 N 
ATOM      8  C   UNL     1       7.505   3.714  23.904  0.00  0.00    +0.269 C 
ATOM      9  O   UNL     1       6.353   4.105  24.068  0.00  0.00    -0.268 OA
ATOM     10  C   UNL     1       7.818   2.256  23.577  0.00  0.00    +0.151 A 
ATOM     11  N   UNL     1       9.154   1.840  23.409  0.00  0.00    -0.335 N 
ATOM     12  C   UNL     1       9.437   0.478  23.342  0.00  0.00    +0.103 A 
ATOM     13  C   UNL     1       8.526  -0.506  23.371  0.00  0.00    +0.103 A 
ATOM     14  C   UNL     1       7.116  -0.088  23.452  0.00  0.00    +0.236 A 
ATOM     15  O   UNL     1       6.184  -0.897  23.468  0.00  0.00    -0.283 OA
ATOM     16  C   UNL     1       6.798   1.369  23.576  0.00  0.00    +0.194 A 
ATOM     17  C   UNL     1      10.259   2.780  23.636  0.00  0.00    +0.173 C 
ENDROOT
BRANCH  13  18
ATOM     18  C   UNL     1       9.003  -1.917  23.341  0.00  0.00    +0.250 C 
ATOM     19  N   UNL     1       8.590  -2.699  24.400  0.00  0.00    -0.307 N 
ATOM     20  H   UNL     1       7.984  -2.293  25.108  0.00  0.00    +0.149 HD
ATOM     21  O   UNL     1       9.720  -2.344  22.444  0.00  0.00    -0.270 OA
BRANCH  19  22
ATOM     22  C   UNL     1       8.849  -4.122  24.473  0.00  0.00    +0.142 C 
BRANCH  22  23
ATOM     23  C   UNL     1       7.600  -4.927  24.262  0.00  0.00    +0.005 A 
ATOM     24  C   UNL     1       6.805  -5.308  25.350  0.00  0.00    +0.131 A 
ATOM     25  F   UNL     1       7.178  -4.978  26.595  0.00  0.00    -0.205 F 
ATOM     26  C   UNL     1       5.621  -6.014  25.172  0.00  0.00    +0.077 A 
ATOM     27  C   UNL     1       5.229  -6.353  23.885  0.00  0.00    +0.126 A 
ATOM     28  F   UNL     1       4.079  -7.015  23.698  0.00  0.00    -0.205 F 
ATOM     29  C   UNL     1       6.007  -6.011  22.784  0.00  0.00    +0.039 A 
ATOM     30  C   UNL     1       7.199  -5.304  22.973  0.00  0.00    +0.011 A 
ENDBRANCH  22  23
ENDBRANCH  19  22
ENDBRANCH  13  18
BRANCH  16  31
ATOM     31  O   UNL     1       5.459   1.675  23.747  0.00  0.00    -0.502 OA
ATOM     32  H   UNL     1       5.221   2.276  23.011  0.00  0.00    +0.292 HD
ENDBRANCH  16  31
TORSDOF 4
ENDMDL
