MODEL 1
REMARK VINA RESULT:      -7.6      0.000      0.000
REMARK  Name = 
REMARK  13 active torsions:
REMARK  status: ('A' for Active; 'I' for Inactive)
REMARK    1  A    between atoms: C_1  and  N_2
REMARK    2  A    between atoms: N_2  and  C_3
REMARK    3  A    between atoms: C_3  and  C_4
REMARK    4  A    between atoms: C_4  and  C_5
REMARK    5  A    between atoms: C_5  and  N_7
REMARK    6  A    between atoms: C_5  and  C_8
REMARK    7  A    between atoms: C_8  and  C_9
REMARK    8  A    between atoms: N_11  and  C_12
REMARK    9  A    between atoms: C_16  and  N_24
REMARK   10  A    between atoms: C_19  and  C_21
REMARK   11  A    between atoms: C_21  and  O_22
REMARK   12  A    between atoms: C_27  and  N_28
REMARK   13  A    between atoms: C_27  and  O_29
REMARK                            x       y       z     vdW  Elec       q    Type
REMARK                         _______ _______ _______ _____ _____    ______ ____
ROOT
ATOM      1  C   UNL     1       8.546  -1.922  24.354  0.00  0.00    +0.136 C 
ATOM      2  C   UNL     1       8.810  -3.335  23.771  0.00  0.00    +0.253 C 
ATOM      3  O   UNL     1       8.111  -3.700  22.566  0.00  0.00    -0.338 OA
ATOM      4  C   UNL     1       6.760  -3.239  22.377  0.00  0.00    +0.239 C 
ATOM      5  C   UNL     1       6.416  -1.965  23.077  0.00  0.00    +0.022 C 
ATOM      6  C   UNL     1       7.220  -1.355  23.957  0.00  0.00    -0.002 C 
ENDROOT
BRANCH   4   7
ATOM      7  N   UNL     1       5.792  -4.292  22.708  0.00  0.00    -0.232 N 
ATOM      8  C   UNL     1       5.765  -5.425  21.900  0.00  0.00    +0.312 C 
ATOM      9  O   UNL     1       6.433  -5.564  20.878  0.00  0.00    -0.252 OA
ATOM     10  N   UNL     1       4.934  -6.435  22.280  0.00  0.00    -0.255 N 
ATOM     11  H   UNL     1       4.863  -7.204  21.636  0.00  0.00    +0.155 HD
ATOM     12  C   UNL     1       3.993  -6.386  23.321  0.00  0.00    +0.211 C 
ATOM     13  C   UNL     1       4.037  -5.117  24.062  0.00  0.00    +0.060 C 
ATOM     14  C   UNL     1       4.889  -4.140  23.744  0.00  0.00    +0.084 C 
BRANCH  12  15
ATOM     15  N   UNL     1       4.257  -7.507  24.149  0.00  0.00    -0.284 NA
ATOM     16  H   UNL     1       4.673  -8.218  23.559  0.00  0.00    +0.123 HD
ATOM     17  H   UNL     1       4.956  -7.231  24.829  0.00  0.00    +0.123 HD
ENDBRANCH  12  15
BRANCH  12  18
ATOM     18  O   UNL     1       2.745  -6.554  22.725  0.00  0.00    -0.356 OA
ATOM     19  H   UNL     1       2.760  -7.457  22.370  0.00  0.00    +0.214 HD
ENDBRANCH  12  18
ENDBRANCH   4   7
BRANCH   1  21
ATOM     20  C   UNL     1       9.819   0.173  24.694  0.00  0.00    +0.215 C 
ATOM     21  N   UNL     1       9.539  -0.937  23.926  0.00  0.00    -0.306 N 
ATOM     22  H   UNL     1      10.149  -1.143  23.139  0.00  0.00    +0.149 HD
ATOM     23  O   UNL     1       9.312   0.364  25.795  0.00  0.00    -0.276 OA
BRANCH  20  24
ATOM     24  C   UNL     1      10.838   1.130  24.101  0.00  0.00    +0.114 C 
BRANCH  24  25
ATOM     25  C   UNL     1      10.187   2.160  23.167  0.00  0.00    +0.062 C 
BRANCH  25  26
ATOM     26  N   UNL     1       8.785   1.774  22.917  0.00  0.00    -0.327 NA
ATOM     27  H   UNL     1       8.314   1.594  23.805  0.00  0.00    +0.118 HD
ATOM     28  H   UNL     1       8.283   2.560  22.502  0.00  0.00    +0.118 HD
ENDBRANCH  25  26
BRANCH  25  29
ATOM     29  C   UNL     1      10.189   3.597  23.744  0.00  0.00    +0.056 C 
BRANCH  29  30
ATOM     30  C   UNL     1       8.802   4.151  24.107  0.00  0.00    +0.200 C 
BRANCH  30  32
ATOM     31  C   UNL     1       9.247   6.494  23.414  0.00  0.00    +0.242 C 
ATOM     32  N   UNL     1       8.441   5.287  23.238  0.00  0.00    -0.265 N 
ATOM     33  C   UNL     1       7.516   5.176  22.233  0.00  0.00    +0.378 C 
ATOM     34  N   UNL     1       6.788   4.157  21.944  0.00  0.00    -0.130 NA
ATOM     35  H   UNL     1       6.988   3.391  22.580  0.00  0.00    +0.306 HD
ATOM     36  N   UNL     1       7.338   6.261  21.446  0.00  0.00    -0.289 N 
ATOM     37  H   UNL     1       6.535   6.096  20.846  0.00  0.00    +0.255 HD
ATOM     38  H   UNL     1       7.225   7.126  21.954  0.00  0.00    +0.255 HD
ENDBRANCH  30  32
ENDBRANCH  29  30
ENDBRANCH  25  29
ENDBRANCH  24  25
ENDBRANCH  20  24
ENDBRANCH   1  21
BRANCH   2  39
ATOM     39  C   UNL     1       8.661  -4.446  24.813  0.00  0.00    +0.336 C 
ATOM     40  O   UNL     1       7.885  -4.458  25.755  0.00  0.00    -0.248 OA
BRANCH  39  41
ATOM     41  O   UNL     1       9.525  -5.472  24.579  0.00  0.00    -0.479 OA
ATOM     42  H   UNL     1       9.706  -5.954  25.416  0.00  0.00    +0.295 HD
ENDBRANCH  39  41
ENDBRANCH   2  39
TORSDOF 12
ENDMDL
MODEL 2
REMARK VINA RESULT:      -7.5      2.384      2.679
REMARK  Name = 
REMARK  13 active torsions:
REMARK  status: ('A' for Active; 'I' for Inactive)
REMARK    1  A    between atoms: C_1  and  N_2
REMARK    2  A    between atoms: N_2  and  C_3
REMARK    3  A    between atoms: C_3  and  C_4
REMARK    4  A    between atoms: C_4  and  C_5
REMARK    5  A    between atoms: C_5  and  N_7
REMARK    6  A    between atoms: C_5  and  C_8
REMARK    7  A    between atoms: C_8  and  C_9
REMARK    8  A    between atoms: N_11  and  C_12
REMARK    9  A    between atoms: C_16  and  N_24
REMARK   10  A    between atoms: C_19  and  C_21
REMARK   11  A    between atoms: C_21  and  O_22
REMARK   12  A    between atoms: C_27  and  N_28
REMARK   13  A    between atoms: C_27  and  O_29
REMARK                            x       y       z     vdW  Elec       q    Type
REMARK                         _______ _______ _______ _____ _____    ______ ____
ROOT
ATOM      1  C   UNL     1       8.596  -2.621  24.609  0.00  0.00    +0.136 C 
ATOM      2  C   UNL     1       8.621  -4.165  24.464  0.00  0.00    +0.253 C 
ATOM      3  O   UNL     1       7.388  -4.822  24.116  0.00  0.00    -0.338 OA
ATOM      4  C   UNL     1       6.152  -4.312  24.647  0.00  0.00    +0.239 C 
ATOM      5  C   UNL     1       6.150  -2.852  24.970  0.00  0.00    +0.022 C 
ATOM      6  C   UNL     1       7.242  -2.079  24.940  0.00  0.00    -0.002 C 
ENDROOT
BRANCH   4   7
ATOM      7  N   UNL     1       5.708  -5.100  25.804  0.00  0.00    -0.232 N 
ATOM      8  C   UNL     1       5.163  -6.357  25.559  0.00  0.00    +0.312 C 
ATOM      9  O   UNL     1       4.946  -6.813  24.439  0.00  0.00    -0.252 OA
ATOM     10  N   UNL     1       4.850  -7.116  26.646  0.00  0.00    -0.255 N 
ATOM     11  H   UNL     1       4.376  -7.981  26.449  0.00  0.00    +0.155 HD
ATOM     12  C   UNL     1       4.885  -6.698  27.986  0.00  0.00    +0.211 C 
ATOM     13  C   UNL     1       5.393  -5.327  28.136  0.00  0.00    +0.060 C 
ATOM     14  C   UNL     1       5.764  -4.590  27.087  0.00  0.00    +0.084 C 
BRANCH  12  15
ATOM     15  N   UNL     1       5.678  -7.650  28.678  0.00  0.00    -0.284 NA
ATOM     16  H   UNL     1       5.868  -7.264  29.595  0.00  0.00    +0.123 HD
ATOM     17  H   UNL     1       5.116  -8.483  28.810  0.00  0.00    +0.123 HD
ENDBRANCH  12  15
BRANCH  12  18
ATOM     18  O   UNL     1       3.576  -6.783  28.453  0.00  0.00    -0.356 OA
ATOM     19  H   UNL     1       3.312  -5.864  28.617  0.00  0.00    +0.214 HD
ENDBRANCH  12  18
ENDBRANCH   4   7
BRANCH   1  21
ATOM     20  C   UNL     1       9.789  -0.794  23.442  0.00  0.00    +0.215 C 
ATOM     21  N   UNL     1       9.010  -1.930  23.388  0.00  0.00    -0.306 N 
ATOM     22  H   UNL     1       8.862  -2.370  22.484  0.00  0.00    +0.149 HD
ATOM     23  O   UNL     1      10.232  -0.341  24.492  0.00  0.00    -0.276 OA
BRANCH  20  24
ATOM     24  C   UNL     1      10.101  -0.159  22.098  0.00  0.00    +0.114 C 
BRANCH  24  25
ATOM     25  C   UNL     1       9.197   1.046  21.806  0.00  0.00    +0.062 C 
BRANCH  25  26
ATOM     26  N   UNL     1       7.846   0.784  22.338  0.00  0.00    -0.327 NA
ATOM     27  H   UNL     1       7.357   0.128  21.726  0.00  0.00    +0.118 HD
ATOM     28  H   UNL     1       7.920   0.305  23.237  0.00  0.00    +0.118 HD
ENDBRANCH  25  26
BRANCH  25  29
ATOM     29  C   UNL     1       9.710   2.364  22.437  0.00  0.00    +0.056 C 
BRANCH  29  30
ATOM     30  C   UNL     1       8.796   2.963  23.518  0.00  0.00    +0.200 C 
BRANCH  30  32
ATOM     31  C   UNL     1       9.128   5.424  23.556  0.00  0.00    +0.242 C 
ATOM     32  N   UNL     1       8.306   4.296  23.119  0.00  0.00    -0.265 N 
ATOM     33  C   UNL     1       7.241   4.462  22.273  0.00  0.00    +0.378 C 
ATOM     34  N   UNL     1       6.480   3.553  21.779  0.00  0.00    -0.130 NA
ATOM     35  H   UNL     1       6.775   2.635  22.101  0.00  0.00    +0.306 HD
ATOM     36  N   UNL     1       6.946   5.730  21.908  0.00  0.00    -0.289 N 
ATOM     37  H   UNL     1       6.061   5.724  21.407  0.00  0.00    +0.255 HD
ATOM     38  H   UNL     1       6.908   6.384  22.677  0.00  0.00    +0.255 HD
ENDBRANCH  30  32
ENDBRANCH  29  30
ENDBRANCH  25  29
ENDBRANCH  24  25
ENDBRANCH  20  24
ENDBRANCH   1  21
BRANCH   2  39
ATOM     39  C   UNL     1       9.260  -4.866  25.667  0.00  0.00    +0.336 C 
ATOM     40  O   UNL     1       9.168  -4.527  26.835  0.00  0.00    -0.248 OA
BRANCH  39  41
ATOM     41  O   UNL     1       9.979  -5.958  25.287  0.00  0.00    -0.479 OA
ATOM     42  H   UNL     1      10.929  -5.719  25.206  0.00  0.00    +0.295 HD
ENDBRANCH  39  41
ENDBRANCH   2  39
TORSDOF 12
ENDMDL
MODEL 3
REMARK VINA RESULT:      -7.4      2.353      3.379
REMARK  Name = 
REMARK  13 active torsions:
REMARK  status: ('A' for Active; 'I' for Inactive)
REMARK    1  A    between atoms: C_1  and  N_2
REMARK    2  A    between atoms: N_2  and  C_3
REMARK    3  A    between atoms: C_3  and  C_4
REMARK    4  A    between atoms: C_4  and  C_5
REMARK    5  A    between atoms: C_5  and  N_7
REMARK    6  A    between atoms: C_5  and  C_8
REMARK    7  A    between atoms: C_8  and  C_9
REMARK    8  A    between atoms: N_11  and  C_12
REMARK    9  A    between atoms: C_16  and  N_24
REMARK   10  A    between atoms: C_19  and  C_21
REMARK   11  A    between atoms: C_21  and  O_22
REMARK   12  A    between atoms: C_27  and  N_28
REMARK   13  A    between atoms: C_27  and  O_29
REMARK                            x       y       z     vdW  Elec       q    Type
REMARK                         _______ _______ _______ _____ _____    ______ ____
ROOT
ATOM      1  C   UNL     1       7.673  -3.425  23.893  0.00  0.00    +0.136 C 
ATOM      2  C   UNL     1       6.448  -3.601  22.958  0.00  0.00    +0.253 C 
ATOM      3  O   UNL     1       5.142  -3.375  23.522  0.00  0.00    -0.338 OA
ATOM      4  C   UNL     1       4.892  -3.771  24.883  0.00  0.00    +0.239 C 
ATOM      5  C   UNL     1       6.092  -3.788  25.774  0.00  0.00    +0.022 C 
ATOM      6  C   UNL     1       7.347  -3.617  25.340  0.00  0.00    -0.002 C 
ENDROOT
BRANCH   4   7
ATOM      7  N   UNL     1       4.187  -5.058  24.938  0.00  0.00    -0.232 N 
ATOM      8  C   UNL     1       2.804  -5.046  24.779  0.00  0.00    +0.312 C 
ATOM      9  O   UNL     1       2.126  -4.025  24.685  0.00  0.00    -0.252 OA
ATOM     10  N   UNL     1       2.178  -6.254  24.731  0.00  0.00    -0.255 N 
ATOM     11  H   UNL     1       1.173  -6.221  24.706  0.00  0.00    +0.155 HD
ATOM     12  C   UNL     1       2.768  -7.504  24.975  0.00  0.00    +0.211 C 
ATOM     13  C   UNL     1       4.215  -7.406  25.218  0.00  0.00    +0.060 C 
ATOM     14  C   UNL     1       4.858  -6.237  25.207  0.00  0.00    +0.084 C 
BRANCH  12  15
ATOM     15  N   UNL     1       2.461  -8.315  23.852  0.00  0.00    -0.284 NA
ATOM     16  H   UNL     1       1.927  -9.105  24.196  0.00  0.00    +0.123 HD
ATOM     17  H   UNL     1       1.852  -7.781  23.243  0.00  0.00    +0.123 HD
ENDBRANCH  12  15
BRANCH  12  18
ATOM     18  O   UNL     1       2.124  -8.027  26.094  0.00  0.00    -0.356 OA
ATOM     19  H   UNL     1       1.250  -8.297  25.773  0.00  0.00    +0.214 HD
ENDBRANCH  12  18
ENDBRANCH   4   7
BRANCH   1  21
ATOM     20  C   UNL     1       9.640  -1.935  23.709  0.00  0.00    +0.215 C 
ATOM     21  N   UNL     1       8.274  -2.095  23.797  0.00  0.00    -0.306 N 
ATOM     22  H   UNL     1       7.683  -1.285  23.632  0.00  0.00    +0.149 HD
ATOM     23  O   UNL     1      10.417  -2.882  23.638  0.00  0.00    -0.276 OA
BRANCH  20  24
ATOM     24  C   UNL     1      10.121  -0.496  23.663  0.00  0.00    +0.114 C 
BRANCH  24  25
ATOM     25  C   UNL     1      10.241   0.028  22.225  0.00  0.00    +0.062 C 
BRANCH  25  26
ATOM     26  N   UNL     1       9.408  -0.801  21.333  0.00  0.00    -0.327 NA
ATOM     27  H   UNL     1       9.923  -1.006  20.475  0.00  0.00    +0.118 HD
ATOM     28  H   UNL     1       9.242  -1.710  21.767  0.00  0.00    +0.118 HD
ENDBRANCH  25  26
BRANCH  25  29
ATOM     29  C   UNL     1       9.786   1.499  22.069  0.00  0.00    +0.056 C 
BRANCH  29  30
ATOM     30  C   UNL     1       8.467   1.692  21.304  0.00  0.00    +0.200 C 
BRANCH  30  32
ATOM     31  C   UNL     1       7.220   3.625  22.240  0.00  0.00    +0.242 C 
ATOM     32  N   UNL     1       7.399   2.174  22.200  0.00  0.00    -0.265 N 
ATOM     33  C   UNL     1       6.536   1.321  22.836  0.00  0.00    +0.378 C 
ATOM     34  N   UNL     1       6.554   0.037  22.832  0.00  0.00    -0.130 NA
ATOM     35  H   UNL     1       7.328  -0.302  22.266  0.00  0.00    +0.306 HD
ATOM     36  N   UNL     1       5.541   1.887  23.557  0.00  0.00    -0.289 N 
ATOM     37  H   UNL     1       5.071   1.157  24.086  0.00  0.00    +0.255 HD
ATOM     38  H   UNL     1       5.846   2.626  24.173  0.00  0.00    +0.255 HD
ENDBRANCH  30  32
ENDBRANCH  29  30
ENDBRANCH  25  29
ENDBRANCH  24  25
ENDBRANCH  20  24
ENDBRANCH   1  21
BRANCH   2  39
ATOM     39  C   UNL     1       6.462  -4.931  22.201  0.00  0.00    +0.336 C 
ATOM     40  O   UNL     1       5.641  -5.307  21.380  0.00  0.00    -0.248 OA
BRANCH  39  41
ATOM     41  O   UNL     1       7.533  -5.696  22.552  0.00  0.00    -0.479 OA
ATOM     42  H   UNL     1       8.321  -5.124  22.687  0.00  0.00    +0.295 HD
ENDBRANCH  39  41
ENDBRANCH   2  39
TORSDOF 12
ENDMDL
MODEL 4
REMARK VINA RESULT:      -7.3      2.254      8.881
REMARK  Name = 
REMARK  13 active torsions:
REMARK  status: ('A' for Active; 'I' for Inactive)
REMARK    1  A    between atoms: C_1  and  N_2
REMARK    2  A    between atoms: N_2  and  C_3
REMARK    3  A    between atoms: C_3  and  C_4
REMARK    4  A    between atoms: C_4  and  C_5
REMARK    5  A    between atoms: C_5  and  N_7
REMARK    6  A    between atoms: C_5  and  C_8
REMARK    7  A    between atoms: C_8  and  C_9
REMARK    8  A    between atoms: N_11  and  C_12
REMARK    9  A    between atoms: C_16  and  N_24
REMARK   10  A    between atoms: C_19  and  C_21
REMARK   11  A    between atoms: C_21  and  O_22
REMARK   12  A    between atoms: C_27  and  N_28
REMARK   13  A    between atoms: C_27  and  O_29
REMARK                            x       y       z     vdW  Elec       q    Type
REMARK                         _______ _______ _______ _____ _____    ______ ____
ROOT
ATOM      1  C   UNL     1       8.895  -1.554  23.137  0.00  0.00    +0.136 C 
ATOM      2  C   UNL     1       7.833  -0.592  23.732  0.00  0.00    +0.253 C 
ATOM      3  O   UNL     1       7.355   0.474  22.890  0.00  0.00    -0.338 OA
ATOM      4  C   UNL     1       8.274   1.116  21.988  0.00  0.00    +0.239 C 
ATOM      5  C   UNL     1       9.419   0.269  21.534  0.00  0.00    +0.022 C 
ATOM      6  C   UNL     1       9.698  -0.942  22.033  0.00  0.00    -0.002 C 
ENDROOT
BRANCH   4   7
ATOM      7  N   UNL     1       8.757   2.388  22.540  0.00  0.00    -0.232 N 
ATOM      8  C   UNL     1       7.916   3.493  22.452  0.00  0.00    +0.312 C 
ATOM      9  O   UNL     1       6.836   3.497  21.865  0.00  0.00    -0.252 OA
ATOM     10  N   UNL     1       8.335   4.638  23.058  0.00  0.00    -0.255 N 
ATOM     11  H   UNL     1       7.755   5.446  22.906  0.00  0.00    +0.155 HD
ATOM     12  C   UNL     1       9.596   4.857  23.634  0.00  0.00    +0.211 C 
ATOM     13  C   UNL     1      10.445   3.657  23.603  0.00  0.00    +0.060 C 
ATOM     14  C   UNL     1      10.029   2.507  23.069  0.00  0.00    +0.084 C 
BRANCH  12  15
ATOM     15  N   UNL     1       9.355   5.317  24.954  0.00  0.00    -0.284 NA
ATOM     16  H   UNL     1       9.427   4.512  25.565  0.00  0.00    +0.123 HD
ATOM     17  H   UNL     1      10.105   5.952  25.202  0.00  0.00    +0.123 HD
ENDBRANCH  12  15
BRANCH  12  18
ATOM     18  O   UNL     1      10.185   5.885  22.902  0.00  0.00    -0.356 OA
ATOM     19  H   UNL     1      10.332   5.508  22.020  0.00  0.00    +0.214 HD
ENDBRANCH  12  18
ENDBRANCH   4   7
BRANCH   1  21
ATOM     20  C   UNL     1       7.929  -3.819  23.378  0.00  0.00    +0.215 C 
ATOM     21  N   UNL     1       8.308  -2.768  22.571  0.00  0.00    -0.306 N 
ATOM     22  H   UNL     1       8.025  -2.784  21.595  0.00  0.00    +0.149 HD
ATOM     23  O   UNL     1       7.997  -3.776  24.602  0.00  0.00    -0.276 OA
BRANCH  20  24
ATOM     24  C   UNL     1       7.379  -5.031  22.646  0.00  0.00    +0.114 C 
BRANCH  24  25
ATOM     25  C   UNL     1       6.094  -4.705  21.874  0.00  0.00    +0.062 C 
BRANCH  25  26
ATOM     26  N   UNL     1       5.423  -5.962  21.490  0.00  0.00    -0.327 NA
ATOM     27  H   UNL     1       4.439  -5.923  21.762  0.00  0.00    +0.118 HD
ATOM     28  H   UNL     1       5.415  -6.048  20.472  0.00  0.00    +0.118 HD
ENDBRANCH  25  26
BRANCH  25  29
ATOM     29  C   UNL     1       5.087  -3.858  22.690  0.00  0.00    +0.056 C 
BRANCH  29  30
ATOM     30  C   UNL     1       3.983  -4.664  23.393  0.00  0.00    +0.200 C 
BRANCH  30  32
ATOM     31  C   UNL     1       4.627  -4.173  25.741  0.00  0.00    +0.242 C 
ATOM     32  N   UNL     1       4.448  -5.179  24.694  0.00  0.00    -0.265 N 
ATOM     33  C   UNL     1       4.563  -6.519  24.953  0.00  0.00    +0.378 C 
ATOM     34  N   UNL     1       4.379  -7.496  24.139  0.00  0.00    -0.130 NA
ATOM     35  H   UNL     1       4.119  -7.144  23.222  0.00  0.00    +0.306 HD
ATOM     36  N   UNL     1       4.911  -6.869  26.213  0.00  0.00    -0.289 N 
ATOM     37  H   UNL     1       5.100  -7.867  26.230  0.00  0.00    +0.255 HD
ATOM     38  H   UNL     1       5.698  -6.356  26.581  0.00  0.00    +0.255 HD
ENDBRANCH  30  32
ENDBRANCH  29  30
ENDBRANCH  25  29
ENDBRANCH  24  25
ENDBRANCH  20  24
ENDBRANCH   1  21
BRANCH   2  39
ATOM     39  C   UNL     1       8.234  -0.034  25.099  0.00  0.00    +0.336 C 
ATOM     40  O   UNL     1       7.965   1.072  25.538  0.00  0.00    -0.248 OA
BRANCH  39  41
ATOM     41  O   UNL     1       8.962  -0.936  25.815  0.00  0.00    -0.479 OA
ATOM     42  H   UNL     1       9.083  -0.612  26.735  0.00  0.00    +0.295 HD
ENDBRANCH  39  41
ENDBRANCH   2  39
TORSDOF 12
ENDMDL
MODEL 5
REMARK VINA RESULT:      -7.3      2.195      3.196
REMARK  Name = 
REMARK  13 active torsions:
REMARK  status: ('A' for Active; 'I' for Inactive)
REMARK    1  A    between atoms: C_1  and  N_2
REMARK    2  A    between atoms: N_2  and  C_3
REMARK    3  A    between atoms: C_3  and  C_4
REMARK    4  A    between atoms: C_4  and  C_5
REMARK    5  A    between atoms: C_5  and  N_7
REMARK    6  A    between atoms: C_5  and  C_8
REMARK    7  A    between atoms: C_8  and  C_9
REMARK    8  A    between atoms: N_11  and  C_12
REMARK    9  A    between atoms: C_16  and  N_24
REMARK   10  A    between atoms: C_19  and  C_21
REMARK   11  A    between atoms: C_21  and  O_22
REMARK   12  A    between atoms: C_27  and  N_28
REMARK   13  A    between atoms: C_27  and  O_29
REMARK                            x       y       z     vdW  Elec       q    Type
REMARK                         _______ _______ _______ _____ _____    ______ ____
ROOT
ATOM      1  C   UNL     1       7.482  -3.152  22.730  0.00  0.00    +0.136 C 
ATOM      2  C   UNL     1       6.341  -3.908  22.001  0.00  0.00    +0.253 C 
ATOM      3  O   UNL     1       4.997  -3.707  22.480  0.00  0.00    -0.338 OA
ATOM      4  C   UNL     1       4.776  -3.549  23.893  0.00  0.00    +0.239 C 
ATOM      5  C   UNL     1       5.929  -2.988  24.660  0.00  0.00    +0.022 C 
ATOM      6  C   UNL     1       7.147  -2.789  24.142  0.00  0.00    -0.002 C 
ENDROOT
BRANCH   4   7
ATOM      7  N   UNL     1       4.311  -4.804  24.498  0.00  0.00    -0.232 N 
ATOM      8  C   UNL     1       2.940  -5.042  24.522  0.00  0.00    +0.312 C 
ATOM      9  O   UNL     1       2.089  -4.235  24.152  0.00  0.00    -0.252 OA
ATOM     10  N   UNL     1       2.531  -6.252  24.994  0.00  0.00    -0.255 N 
ATOM     11  H   UNL     1       1.536  -6.368  25.086  0.00  0.00    +0.155 HD
ATOM     12  C   UNL     1       3.346  -7.224  25.596  0.00  0.00    +0.211 C 
ATOM     13  C   UNL     1       4.766  -6.845  25.601  0.00  0.00    +0.060 C 
ATOM     14  C   UNL     1       5.193  -5.690  25.087  0.00  0.00    +0.084 C 
BRANCH  12  15
ATOM     15  N   UNL     1       3.110  -8.432  24.890  0.00  0.00    -0.284 NA
ATOM     16  H   UNL     1       2.759  -9.104  25.563  0.00  0.00    +0.123 HD
ATOM     17  H   UNL     1       2.369  -8.260  24.221  0.00  0.00    +0.123 HD
ENDBRANCH  12  15
BRANCH  12  18
ATOM     18  O   UNL     1       2.879  -7.369  26.900  0.00  0.00    -0.356 OA
ATOM     19  H   UNL     1       2.603  -6.477  27.164  0.00  0.00    +0.214 HD
ENDBRANCH  12  18
ENDBRANCH   4   7
BRANCH   1  21
ATOM     20  C   UNL     1       9.148  -1.471  22.008  0.00  0.00    +0.215 C 
ATOM     21  N   UNL     1       7.838  -1.894  22.074  0.00  0.00    -0.306 N 
ATOM     22  H   UNL     1       7.144  -1.399  21.520  0.00  0.00    +0.149 HD
ATOM     23  O   UNL     1      10.086  -2.142  22.428  0.00  0.00    -0.276 OA
BRANCH  20  24
ATOM     24  C   UNL     1       9.361  -0.124  21.339  0.00  0.00    +0.114 C 
BRANCH  24  25
ATOM     25  C   UNL     1       9.962   0.910  22.301  0.00  0.00    +0.062 C 
BRANCH  25  26
ATOM     26  N   UNL     1      10.038   2.219  21.625  0.00  0.00    -0.327 NA
ATOM     27  H   UNL     1       9.401   2.230  20.825  0.00  0.00    +0.118 HD
ATOM     28  H   UNL     1       9.692   2.948  22.251  0.00  0.00    +0.118 HD
ENDBRANCH  25  26
BRANCH  25  29
ATOM     29  C   UNL     1       9.137   1.092  23.598  0.00  0.00    +0.056 C 
BRANCH  29  30
ATOM     30  C   UNL     1       8.526   2.489  23.787  0.00  0.00    +0.200 C 
BRANCH  30  32
ATOM     31  C   UNL     1       6.212   1.594  23.884  0.00  0.00    +0.242 C 
ATOM     32  N   UNL     1       7.145   2.539  23.272  0.00  0.00    -0.265 N 
ATOM     33  C   UNL     1       6.725   3.500  22.390  0.00  0.00    +0.378 C 
ATOM     34  N   UNL     1       7.432   4.414  21.830  0.00  0.00    -0.130 NA
ATOM     35  H   UNL     1       8.399   4.346  22.133  0.00  0.00    +0.306 HD
ATOM     36  N   UNL     1       5.413   3.495  22.064  0.00  0.00    -0.289 N 
ATOM     37  H   UNL     1       5.268   4.155  21.304  0.00  0.00    +0.255 HD
ATOM     38  H   UNL     1       5.052   2.587  21.813  0.00  0.00    +0.255 HD
ENDBRANCH  30  32
ENDBRANCH  29  30
ENDBRANCH  25  29
ENDBRANCH  24  25
ENDBRANCH  20  24
ENDBRANCH   1  21
BRANCH   2  39
ATOM     39  C   UNL     1       6.619  -5.406  21.853  0.00  0.00    +0.336 C 
ATOM     40  O   UNL     1       7.597  -6.007  22.267  0.00  0.00    -0.248 OA
BRANCH  39  41
ATOM     41  O   UNL     1       5.620  -6.037  21.175  0.00  0.00    -0.479 OA
ATOM     42  H   UNL     1       5.553  -6.971  21.473  0.00  0.00    +0.295 HD
ENDBRANCH  39  41
ENDBRANCH   2  39
TORSDOF 12
ENDMDL
MODEL 6
REMARK VINA RESULT:      -7.2      2.750      4.136
REMARK  Name = 
REMARK  13 active torsions:
REMARK  status: ('A' for Active; 'I' for Inactive)
REMARK    1  A    between atoms: C_1  and  N_2
REMARK    2  A    between atoms: N_2  and  C_3
REMARK    3  A    between atoms: C_3  and  C_4
REMARK    4  A    between atoms: C_4  and  C_5
REMARK    5  A    between atoms: C_5  and  N_7
REMARK    6  A    between atoms: C_5  and  C_8
REMARK    7  A    between atoms: C_8  and  C_9
REMARK    8  A    between atoms: N_11  and  C_12
REMARK    9  A    between atoms: C_16  and  N_24
REMARK   10  A    between atoms: C_19  and  C_21
REMARK   11  A    between atoms: C_21  and  O_22
REMARK   12  A    between atoms: C_27  and  N_28
REMARK   13  A    between atoms: C_27  and  O_29
REMARK                            x       y       z     vdW  Elec       q    Type
REMARK                         _______ _______ _______ _____ _____    ______ ____
ROOT
ATOM      1  C   UNL     1       7.507  -3.171  22.728  0.00  0.00    +0.136 C 
ATOM      2  C   UNL     1       6.323  -3.899  22.040  0.00  0.00    +0.253 C 
ATOM      3  O   UNL     1       5.003  -3.670  22.570  0.00  0.00    -0.338 OA
ATOM      4  C   UNL     1       4.839  -3.514  23.991  0.00  0.00    +0.239 C 
ATOM      5  C   UNL     1       6.032  -2.982  24.716  0.00  0.00    +0.022 C 
ATOM      6  C   UNL     1       7.234  -2.808  24.153  0.00  0.00    -0.002 C 
ENDROOT
BRANCH   4   7
ATOM      7  N   UNL     1       4.369  -4.761  24.608  0.00  0.00    -0.232 N 
ATOM      8  C   UNL     1       2.996  -4.978  24.665  0.00  0.00    +0.312 C 
ATOM      9  O   UNL     1       2.149  -4.158  24.315  0.00  0.00    -0.252 OA
ATOM     10  N   UNL     1       2.580  -6.182  25.148  0.00  0.00    -0.255 N 
ATOM     11  H   UNL     1       1.586  -6.282  25.264  0.00  0.00    +0.155 HD
ATOM     12  C   UNL     1       3.394  -7.165  25.732  0.00  0.00    +0.211 C 
ATOM     13  C   UNL     1       4.820  -6.808  25.703  0.00  0.00    +0.060 C 
ATOM     14  C   UNL     1       5.252  -5.660  25.177  0.00  0.00    +0.084 C 
BRANCH  12  15
ATOM     15  N   UNL     1       3.123  -8.371  25.033  0.00  0.00    -0.284 NA
ATOM     16  H   UNL     1       3.808  -9.051  25.341  0.00  0.00    +0.123 HD
ATOM     17  H   UNL     1       2.213  -8.702  25.331  0.00  0.00    +0.123 HD
ENDBRANCH  12  15
BRANCH  12  18
ATOM     18  O   UNL     1       2.956  -7.302  27.047  0.00  0.00    -0.356 OA
ATOM     19  H   UNL     1       1.990  -7.235  26.994  0.00  0.00    +0.214 HD
ENDBRANCH  12  18
ENDBRANCH   4   7
BRANCH   1  21
ATOM     20  C   UNL     1       9.171  -1.474  22.038  0.00  0.00    +0.215 C 
ATOM     21  N   UNL     1       7.867  -1.918  22.064  0.00  0.00    -0.306 N 
ATOM     22  H   UNL     1       7.185  -1.444  21.477  0.00  0.00    +0.149 HD
ATOM     23  O   UNL     1      10.103  -2.122  22.502  0.00  0.00    -0.276 OA
BRANCH  20  24
ATOM     24  C   UNL     1       9.385  -0.135  21.354  0.00  0.00    +0.114 C 
BRANCH  24  25
ATOM     25  C   UNL     1       9.852   0.947  22.337  0.00  0.00    +0.062 C 
BRANCH  25  26
ATOM     26  N   UNL     1      10.175   2.178  21.590  0.00  0.00    -0.327 NA
ATOM     27  H   UNL     1      11.017   2.030  21.031  0.00  0.00    +0.118 HD
ATOM     28  H   UNL     1       9.436   2.371  20.913  0.00  0.00    +0.118 HD
ENDBRANCH  25  26
BRANCH  25  29
ATOM     29  C   UNL     1       8.790   1.304  23.405  0.00  0.00    +0.056 C 
BRANCH  29  30
ATOM     30  C   UNL     1       9.145   0.880  24.839  0.00  0.00    +0.200 C 
BRANCH  30  32
ATOM     31  C   UNL     1       6.667   0.734  24.909  0.00  0.00    +0.242 C 
ATOM     32  N   UNL     1       7.937   0.498  25.594  0.00  0.00    -0.265 N 
ATOM     33  C   UNL     1       8.000  -0.167  26.791  0.00  0.00    +0.378 C 
ATOM     34  N   UNL     1       9.050  -0.480  27.461  0.00  0.00    -0.130 NA
ATOM     35  H   UNL     1       9.884  -0.163  26.976  0.00  0.00    +0.306 HD
ATOM     36  N   UNL     1       6.824  -0.543  27.341  0.00  0.00    -0.289 N 
ATOM     37  H   UNL     1       7.003  -0.890  28.279  0.00  0.00    +0.255 HD
ATOM     38  H   UNL     1       6.126   0.186  27.364  0.00  0.00    +0.255 HD
ENDBRANCH  30  32
ENDBRANCH  29  30
ENDBRANCH  25  29
ENDBRANCH  24  25
ENDBRANCH  20  24
ENDBRANCH   1  21
BRANCH   2  39
ATOM     39  C   UNL     1       6.562  -5.402  21.875  0.00  0.00    +0.336 C 
ATOM     40  O   UNL     1       7.604  -5.998  22.093  0.00  0.00    -0.248 OA
BRANCH  39  41
ATOM     41  O   UNL     1       5.443  -6.042  21.436  0.00  0.00    -0.479 OA
ATOM     42  H   UNL     1       4.711  -5.396  21.324  0.00  0.00    +0.295 HD
ENDBRANCH  39  41
ENDBRANCH   2  39
TORSDOF 12
ENDMDL
MODEL 7
REMARK VINA RESULT:      -7.0      2.542      8.272
REMARK  Name = 
REMARK  13 active torsions:
REMARK  status: ('A' for Active; 'I' for Inactive)
REMARK    1  A    between atoms: C_1  and  N_2
REMARK    2  A    between atoms: N_2  and  C_3
REMARK    3  A    between atoms: C_3  and  C_4
REMARK    4  A    between atoms: C_4  and  C_5
REMARK    5  A    between atoms: C_5  and  N_7
REMARK    6  A    between atoms: C_5  and  C_8
REMARK    7  A    between atoms: C_8  and  C_9
REMARK    8  A    between atoms: N_11  and  C_12
REMARK    9  A    between atoms: C_16  and  N_24
REMARK   10  A    between atoms: C_19  and  C_21
REMARK   11  A    between atoms: C_21  and  O_22
REMARK   12  A    between atoms: C_27  and  N_28
REMARK   13  A    between atoms: C_27  and  O_29
REMARK                            x       y       z     vdW  Elec       q    Type
REMARK                         _______ _______ _______ _____ _____    ______ ____
ROOT
ATOM      1  C   UNL     1       7.377  -2.349  25.525  0.00  0.00    +0.136 C 
ATOM      2  C   UNL     1       6.646  -1.404  24.536  0.00  0.00    +0.253 C 
ATOM      3  O   UNL     1       7.281  -1.146  23.269  0.00  0.00    -0.338 OA
ATOM      4  C   UNL     1       8.715  -1.039  23.217  0.00  0.00    +0.239 C 
ATOM      5  C   UNL     1       9.451  -1.797  24.275  0.00  0.00    +0.022 C 
ATOM      6  C   UNL     1       8.856  -2.404  25.309  0.00  0.00    -0.002 C 
ENDROOT
BRANCH   4   7
ATOM      7  N   UNL     1       9.141   0.366  23.194  0.00  0.00    -0.232 N 
ATOM      8  C   UNL     1       9.245   0.991  21.956  0.00  0.00    +0.312 C 
ATOM      9  O   UNL     1       9.091   0.422  20.877  0.00  0.00    -0.252 OA
ATOM     10  N   UNL     1       9.541   2.320  21.957  0.00  0.00    -0.255 N 
ATOM     11  H   UNL     1       9.700   2.730  21.053  0.00  0.00    +0.155 HD
ATOM     12  C   UNL     1       9.898   3.088  23.077  0.00  0.00    +0.211 C 
ATOM     13  C   UNL     1       9.842   2.318  24.329  0.00  0.00    +0.060 C 
ATOM     14  C   UNL     1       9.493   1.030  24.354  0.00  0.00    +0.084 C 
BRANCH  12  15
ATOM     15  N   UNL     1       9.024   4.205  23.088  0.00  0.00    -0.284 NA
ATOM     16  H   UNL     1       9.560   5.002  22.767  0.00  0.00    +0.123 HD
ATOM     17  H   UNL     1       8.296   4.034  22.405  0.00  0.00    +0.123 HD
ENDBRANCH  12  15
BRANCH  12  18
ATOM     18  O   UNL     1      11.196   3.537  22.844  0.00  0.00    -0.356 OA
ATOM     19  H   UNL     1      11.421   4.061  23.628  0.00  0.00    +0.214 HD
ENDBRANCH  12  18
ENDBRANCH   4   7
BRANCH   1  21
ATOM     20  C   UNL     1       6.180  -4.306  26.452  0.00  0.00    +0.215 C 
ATOM     21  N   UNL     1       6.914  -3.734  25.436  0.00  0.00    -0.306 N 
ATOM     22  H   UNL     1       6.990  -4.235  24.555  0.00  0.00    +0.149 HD
ATOM     23  O   UNL     1       5.819  -3.683  27.444  0.00  0.00    -0.276 OA
BRANCH  20  24
ATOM     24  C   UNL     1       5.809  -5.764  26.240  0.00  0.00    +0.114 C 
BRANCH  24  25
ATOM     25  C   UNL     1       4.479  -5.918  25.491  0.00  0.00    +0.062 C 
BRANCH  25  26
ATOM     26  N   UNL     1       3.987  -4.586  25.089  0.00  0.00    -0.327 NA
ATOM     27  H   UNL     1       3.532  -4.134  25.884  0.00  0.00    +0.118 HD
ATOM     28  H   UNL     1       4.780  -3.985  24.858  0.00  0.00    +0.118 HD
ENDBRANCH  25  26
BRANCH  25  29
ATOM     29  C   UNL     1       4.592  -6.789  24.215  0.00  0.00    +0.056 C 
BRANCH  29  30
ATOM     30  C   UNL     1       4.466  -6.018  22.892  0.00  0.00    +0.200 C 
BRANCH  30  32
ATOM     31  C   UNL     1       6.798  -6.529  22.207  0.00  0.00    +0.242 C 
ATOM     32  N   UNL     1       5.778  -5.510  22.447  0.00  0.00    -0.265 N 
ATOM     33  C   UNL     1       5.986  -4.192  22.136  0.00  0.00    +0.378 C 
ATOM     34  N   UNL     1       5.157  -3.217  22.249  0.00  0.00    -0.130 NA
ATOM     35  H   UNL     1       4.270  -3.552  22.615  0.00  0.00    +0.306 HD
ATOM     36  N   UNL     1       7.206  -3.866  21.652  0.00  0.00    -0.289 N 
ATOM     37  H   UNL     1       7.272  -2.853  21.602  0.00  0.00    +0.255 HD
ATOM     38  H   UNL     1       7.976  -4.242  22.185  0.00  0.00    +0.255 HD
ENDBRANCH  30  32
ENDBRANCH  29  30
ENDBRANCH  25  29
ENDBRANCH  24  25
ENDBRANCH  20  24
ENDBRANCH   1  21
BRANCH   2  39
ATOM     39  C   UNL     1       6.218  -0.083  25.180  0.00  0.00    +0.336 C 
ATOM     40  O   UNL     1       6.614   0.367  26.242  0.00  0.00    -0.248 OA
BRANCH  39  41
ATOM     41  O   UNL     1       5.301   0.573  24.415  0.00  0.00    -0.479 OA
ATOM     42  H   UNL     1       4.852   1.263  24.952  0.00  0.00    +0.295 HD
ENDBRANCH  39  41
ENDBRANCH   2  39
TORSDOF 12
ENDMDL
MODEL 8
REMARK VINA RESULT:      -7.0      2.674      5.268
REMARK  Name = 
REMARK  13 active torsions:
REMARK  status: ('A' for Active; 'I' for Inactive)
REMARK    1  A    between atoms: C_1  and  N_2
REMARK    2  A    between atoms: N_2  and  C_3
REMARK    3  A    between atoms: C_3  and  C_4
REMARK    4  A    between atoms: C_4  and  C_5
REMARK    5  A    between atoms: C_5  and  N_7
REMARK    6  A    between atoms: C_5  and  C_8
REMARK    7  A    between atoms: C_8  and  C_9
REMARK    8  A    between atoms: N_11  and  C_12
REMARK    9  A    between atoms: C_16  and  N_24
REMARK   10  A    between atoms: C_19  and  C_21
REMARK   11  A    between atoms: C_21  and  O_22
REMARK   12  A    between atoms: C_27  and  N_28
REMARK   13  A    between atoms: C_27  and  O_29
REMARK                            x       y       z     vdW  Elec       q    Type
REMARK                         _______ _______ _______ _____ _____    ______ ____
ROOT
ATOM      1  C   UNL     1       7.653   2.409  22.312  0.00  0.00    +0.136 C 
ATOM      2  C   UNL     1       7.405   1.879  23.748  0.00  0.00    +0.253 C 
ATOM      3  O   UNL     1       8.477   1.162  24.388  0.00  0.00    -0.338 OA
ATOM      4  C   UNL     1       9.316   0.305  23.592  0.00  0.00    +0.239 C 
ATOM      5  C   UNL     1       9.434   0.685  22.152  0.00  0.00    +0.022 C 
ATOM      6  C   UNL     1       8.701   1.643  21.569  0.00  0.00    -0.002 C 
ENDROOT
BRANCH   4   7
ATOM      7  N   UNL     1       8.913  -1.101  23.727  0.00  0.00    -0.232 N 
ATOM      8  C   UNL     1       8.901  -1.652  25.004  0.00  0.00    +0.312 C 
ATOM      9  O   UNL     1       9.290  -1.069  26.015  0.00  0.00    -0.252 OA
ATOM     10  N   UNL     1       8.429  -2.924  25.125  0.00  0.00    -0.255 N 
ATOM     11  H   UNL     1       8.513  -3.333  26.040  0.00  0.00    +0.155 HD
ATOM     12  C   UNL     1       8.093  -3.785  24.069  0.00  0.00    +0.211 C 
ATOM     13  C   UNL     1       8.220  -3.141  22.753  0.00  0.00    +0.060 C 
ATOM     14  C   UNL     1       8.621  -1.876  22.619  0.00  0.00    +0.084 C 
BRANCH  12  15
ATOM     15  N   UNL     1       6.772  -4.235  24.328  0.00  0.00    -0.284 NA
ATOM     16  H   UNL     1       6.351  -3.565  24.959  0.00  0.00    +0.123 HD
ATOM     17  H   UNL     1       6.257  -4.196  23.456  0.00  0.00    +0.123 HD
ENDBRANCH  12  15
BRANCH  12  18
ATOM     18  O   UNL     1       8.961  -4.871  24.161  0.00  0.00    -0.356 OA
ATOM     19  H   UNL     1       9.202  -5.074  23.244  0.00  0.00    +0.214 HD
ENDBRANCH  12  18
ENDBRANCH   4   7
BRANCH   1  21
ATOM     20  C   UNL     1       7.189   4.840  22.339  0.00  0.00    +0.215 C 
ATOM     21  N   UNL     1       8.096   3.804  22.290  0.00  0.00    -0.306 N 
ATOM     22  H   UNL     1       9.082   4.022  22.402  0.00  0.00    +0.149 HD
ATOM     23  O   UNL     1       5.982   4.661  22.470  0.00  0.00    -0.276 OA
BRANCH  20  24
ATOM     24  C   UNL     1       7.791   6.232  22.261  0.00  0.00    +0.114 C 
BRANCH  24  25
ATOM     25  C   UNL     1       7.857   6.910  23.636  0.00  0.00    +0.062 C 
BRANCH  25  26
ATOM     26  N   UNL     1       7.131   6.086  24.622  0.00  0.00    -0.327 NA
ATOM     27  H   UNL     1       7.107   6.570  25.522  0.00  0.00    +0.118 HD
ATOM     28  H   UNL     1       6.154   5.997  24.340  0.00  0.00    +0.118 HD
ENDBRANCH  25  26
BRANCH  25  29
ATOM     29  C   UNL     1       9.303   7.108  24.153  0.00  0.00    +0.056 C 
BRANCH  29  30
ATOM     30  C   UNL     1      10.010   5.822  24.607  0.00  0.00    +0.200 C 
BRANCH  30  32
ATOM     31  C   UNL     1      12.251   6.821  24.994  0.00  0.00    +0.242 C 
ATOM     32  N   UNL     1      11.442   5.851  24.256  0.00  0.00    -0.265 N 
ATOM     33  C   UNL     1      12.008   4.936  23.407  0.00  0.00    +0.378 C 
ATOM     34  N   UNL     1      11.416   4.006  22.747  0.00  0.00    -0.130 NA
ATOM     35  H   UNL     1      10.418   4.021  22.937  0.00  0.00    +0.306 HD
ATOM     36  N   UNL     1      13.347   5.011  23.236  0.00  0.00    -0.289 N 
ATOM     37  H   UNL     1      13.611   4.381  22.483  0.00  0.00    +0.255 HD
ATOM     38  H   UNL     1      13.689   5.942  23.050  0.00  0.00    +0.255 HD
ENDBRANCH  30  32
ENDBRANCH  29  30
ENDBRANCH  25  29
ENDBRANCH  24  25
ENDBRANCH  20  24
ENDBRANCH   1  21
BRANCH   2  39
ATOM     39  C   UNL     1       6.103   1.083  23.872  0.00  0.00    +0.336 C 
ATOM     40  O   UNL     1       6.001  -0.101  24.147  0.00  0.00    -0.248 OA
BRANCH  39  41
ATOM     41  O   UNL     1       5.013   1.863  23.629  0.00  0.00    -0.479 OA
ATOM     42  H   UNL     1       5.281   2.809  23.599  0.00  0.00    +0.295 HD
ENDBRANCH  39  41
ENDBRANCH   2  39
TORSDOF 12
ENDMDL
MODEL 9
REMARK VINA RESULT:      -6.9      2.499      3.233
REMARK  Name = 
REMARK  13 active torsions:
REMARK  status: ('A' for Active; 'I' for Inactive)
REMARK    1  A    between atoms: C_1  and  N_2
REMARK    2  A    between atoms: N_2  and  C_3
REMARK    3  A    between atoms: C_3  and  C_4
REMARK    4  A    between atoms: C_4  and  C_5
REMARK    5  A    between atoms: C_5  and  N_7
REMARK    6  A    between atoms: C_5  and  C_8
REMARK    7  A    between atoms: C_8  and  C_9
REMARK    8  A    between atoms: N_11  and  C_12
REMARK    9  A    between atoms: C_16  and  N_24
REMARK   10  A    between atoms: C_19  and  C_21
REMARK   11  A    between atoms: C_21  and  O_22
REMARK   12  A    between atoms: C_27  and  N_28
REMARK   13  A    between atoms: C_27  and  O_29
REMARK                            x       y       z     vdW  Elec       q    Type
REMARK                         _______ _______ _______ _____ _____    ______ ____
ROOT
ATOM      1  C   UNL     1       8.487  -2.404  24.873  0.00  0.00    +0.136 C 
ATOM      2  C   UNL     1       7.408  -2.693  23.797  0.00  0.00    +0.253 C 
ATOM      3  O   UNL     1       6.028  -2.557  24.185  0.00  0.00    -0.338 OA
ATOM      4  C   UNL     1       5.635  -2.943  25.515  0.00  0.00    +0.239 C 
ATOM      5  C   UNL     1       6.709  -2.849  26.549  0.00  0.00    +0.022 C 
ATOM      6  C   UNL     1       7.994  -2.590  26.273  0.00  0.00    -0.002 C 
ENDROOT
BRANCH   4   7
ATOM      7  N   UNL     1       5.026  -4.279  25.519  0.00  0.00    -0.232 N 
ATOM      8  C   UNL     1       3.689  -4.382  25.148  0.00  0.00    +0.312 C 
ATOM      9  O   UNL     1       2.961  -3.421  24.902  0.00  0.00    -0.252 OA
ATOM     10  N   UNL     1       3.167  -5.636  25.059  0.00  0.00    -0.255 N 
ATOM     11  H   UNL     1       2.179  -5.683  24.877  0.00  0.00    +0.155 HD
ATOM     12  C   UNL     1       3.801  -6.826  25.450  0.00  0.00    +0.211 C 
ATOM     13  C   UNL     1       5.180  -6.606  25.909  0.00  0.00    +0.060 C 
ATOM     14  C   UNL     1       5.730  -5.391  25.943  0.00  0.00    +0.084 C 
BRANCH  12  15
ATOM     15  N   UNL     1       3.734  -7.697  24.331  0.00  0.00    -0.284 NA
ATOM     16  H   UNL     1       3.513  -7.126  23.525  0.00  0.00    +0.123 HD
ATOM     17  H   UNL     1       4.660  -8.083  24.185  0.00  0.00    +0.123 HD
ENDBRANCH  12  15
BRANCH  12  18
ATOM     18  O   UNL     1       3.028  -7.360  26.478  0.00  0.00    -0.356 OA
ATOM     19  H   UNL     1       3.609  -8.001  26.916  0.00  0.00    +0.214 HD
ENDBRANCH  12  18
ENDBRANCH   4   7
BRANCH   1  21
ATOM     20  C   UNL     1      10.030  -0.694  23.969  0.00  0.00    +0.215 C 
ATOM     21  N   UNL     1       8.996  -1.034  24.814  0.00  0.00    -0.306 N 
ATOM     22  H   UNL     1       8.485  -0.286  25.275  0.00  0.00    +0.149 HD
ATOM     23  O   UNL     1      10.534  -1.489  23.182  0.00  0.00    -0.276 OA
BRANCH  20  24
ATOM     24  C   UNL     1      10.483   0.753  24.050  0.00  0.00    +0.114 C 
BRANCH  24  25
ATOM     25  C   UNL     1       9.309   1.733  23.923  0.00  0.00    +0.062 C 
BRANCH  25  26
ATOM     26  N   UNL     1       8.760   2.014  25.263  0.00  0.00    -0.327 NA
ATOM     27  H   UNL     1       9.321   1.536  25.971  0.00  0.00    +0.118 HD
ATOM     28  H   UNL     1       8.860   3.009  25.471  0.00  0.00    +0.118 HD
ENDBRANCH  25  26
BRANCH  25  29
ATOM     29  C   UNL     1       9.705   3.084  23.278  0.00  0.00    +0.056 C 
BRANCH  29  30
ATOM     30  C   UNL     1      11.209   3.401  23.311  0.00  0.00    +0.200 C 
BRANCH  30  32
ATOM     31  C   UNL     1      10.288   5.534  24.188  0.00  0.00    +0.242 C 
ATOM     32  N   UNL     1      11.446   4.815  23.659  0.00  0.00    -0.265 N 
ATOM     33  C   UNL     1      12.695   5.377  23.630  0.00  0.00    +0.378 C 
ATOM     34  N   UNL     1      13.792   4.834  23.242  0.00  0.00    -0.130 NA
ATOM     35  H   UNL     1      13.624   3.878  22.942  0.00  0.00    +0.306 HD
ATOM     36  N   UNL     1      12.797   6.655  24.059  0.00  0.00    -0.289 N 
ATOM     37  H   UNL     1      13.734   6.991  23.851  0.00  0.00    +0.255 HD
ATOM     38  H   UNL     1      12.106   7.279  23.669  0.00  0.00    +0.255 HD
ENDBRANCH  30  32
ENDBRANCH  29  30
ENDBRANCH  25  29
ENDBRANCH  24  25
ENDBRANCH  20  24
ENDBRANCH   1  21
BRANCH   2  39
ATOM     39  C   UNL     1       7.618  -4.034  23.088  0.00  0.00    +0.336 C 
ATOM     40  O   UNL     1       7.049  -4.417  22.079  0.00  0.00    -0.248 OA
BRANCH  39  41
ATOM     41  O   UNL     1       8.545  -4.799  23.728  0.00  0.00    -0.479 OA
ATOM     42  H   UNL     1       8.142  -5.219  24.520  0.00  0.00    +0.295 HD
ENDBRANCH  39  41
ENDBRANCH   2  39
TORSDOF 12
ENDMDL
