MODEL 1
REMARK VINA RESULT:      -6.7      0.000      0.000
REMARK  Name = 
REMARK  12 active torsions:
REMARK  status: ('A' for Active; 'I' for Inactive)
REMARK    1  A    between atoms: O_1  and  C_2
REMARK    2  A    between atoms: C_2  and  C_4
REMARK    3  A    between atoms: C_4  and  C_5
REMARK    4  A    between atoms: C_5  and  C_6
REMARK    5  A    between atoms: C_6  and  C_7
REMARK    6  A    between atoms: C_7  and  C_8
REMARK    7  A    between atoms: C_8  and  N_9
REMARK    8  A    between atoms: C_10  and  C_28
REMARK    9  A    between atoms: C_16  and  O_17
REMARK   10  A    between atoms: O_17  and  C_18
REMARK   11  A    between atoms: C_18  and  C_19
REMARK   12  A    between atoms: C_28  and  O_29
REMARK                            x       y       z     vdW  Elec       q    Type
REMARK                         _______ _______ _______ _____ _____    ______ ____
ROOT
ATOM      1  N   UNL     1       5.894  -3.926  23.792  0.00  0.00    -0.335 N 
ATOM      2  C   UNL     1       5.875  -2.584  24.156  0.00  0.00    +0.050 A 
ATOM      3  C   UNL     1       5.274  -1.895  25.228  0.00  0.00    +0.030 A 
ATOM      4  C   UNL     1       5.488  -0.511  25.334  0.00  0.00    +0.048 A 
ATOM      5  C   UNL     1       6.261   0.172  24.401  0.00  0.00    +0.122 A 
ATOM      6  C   UNL     1       6.759  -0.508  23.286  0.00  0.00    +0.055 A 
ATOM      7  C   UNL     1       6.599  -1.896  23.188  0.00  0.00    +0.004 A 
ATOM      8  C   UNL     1       7.045  -2.831  22.235  0.00  0.00    +0.043 A 
ATOM      9  C   UNL     1       6.629  -4.093  22.622  0.00  0.00    +0.128 A 
ENDROOT
BRANCH   9  10
ATOM     10  C   UNL     1       6.857  -5.333  21.919  0.00  0.00    +0.353 C 
ATOM     11  O   UNL     1       7.656  -6.200  22.232  0.00  0.00    -0.243 OA
BRANCH  10  12
ATOM     12  O   UNL     1       6.068  -5.448  20.820  0.00  0.00    -0.476 OA
ATOM     13  H   UNL     1       5.885  -6.372  20.572  0.00  0.00    +0.295 HD
ENDBRANCH  10  12
ENDBRANCH   9  10
BRANCH   1  14
ATOM     14  C   UNL     1       5.151  -4.963  24.496  0.00  0.00    +0.122 C 
BRANCH  14  15
ATOM     15  C   UNL     1       5.926  -5.825  25.490  0.00  0.00    +0.022 C 
BRANCH  15  16
ATOM     16  C   UNL     1       6.466  -5.114  26.734  0.00  0.00    +0.002 C 
BRANCH  16  17
ATOM     17  C   UNL     1       7.997  -5.217  26.712  0.00  0.00    +0.011 C 
BRANCH  17  18
ATOM     18  C   UNL     1       8.696  -3.982  26.155  0.00  0.00    +0.120 C 
BRANCH  18  19
ATOM     19  C   UNL     1       9.418  -4.313  24.863  0.00  0.00    +0.305 C 
ATOM     20  O   UNL     1       9.931  -3.501  24.110  0.00  0.00    -0.251 OA
BRANCH  19  21
ATOM     21  O   UNL     1       9.443  -5.642  24.612  0.00  0.00    -0.481 OA
ATOM     22  H   UNL     1       9.820  -6.173  25.338  0.00  0.00    +0.295 HD
ENDBRANCH  19  21
ENDBRANCH  18  19
ENDBRANCH  17  18
ENDBRANCH  16  17
ENDBRANCH  15  16
ENDBRANCH  14  15
ENDBRANCH   1  14
BRANCH   5  23
ATOM     23  O   UNL     1       6.512   1.500  24.654  0.00  0.00    -0.487 OA
BRANCH  23  24
ATOM     24  C   UNL     1       7.604   1.702  25.556  0.00  0.00    +0.267 C 
BRANCH  24  25
ATOM     25  C   UNL     1       8.800   2.293  24.860  0.00  0.00    +0.026 A 
ATOM     26  C   UNL     1       8.838   3.653  24.510  0.00  0.00    +0.049 A 
ATOM     27 CL   UNL     1       7.589   4.761  24.964  0.00  0.00    -0.083 Cl
ATOM     28  C   UNL     1       9.894   4.168  23.751  0.00  0.00    +0.020 A 
ATOM     29  C   UNL     1      10.939   3.342  23.350  0.00  0.00    +0.003 A 
ATOM     30  C   UNL     1      10.943   2.003  23.730  0.00  0.00    +0.020 A 
ATOM     31  C   UNL     1       9.887   1.483  24.485  0.00  0.00    +0.049 A 
ATOM     32 CL   UNL     1       9.973  -0.196  24.899  0.00  0.00    -0.083 Cl
ENDBRANCH  24  25
ENDBRANCH  23  24
ENDBRANCH   5  23
TORSDOF 12
ENDMDL
MODEL 2
REMARK VINA RESULT:      -6.4      0.739      1.751
REMARK  Name = 
REMARK  12 active torsions:
REMARK  status: ('A' for Active; 'I' for Inactive)
REMARK    1  A    between atoms: O_1  and  C_2
REMARK    2  A    between atoms: C_2  and  C_4
REMARK    3  A    between atoms: C_4  and  C_5
REMARK    4  A    between atoms: C_5  and  C_6
REMARK    5  A    between atoms: C_6  and  C_7
REMARK    6  A    between atoms: C_7  and  C_8
REMARK    7  A    between atoms: C_8  and  N_9
REMARK    8  A    between atoms: C_10  and  C_28
REMARK    9  A    between atoms: C_16  and  O_17
REMARK   10  A    between atoms: O_17  and  C_18
REMARK   11  A    between atoms: C_18  and  C_19
REMARK   12  A    between atoms: C_28  and  O_29
REMARK                            x       y       z     vdW  Elec       q    Type
REMARK                         _______ _______ _______ _____ _____    ______ ____
ROOT
ATOM      1  N   UNL     1       5.735  -3.929  23.941  0.00  0.00    -0.335 N 
ATOM      2  C   UNL     1       5.687  -2.586  24.300  0.00  0.00    +0.050 A 
ATOM      3  C   UNL     1       5.077  -1.907  25.373  0.00  0.00    +0.030 A 
ATOM      4  C   UNL     1       5.260  -0.518  25.472  0.00  0.00    +0.048 A 
ATOM      5  C   UNL     1       6.010   0.178  24.530  0.00  0.00    +0.122 A 
ATOM      6  C   UNL     1       6.516  -0.494  23.415  0.00  0.00    +0.055 A 
ATOM      7  C   UNL     1       6.388  -1.886  23.324  0.00  0.00    +0.004 A 
ATOM      8  C   UNL     1       6.849  -2.814  22.371  0.00  0.00    +0.043 A 
ATOM      9  C   UNL     1       6.466  -4.084  22.767  0.00  0.00    +0.128 A 
ENDROOT
BRANCH   9  10
ATOM     10  C   UNL     1       6.717  -5.321  22.066  0.00  0.00    +0.353 C 
ATOM     11  O   UNL     1       7.645  -6.087  22.272  0.00  0.00    -0.243 OA
BRANCH  10  12
ATOM     12  O   UNL     1       5.788  -5.562  21.107  0.00  0.00    -0.476 OA
ATOM     13  H   UNL     1       4.872  -5.471  21.426  0.00  0.00    +0.295 HD
ENDBRANCH  10  12
ENDBRANCH   9  10
BRANCH   1  14
ATOM     14  C   UNL     1       5.022  -4.981  24.654  0.00  0.00    +0.122 C 
BRANCH  14  15
ATOM     15  C   UNL     1       5.834  -5.855  25.605  0.00  0.00    +0.022 C 
BRANCH  15  16
ATOM     16  C   UNL     1       6.461  -5.151  26.812  0.00  0.00    +0.002 C 
BRANCH  16  17
ATOM     17  C   UNL     1       7.985  -5.306  26.714  0.00  0.00    +0.011 C 
BRANCH  17  18
ATOM     18  C   UNL     1       8.706  -4.060  26.212  0.00  0.00    +0.120 C 
BRANCH  18  19
ATOM     19  C   UNL     1       9.427  -4.347  24.910  0.00  0.00    +0.305 C 
ATOM     20  O   UNL     1       9.911  -3.508  24.167  0.00  0.00    -0.251 OA
BRANCH  19  21
ATOM     21  O   UNL     1       9.491  -5.671  24.636  0.00  0.00    -0.481 OA
ATOM     22  H   UNL     1      10.311  -6.098  24.946  0.00  0.00    +0.295 HD
ENDBRANCH  19  21
ENDBRANCH  18  19
ENDBRANCH  17  18
ENDBRANCH  16  17
ENDBRANCH  15  16
ENDBRANCH  14  15
ENDBRANCH   1  14
BRANCH   5  23
ATOM     23  O   UNL     1       6.231   1.513  24.776  0.00  0.00    -0.487 OA
BRANCH  23  24
ATOM     24  C   UNL     1       7.306   1.743  25.692  0.00  0.00    +0.267 C 
BRANCH  24  25
ATOM     25  C   UNL     1       8.648   1.569  25.033  0.00  0.00    +0.026 A 
ATOM     26  C   UNL     1       9.477   0.480  25.350  0.00  0.00    +0.049 A 
ATOM     27 CL   UNL     1       8.968  -0.794  26.405  0.00  0.00    -0.083 Cl
ATOM     28  C   UNL     1      10.773   0.393  24.832  0.00  0.00    +0.020 A 
ATOM     29  C   UNL     1      11.254   1.376  23.973  0.00  0.00    +0.003 A 
ATOM     30  C   UNL     1      10.429   2.437  23.609  0.00  0.00    +0.020 A 
ATOM     31  C   UNL     1       9.134   2.530  24.128  0.00  0.00    +0.049 A 
ATOM     32 CL   UNL     1       8.186   3.891  23.629  0.00  0.00    -0.083 Cl
ENDBRANCH  24  25
ENDBRANCH  23  24
ENDBRANCH   5  23
TORSDOF 12
ENDMDL
MODEL 3
REMARK VINA RESULT:      -6.4      3.910      8.697
REMARK  Name = 
REMARK  12 active torsions:
REMARK  status: ('A' for Active; 'I' for Inactive)
REMARK    1  A    between atoms: O_1  and  C_2
REMARK    2  A    between atoms: C_2  and  C_4
REMARK    3  A    between atoms: C_4  and  C_5
REMARK    4  A    between atoms: C_5  and  C_6
REMARK    5  A    between atoms: C_6  and  C_7
REMARK    6  A    between atoms: C_7  and  C_8
REMARK    7  A    between atoms: C_8  and  N_9
REMARK    8  A    between atoms: C_10  and  C_28
REMARK    9  A    between atoms: C_16  and  O_17
REMARK   10  A    between atoms: O_17  and  C_18
REMARK   11  A    between atoms: C_18  and  C_19
REMARK   12  A    between atoms: C_28  and  O_29
REMARK                            x       y       z     vdW  Elec       q    Type
REMARK                         _______ _______ _______ _____ _____    ______ ____
ROOT
ATOM      1  N   UNL     1       7.924   4.678  23.622  0.00  0.00    -0.335 N 
ATOM      2  C   UNL     1       8.350   3.355  23.692  0.00  0.00    +0.050 A 
ATOM      3  C   UNL     1       9.276   2.694  24.522  0.00  0.00    +0.030 A 
ATOM      4  C   UNL     1       9.449   1.310  24.358  0.00  0.00    +0.048 A 
ATOM      5  C   UNL     1       8.738   0.606  23.392  0.00  0.00    +0.122 A 
ATOM      6  C   UNL     1       7.905   1.295  22.507  0.00  0.00    +0.055 A 
ATOM      7  C   UNL     1       7.681   2.666  22.685  0.00  0.00    +0.004 A 
ATOM      8  C   UNL     1       6.859   3.584  22.005  0.00  0.00    +0.043 A 
ATOM      9  C   UNL     1       6.990   4.825  22.601  0.00  0.00    +0.128 A 
ENDROOT
BRANCH   9  10
ATOM     10  C   UNL     1       6.337   6.049  22.203  0.00  0.00    +0.353 C 
ATOM     11  O   UNL     1       5.267   6.462  22.623  0.00  0.00    -0.243 OA
BRANCH  10  12
ATOM     12  O   UNL     1       7.051   6.729  21.270  0.00  0.00    -0.476 OA
ATOM     13  H   UNL     1       7.647   7.397  21.652  0.00  0.00    +0.295 HD
ENDBRANCH  10  12
ENDBRANCH   9  10
BRANCH   1  14
ATOM     14  C   UNL     1       8.477   5.747  24.443  0.00  0.00    +0.122 C 
BRANCH  14  15
ATOM     15  C   UNL     1       9.758   6.415  23.952  0.00  0.00    +0.022 C 
BRANCH  15  16
ATOM     16  C   UNL     1      10.795   6.771  25.021  0.00  0.00    +0.002 C 
BRANCH  16  17
ATOM     17  C   UNL     1      12.162   6.262  24.544  0.00  0.00    +0.011 C 
BRANCH  17  18
ATOM     18  C   UNL     1      12.093   5.323  23.345  0.00  0.00    +0.120 C 
BRANCH  18  19
ATOM     19  C   UNL     1      13.390   5.360  22.561  0.00  0.00    +0.305 C 
ATOM     20  O   UNL     1      13.501   5.693  21.391  0.00  0.00    -0.251 OA
BRANCH  19  21
ATOM     21  O   UNL     1      14.454   4.978  23.304  0.00  0.00    -0.481 OA
ATOM     22  H   UNL     1      15.291   5.402  23.039  0.00  0.00    +0.295 HD
ENDBRANCH  19  21
ENDBRANCH  18  19
ENDBRANCH  17  18
ENDBRANCH  16  17
ENDBRANCH  15  16
ENDBRANCH  14  15
ENDBRANCH   1  14
BRANCH   5  23
ATOM     23  O   UNL     1       8.886  -0.761  23.386  0.00  0.00    -0.487 OA
BRANCH  23  24
ATOM     24  C   UNL     1       7.678  -1.456  23.711  0.00  0.00    +0.267 C 
BRANCH  24  25
ATOM     25  C   UNL     1       7.954  -2.747  24.433  0.00  0.00    +0.026 A 
ATOM     26  C   UNL     1       8.370  -2.755  25.775  0.00  0.00    +0.049 A 
ATOM     27 CL   UNL     1       8.465  -1.309  26.722  0.00  0.00    -0.083 Cl
ATOM     28  C   UNL     1       8.748  -3.946  26.401  0.00  0.00    +0.020 A 
ATOM     29  C   UNL     1       8.695  -5.152  25.708  0.00  0.00    +0.003 A 
ATOM     30  C   UNL     1       8.238  -5.170  24.393  0.00  0.00    +0.020 A 
ATOM     31  C   UNL     1       7.863  -3.980  23.762  0.00  0.00    +0.049 A 
ATOM     32 CL   UNL     1       7.321  -4.101  22.122  0.00  0.00    -0.083 Cl
ENDBRANCH  24  25
ENDBRANCH  23  24
ENDBRANCH   5  23
TORSDOF 12
ENDMDL
MODEL 4
REMARK VINA RESULT:      -6.3      3.210      8.164
REMARK  Name = 
REMARK  12 active torsions:
REMARK  status: ('A' for Active; 'I' for Inactive)
REMARK    1  A    between atoms: O_1  and  C_2
REMARK    2  A    between atoms: C_2  and  C_4
REMARK    3  A    between atoms: C_4  and  C_5
REMARK    4  A    between atoms: C_5  and  C_6
REMARK    5  A    between atoms: C_6  and  C_7
REMARK    6  A    between atoms: C_7  and  C_8
REMARK    7  A    between atoms: C_8  and  N_9
REMARK    8  A    between atoms: C_10  and  C_28
REMARK    9  A    between atoms: C_16  and  O_17
REMARK   10  A    between atoms: O_17  and  C_18
REMARK   11  A    between atoms: C_18  and  C_19
REMARK   12  A    between atoms: C_28  and  O_29
REMARK                            x       y       z     vdW  Elec       q    Type
REMARK                         _______ _______ _______ _____ _____    ______ ____
ROOT
ATOM      1  N   UNL     1       8.941   3.755  24.769  0.00  0.00    -0.335 N 
ATOM      2  C   UNL     1       8.977   2.366  24.841  0.00  0.00    +0.050 A 
ATOM      3  C   UNL     1       8.216   1.429  25.566  0.00  0.00    +0.030 A 
ATOM      4  C   UNL     1       8.484   0.063  25.376  0.00  0.00    +0.048 A 
ATOM      5  C   UNL     1       9.484  -0.360  24.508  0.00  0.00    +0.122 A 
ATOM      6  C   UNL     1      10.300   0.584  23.880  0.00  0.00    +0.055 A 
ATOM      7  C   UNL     1      10.018   1.950  24.017  0.00  0.00    +0.004 A 
ATOM      8  C   UNL     1      10.613   3.096  23.457  0.00  0.00    +0.043 A 
ATOM      9  C   UNL     1       9.930   4.214  23.904  0.00  0.00    +0.128 A 
ENDROOT
BRANCH   9  10
ATOM     10  C   UNL     1      10.225   5.591  23.587  0.00  0.00    +0.353 C 
ATOM     11  O   UNL     1      11.150   6.249  24.035  0.00  0.00    -0.243 OA
BRANCH  10  12
ATOM     12  O   UNL     1       9.332   6.115  22.710  0.00  0.00    -0.476 OA
ATOM     13  H   UNL     1       9.034   7.011  22.951  0.00  0.00    +0.295 HD
ENDBRANCH  10  12
ENDBRANCH   9  10
BRANCH   1  14
ATOM     14  C   UNL     1       8.056   4.582  25.578  0.00  0.00    +0.122 C 
BRANCH  14  15
ATOM     15  C   UNL     1       6.758   5.057  24.931  0.00  0.00    +0.022 C 
BRANCH  15  16
ATOM     16  C   UNL     1       5.647   4.013  24.783  0.00  0.00    +0.002 C 
BRANCH  16  17
ATOM     17  C   UNL     1       5.369   3.824  23.286  0.00  0.00    +0.011 C 
BRANCH  17  18
ATOM     18  C   UNL     1       5.924   2.527  22.708  0.00  0.00    +0.120 C 
BRANCH  18  19
ATOM     19  C   UNL     1       7.115   2.807  21.813  0.00  0.00    +0.305 C 
ATOM     20  O   UNL     1       7.841   1.961  21.315  0.00  0.00    -0.251 OA
BRANCH  19  21
ATOM     21  O   UNL     1       7.308   4.130  21.608  0.00  0.00    -0.481 OA
ATOM     22  H   UNL     1       6.564   4.687  21.905  0.00  0.00    +0.295 HD
ENDBRANCH  19  21
ENDBRANCH  18  19
ENDBRANCH  17  18
ENDBRANCH  16  17
ENDBRANCH  15  16
ENDBRANCH  14  15
ENDBRANCH   1  14
BRANCH   5  23
ATOM     23  O   UNL     1       9.593  -1.715  24.299  0.00  0.00    -0.487 OA
BRANCH  23  24
ATOM     24  C   UNL     1       8.529  -2.461  24.897  0.00  0.00    +0.267 C 
BRANCH  24  25
ATOM     25  C   UNL     1       7.868  -3.383  23.908  0.00  0.00    +0.026 A 
ATOM     26  C   UNL     1       8.162  -4.756  23.886  0.00  0.00    +0.049 A 
ATOM     27 CL   UNL     1       9.187  -5.502  25.065  0.00  0.00    -0.083 Cl
ATOM     28  C   UNL     1       7.645  -5.584  22.885  0.00  0.00    +0.020 A 
ATOM     29  C   UNL     1       6.809  -5.061  21.903  0.00  0.00    +0.003 A 
ATOM     30  C   UNL     1       6.468  -3.711  21.937  0.00  0.00    +0.020 A 
ATOM     31  C   UNL     1       6.986  -2.880  22.934  0.00  0.00    +0.049 A 
ATOM     32 CL   UNL     1       6.516  -1.214  22.888  0.00  0.00    -0.083 Cl
ENDBRANCH  24  25
ENDBRANCH  23  24
ENDBRANCH   5  23
TORSDOF 12
ENDMDL
MODEL 5
REMARK VINA RESULT:      -6.3      2.376      4.092
REMARK  Name = 
REMARK  12 active torsions:
REMARK  status: ('A' for Active; 'I' for Inactive)
REMARK    1  A    between atoms: O_1  and  C_2
REMARK    2  A    between atoms: C_2  and  C_4
REMARK    3  A    between atoms: C_4  and  C_5
REMARK    4  A    between atoms: C_5  and  C_6
REMARK    5  A    between atoms: C_6  and  C_7
REMARK    6  A    between atoms: C_7  and  C_8
REMARK    7  A    between atoms: C_8  and  N_9
REMARK    8  A    between atoms: C_10  and  C_28
REMARK    9  A    between atoms: C_16  and  O_17
REMARK   10  A    between atoms: O_17  and  C_18
REMARK   11  A    between atoms: C_18  and  C_19
REMARK   12  A    between atoms: C_28  and  O_29
REMARK                            x       y       z     vdW  Elec       q    Type
REMARK                         _______ _______ _______ _____ _____    ______ ____
ROOT
ATOM      1  N   UNL     1       8.304  -3.191  23.035  0.00  0.00    -0.335 N 
ATOM      2  C   UNL     1       8.777  -1.937  22.661  0.00  0.00    +0.050 A 
ATOM      3  C   UNL     1       8.509  -1.109  21.554  0.00  0.00    +0.030 A 
ATOM      4  C   UNL     1       9.136   0.147  21.494  0.00  0.00    +0.048 A 
ATOM      5  C   UNL     1      10.010   0.563  22.493  0.00  0.00    +0.122 A 
ATOM      6  C   UNL     1      10.347  -0.314  23.526  0.00  0.00    +0.055 A 
ATOM      7  C   UNL     1       9.696  -1.550  23.631  0.00  0.00    +0.004 A 
ATOM      8  C   UNL     1       9.780  -2.582  24.584  0.00  0.00    +0.043 A 
ATOM      9  C   UNL     1       8.900  -3.588  24.228  0.00  0.00    +0.128 A 
ENDROOT
BRANCH   9  10
ATOM     10  C   UNL     1       8.685  -4.836  24.922  0.00  0.00    +0.353 C 
ATOM     11  O   UNL     1       7.702  -5.131  25.583  0.00  0.00    -0.243 OA
BRANCH  10  12
ATOM     12  O   UNL     1       9.730  -5.690  24.772  0.00  0.00    -0.476 OA
ATOM     13  H   UNL     1       9.687  -6.460  25.366  0.00  0.00    +0.295 HD
ENDBRANCH  10  12
ENDBRANCH   9  10
BRANCH   1  14
ATOM     14  C   UNL     1       7.400  -3.989  22.217  0.00  0.00    +0.122 C 
BRANCH  14  15
ATOM     15  C   UNL     1       5.925  -3.599  22.222  0.00  0.00    +0.022 C 
BRANCH  15  16
ATOM     16  C   UNL     1       5.272  -3.417  23.596  0.00  0.00    +0.002 C 
BRANCH  16  17
ATOM     17  C   UNL     1       4.239  -4.537  23.783  0.00  0.00    +0.011 C 
BRANCH  17  18
ATOM     18  C   UNL     1       4.170  -5.088  25.203  0.00  0.00    +0.120 C 
BRANCH  18  19
ATOM     19  C   UNL     1       4.646  -6.527  25.241  0.00  0.00    +0.305 C 
ATOM     20  O   UNL     1       4.422  -7.370  24.387  0.00  0.00    -0.251 OA
BRANCH  19  21
ATOM     21  O   UNL     1       5.369  -6.802  26.351  0.00  0.00    -0.481 OA
ATOM     22  H   UNL     1       4.982  -6.446  27.172  0.00  0.00    +0.295 HD
ENDBRANCH  19  21
ENDBRANCH  18  19
ENDBRANCH  17  18
ENDBRANCH  16  17
ENDBRANCH  15  16
ENDBRANCH  14  15
ENDBRANCH   1  14
BRANCH   5  23
ATOM     23  O   UNL     1      10.481   1.853  22.408  0.00  0.00    -0.487 OA
BRANCH  23  24
ATOM     24  C   UNL     1      10.623   2.481  23.686  0.00  0.00    +0.267 C 
BRANCH  24  25
ATOM     25  C   UNL     1      10.016   3.858  23.701  0.00  0.00    +0.026 A 
ATOM     26  C   UNL     1      10.821   5.008  23.627  0.00  0.00    +0.049 A 
ATOM     27 CL   UNL     1      12.532   4.926  23.382  0.00  0.00    -0.083 Cl
ATOM     28  C   UNL     1      10.264   6.282  23.771  0.00  0.00    +0.020 A 
ATOM     29  C   UNL     1       8.894   6.432  23.967  0.00  0.00    +0.003 A 
ATOM     30  C   UNL     1       8.075   5.307  23.993  0.00  0.00    +0.020 A 
ATOM     31  C   UNL     1       8.629   4.031  23.854  0.00  0.00    +0.049 A 
ATOM     32 CL   UNL     1       7.533   2.691  23.912  0.00  0.00    -0.083 Cl
ENDBRANCH  24  25
ENDBRANCH  23  24
ENDBRANCH   5  23
TORSDOF 12
ENDMDL
MODEL 6
REMARK VINA RESULT:      -6.2      2.439      4.172
REMARK  Name = 
REMARK  12 active torsions:
REMARK  status: ('A' for Active; 'I' for Inactive)
REMARK    1  A    between atoms: O_1  and  C_2
REMARK    2  A    between atoms: C_2  and  C_4
REMARK    3  A    between atoms: C_4  and  C_5
REMARK    4  A    between atoms: C_5  and  C_6
REMARK    5  A    between atoms: C_6  and  C_7
REMARK    6  A    between atoms: C_7  and  C_8
REMARK    7  A    between atoms: C_8  and  N_9
REMARK    8  A    between atoms: C_10  and  C_28
REMARK    9  A    between atoms: C_16  and  O_17
REMARK   10  A    between atoms: O_17  and  C_18
REMARK   11  A    between atoms: C_18  and  C_19
REMARK   12  A    between atoms: C_28  and  O_29
REMARK                            x       y       z     vdW  Elec       q    Type
REMARK                         _______ _______ _______ _____ _____    ______ ____
ROOT
ATOM      1  N   UNL     1       8.337  -3.073  23.028  0.00  0.00    -0.335 N 
ATOM      2  C   UNL     1       8.822  -1.822  22.661  0.00  0.00    +0.050 A 
ATOM      3  C   UNL     1       8.597  -1.004  21.537  0.00  0.00    +0.030 A 
ATOM      4  C   UNL     1       9.223   0.252  21.491  0.00  0.00    +0.048 A 
ATOM      5  C   UNL     1      10.058   0.678  22.518  0.00  0.00    +0.122 A 
ATOM      6  C   UNL     1      10.356  -0.189  23.572  0.00  0.00    +0.055 A 
ATOM      7  C   UNL     1       9.703  -1.425  23.662  0.00  0.00    +0.004 A 
ATOM      8  C   UNL     1       9.752  -2.449  24.627  0.00  0.00    +0.043 A 
ATOM      9  C   UNL     1       8.887  -3.460  24.247  0.00  0.00    +0.128 A 
ENDROOT
BRANCH   9  10
ATOM     10  C   UNL     1       8.647  -4.701  24.943  0.00  0.00    +0.353 C 
ATOM     11  O   UNL     1       7.769  -4.906  25.766  0.00  0.00    -0.243 OA
BRANCH  10  12
ATOM     12  O   UNL     1       9.535  -5.665  24.588  0.00  0.00    -0.476 OA
ATOM     13  H   UNL     1      10.461  -5.364  24.611  0.00  0.00    +0.295 HD
ENDBRANCH  10  12
ENDBRANCH   9  10
BRANCH   1  14
ATOM     14  C   UNL     1       7.466  -3.880  22.183  0.00  0.00    +0.122 C 
BRANCH  14  15
ATOM     15  C   UNL     1       6.029  -3.400  22.000  0.00  0.00    +0.022 C 
BRANCH  15  16
ATOM     16  C   UNL     1       5.097  -3.561  23.205  0.00  0.00    +0.002 C 
BRANCH  16  17
ATOM     17  C   UNL     1       5.055  -5.049  23.577  0.00  0.00    +0.011 C 
BRANCH  17  18
ATOM     18  C   UNL     1       4.152  -5.368  24.763  0.00  0.00    +0.120 C 
BRANCH  18  19
ATOM     19  C   UNL     1       4.461  -6.746  25.315  0.00  0.00    +0.305 C 
ATOM     20  O   UNL     1       3.882  -7.777  25.011  0.00  0.00    -0.251 OA
BRANCH  19  21
ATOM     21  O   UNL     1       5.477  -6.729  26.208  0.00  0.00    -0.481 OA
ATOM     22  H   UNL     1       5.240  -6.330  27.066  0.00  0.00    +0.295 HD
ENDBRANCH  19  21
ENDBRANCH  18  19
ENDBRANCH  17  18
ENDBRANCH  16  17
ENDBRANCH  15  16
ENDBRANCH  14  15
ENDBRANCH   1  14
BRANCH   5  23
ATOM     23  O   UNL     1      10.530   1.968  22.441  0.00  0.00    -0.487 OA
BRANCH  23  24
ATOM     24  C   UNL     1      10.655   2.596  23.720  0.00  0.00    +0.267 C 
BRANCH  24  25
ATOM     25  C   UNL     1       9.919   3.907  23.772  0.00  0.00    +0.026 A 
ATOM     26  C   UNL     1       8.517   3.951  23.862  0.00  0.00    +0.049 A 
ATOM     27 CL   UNL     1       7.558   2.523  24.052  0.00  0.00    -0.083 Cl
ATOM     28  C   UNL     1       7.831   5.167  23.780  0.00  0.00    +0.020 A 
ATOM     29  C   UNL     1       8.532   6.360  23.632  0.00  0.00    +0.003 A 
ATOM     30  C   UNL     1       9.924   6.340  23.590  0.00  0.00    +0.020 A 
ATOM     31  C   UNL     1      10.613   5.126  23.668  0.00  0.00    +0.049 A 
ATOM     32 CL   UNL     1      12.341   5.201  23.595  0.00  0.00    -0.083 Cl
ENDBRANCH  24  25
ENDBRANCH  23  24
ENDBRANCH   5  23
TORSDOF 12
ENDMDL
MODEL 7
REMARK VINA RESULT:      -6.2      2.268      3.936
REMARK  Name = 
REMARK  12 active torsions:
REMARK  status: ('A' for Active; 'I' for Inactive)
REMARK    1  A    between atoms: O_1  and  C_2
REMARK    2  A    between atoms: C_2  and  C_4
REMARK    3  A    between atoms: C_4  and  C_5
REMARK    4  A    between atoms: C_5  and  C_6
REMARK    5  A    between atoms: C_6  and  C_7
REMARK    6  A    between atoms: C_7  and  C_8
REMARK    7  A    between atoms: C_8  and  N_9
REMARK    8  A    between atoms: C_10  and  C_28
REMARK    9  A    between atoms: C_16  and  O_17
REMARK   10  A    between atoms: O_17  and  C_18
REMARK   11  A    between atoms: C_18  and  C_19
REMARK   12  A    between atoms: C_28  and  O_29
REMARK                            x       y       z     vdW  Elec       q    Type
REMARK                         _______ _______ _______ _____ _____    ______ ____
ROOT
ATOM      1  N   UNL     1       8.430  -3.246  23.104  0.00  0.00    -0.335 N 
ATOM      2  C   UNL     1       8.873  -1.983  22.723  0.00  0.00    +0.050 A 
ATOM      3  C   UNL     1       8.626  -1.189  21.586  0.00  0.00    +0.030 A 
ATOM      4  C   UNL     1       9.207   0.088  21.526  0.00  0.00    +0.048 A 
ATOM      5  C   UNL     1      10.021   0.557  22.552  0.00  0.00    +0.122 A 
ATOM      6  C   UNL     1      10.342  -0.285  23.619  0.00  0.00    +0.055 A 
ATOM      7  C   UNL     1       9.733  -1.542  23.723  0.00  0.00    +0.004 A 
ATOM      8  C   UNL     1       9.812  -2.550  24.702  0.00  0.00    +0.043 A 
ATOM      9  C   UNL     1       8.985  -3.596  24.331  0.00  0.00    +0.128 A 
ENDROOT
BRANCH   9  10
ATOM     10  C   UNL     1       8.786  -4.835  25.043  0.00  0.00    +0.353 C 
ATOM     11  O   UNL     1       7.820  -5.121  25.733  0.00  0.00    -0.243 OA
BRANCH  10  12
ATOM     12  O   UNL     1       9.824  -5.694  24.874  0.00  0.00    -0.476 OA
ATOM     13  H   UNL     1       9.544  -6.619  24.758  0.00  0.00    +0.295 HD
ENDBRANCH  10  12
ENDBRANCH   9  10
BRANCH   1  14
ATOM     14  C   UNL     1       7.593  -4.094  22.265  0.00  0.00    +0.122 C 
BRANCH  14  15
ATOM     15  C   UNL     1       6.135  -4.268  22.681  0.00  0.00    +0.022 C 
BRANCH  15  16
ATOM     16  C   UNL     1       5.334  -2.983  22.913  0.00  0.00    +0.002 C 
BRANCH  16  17
ATOM     17  C   UNL     1       5.282  -2.722  24.425  0.00  0.00    +0.011 C 
BRANCH  17  18
ATOM     18  C   UNL     1       5.697  -1.311  24.826  0.00  0.00    +0.120 C 
BRANCH  18  19
ATOM     19  C   UNL     1       6.662  -1.350  25.994  0.00  0.00    +0.305 C 
ATOM     20  O   UNL     1       7.436  -0.457  26.304  0.00  0.00    -0.251 OA
BRANCH  19  21
ATOM     21  O   UNL     1       6.585  -2.507  26.691  0.00  0.00    -0.481 OA
ATOM     22  H   UNL     1       6.869  -2.427  27.620  0.00  0.00    +0.295 HD
ENDBRANCH  19  21
ENDBRANCH  18  19
ENDBRANCH  17  18
ENDBRANCH  16  17
ENDBRANCH  15  16
ENDBRANCH  14  15
ENDBRANCH   1  14
BRANCH   5  23
ATOM     23  O   UNL     1      10.448   1.861  22.459  0.00  0.00    -0.487 OA
BRANCH  23  24
ATOM     24  C   UNL     1      10.621   2.486  23.735  0.00  0.00    +0.267 C 
BRANCH  24  25
ATOM     25  C   UNL     1       9.921   3.816  23.805  0.00  0.00    +0.026 A 
ATOM     26  C   UNL     1       8.528   3.896  23.969  0.00  0.00    +0.049 A 
ATOM     27 CL   UNL     1       7.545   2.495  24.234  0.00  0.00    -0.083 Cl
ATOM     28  C   UNL     1       7.868   5.127  23.905  0.00  0.00    +0.020 A 
ATOM     29  C   UNL     1       8.589   6.300  23.699  0.00  0.00    +0.003 A 
ATOM     30  C   UNL     1       9.975   6.245  23.583  0.00  0.00    +0.020 A 
ATOM     31  C   UNL     1      10.638   5.015  23.643  0.00  0.00    +0.049 A 
ATOM     32 CL   UNL     1      12.361   5.045  23.477  0.00  0.00    -0.083 Cl
ENDBRANCH  24  25
ENDBRANCH  23  24
ENDBRANCH   5  23
TORSDOF 12
ENDMDL
MODEL 8
REMARK VINA RESULT:      -6.1      1.913      2.832
REMARK  Name = 
REMARK  12 active torsions:
REMARK  status: ('A' for Active; 'I' for Inactive)
REMARK    1  A    between atoms: O_1  and  C_2
REMARK    2  A    between atoms: C_2  and  C_4
REMARK    3  A    between atoms: C_4  and  C_5
REMARK    4  A    between atoms: C_5  and  C_6
REMARK    5  A    between atoms: C_6  and  C_7
REMARK    6  A    between atoms: C_7  and  C_8
REMARK    7  A    between atoms: C_8  and  N_9
REMARK    8  A    between atoms: C_10  and  C_28
REMARK    9  A    between atoms: C_16  and  O_17
REMARK   10  A    between atoms: O_17  and  C_18
REMARK   11  A    between atoms: C_18  and  C_19
REMARK   12  A    between atoms: C_28  and  O_29
REMARK                            x       y       z     vdW  Elec       q    Type
REMARK                         _______ _______ _______ _____ _____    ______ ____
ROOT
ATOM      1  N   UNL     1       6.950  -2.230  24.180  0.00  0.00    -0.335 N 
ATOM      2  C   UNL     1       7.751  -1.102  24.322  0.00  0.00    +0.050 A 
ATOM      3  C   UNL     1       7.877  -0.145  25.348  0.00  0.00    +0.030 A 
ATOM      4  C   UNL     1       8.833   0.873  25.196  0.00  0.00    +0.048 A 
ATOM      5  C   UNL     1       9.628   0.949  24.058  0.00  0.00    +0.122 A 
ATOM      6  C   UNL     1       9.415   0.057  23.004  0.00  0.00    +0.055 A 
ATOM      7  C   UNL     1       8.502  -0.995  23.156  0.00  0.00    +0.004 A 
ATOM      8  C   UNL     1       8.141  -2.059  22.309  0.00  0.00    +0.043 A 
ATOM      9  C   UNL     1       7.197  -2.840  22.954  0.00  0.00    +0.128 A 
ENDROOT
BRANCH   9  10
ATOM     10  C   UNL     1       6.548  -4.018  22.432  0.00  0.00    +0.353 C 
ATOM     11  O   UNL     1       6.738  -5.167  22.801  0.00  0.00    -0.243 OA
BRANCH  10  12
ATOM     12  O   UNL     1       5.668  -3.720  21.442  0.00  0.00    -0.476 OA
ATOM     13  H   UNL     1       4.905  -4.325  21.410  0.00  0.00    +0.295 HD
ENDBRANCH  10  12
ENDBRANCH   9  10
BRANCH   1  14
ATOM     14  C   UNL     1       5.935  -2.626  25.147  0.00  0.00    +0.122 C 
BRANCH  14  15
ATOM     15  C   UNL     1       6.417  -3.283  26.438  0.00  0.00    +0.022 C 
BRANCH  15  16
ATOM     16  C   UNL     1       6.337  -4.811  26.497  0.00  0.00    +0.002 C 
BRANCH  16  17
ATOM     17  C   UNL     1       7.755  -5.352  26.721  0.00  0.00    +0.011 C 
BRANCH  17  18
ATOM     18  C   UNL     1       8.859  -4.334  26.455  0.00  0.00    +0.120 C 
BRANCH  18  19
ATOM     19  C   UNL     1       9.678  -4.738  25.245  0.00  0.00    +0.305 C 
ATOM     20  O   UNL     1      10.149  -3.971  24.420  0.00  0.00    -0.251 OA
BRANCH  19  21
ATOM     21  O   UNL     1       9.847  -6.077  25.159  0.00  0.00    -0.481 OA
ATOM     22  H   UNL     1       9.285  -6.585  25.773  0.00  0.00    +0.295 HD
ENDBRANCH  19  21
ENDBRANCH  18  19
ENDBRANCH  17  18
ENDBRANCH  16  17
ENDBRANCH  15  16
ENDBRANCH  14  15
ENDBRANCH   1  14
BRANCH   5  23
ATOM     23  O   UNL     1      10.614   1.908  24.052  0.00  0.00    -0.487 OA
BRANCH  23  24
ATOM     24  C   UNL     1      10.460   2.863  22.999  0.00  0.00    +0.267 C 
BRANCH  24  25
ATOM     25  C   UNL     1      10.184   4.243  23.532  0.00  0.00    +0.026 A 
ATOM     26  C   UNL     1      11.228   5.151  23.775  0.00  0.00    +0.049 A 
ATOM     27 CL   UNL     1      12.872   4.804  23.359  0.00  0.00    -0.083 Cl
ATOM     28  C   UNL     1      10.979   6.382  24.390  0.00  0.00    +0.020 A 
ATOM     29  C   UNL     1       9.682   6.737  24.752  0.00  0.00    +0.003 A 
ATOM     30  C   UNL     1       8.629   5.870  24.474  0.00  0.00    +0.020 A 
ATOM     31  C   UNL     1       8.874   4.637  23.863  0.00  0.00    +0.049 A 
ATOM     32 CL   UNL     1       7.503   3.621  23.569  0.00  0.00    -0.083 Cl
ENDBRANCH  24  25
ENDBRANCH  23  24
ENDBRANCH   5  23
TORSDOF 12
ENDMDL
MODEL 9
REMARK VINA RESULT:      -6.0      2.075      3.676
REMARK  Name = 
REMARK  12 active torsions:
REMARK  status: ('A' for Active; 'I' for Inactive)
REMARK    1  A    between atoms: O_1  and  C_2
REMARK    2  A    between atoms: C_2  and  C_4
REMARK    3  A    between atoms: C_4  and  C_5
REMARK    4  A    between atoms: C_5  and  C_6
REMARK    5  A    between atoms: C_6  and  C_7
REMARK    6  A    between atoms: C_7  and  C_8
REMARK    7  A    between atoms: C_8  and  N_9
REMARK    8  A    between atoms: C_10  and  C_28
REMARK    9  A    between atoms: C_16  and  O_17
REMARK   10  A    between atoms: O_17  and  C_18
REMARK   11  A    between atoms: C_18  and  C_19
REMARK   12  A    between atoms: C_28  and  O_29
REMARK                            x       y       z     vdW  Elec       q    Type
REMARK                         _______ _______ _______ _____ _____    ______ ____
ROOT
ATOM      1  N   UNL     1       8.021  -2.916  25.458  0.00  0.00    -0.335 N 
ATOM      2  C   UNL     1       8.391  -1.584  25.306  0.00  0.00    +0.050 A 
ATOM      3  C   UNL     1       7.828  -0.378  25.770  0.00  0.00    +0.030 A 
ATOM      4  C   UNL     1       8.488   0.824  25.469  0.00  0.00    +0.048 A 
ATOM      5  C   UNL     1       9.660   0.834  24.720  0.00  0.00    +0.122 A 
ATOM      6  C   UNL     1      10.144  -0.358  24.178  0.00  0.00    +0.055 A 
ATOM      7  C   UNL     1       9.530  -1.573  24.507  0.00  0.00    +0.004 A 
ATOM      8  C   UNL     1       9.836  -2.906  24.173  0.00  0.00    +0.043 A 
ATOM      9  C   UNL     1       8.915  -3.740  24.782  0.00  0.00    +0.128 A 
ENDROOT
BRANCH   9  10
ATOM     10  C   UNL     1       8.854  -5.179  24.684  0.00  0.00    +0.353 C 
ATOM     11  O   UNL     1       8.636  -5.822  23.669  0.00  0.00    -0.243 OA
BRANCH  10  12
ATOM     12  O   UNL     1       9.062  -5.781  25.883  0.00  0.00    -0.476 OA
ATOM     13  H   UNL     1       9.147  -6.749  25.818  0.00  0.00    +0.295 HD
ENDBRANCH  10  12
ENDBRANCH   9  10
BRANCH   1  14
ATOM     14  C   UNL     1       6.807  -3.342  26.142  0.00  0.00    +0.122 C 
BRANCH  14  15
ATOM     15  C   UNL     1       5.539  -3.471  25.302  0.00  0.00    +0.022 C 
BRANCH  15  16
ATOM     16  C   UNL     1       5.219  -4.867  24.759  0.00  0.00    +0.002 C 
BRANCH  16  17
ATOM     17  C   UNL     1       4.722  -4.712  23.315  0.00  0.00    +0.011 C 
BRANCH  17  18
ATOM     18  C   UNL     1       5.825  -4.409  22.307  0.00  0.00    +0.120 C 
BRANCH  18  19
ATOM     19  C   UNL     1       6.037  -5.586  21.376  0.00  0.00    +0.305 C 
ATOM     20  O   UNL     1       5.978  -5.546  20.157  0.00  0.00    -0.251 OA
BRANCH  19  21
ATOM     21  O   UNL     1       6.310  -6.730  22.045  0.00  0.00    -0.481 OA
ATOM     22  H   UNL     1       6.033  -7.538  21.573  0.00  0.00    +0.295 HD
ENDBRANCH  19  21
ENDBRANCH  18  19
ENDBRANCH  17  18
ENDBRANCH  16  17
ENDBRANCH  15  16
ENDBRANCH  14  15
ENDBRANCH   1  14
BRANCH   5  23
ATOM     23  O   UNL     1      10.296   2.046  24.578  0.00  0.00    -0.487 OA
BRANCH  23  24
ATOM     24  C   UNL     1      10.270   2.537  23.235  0.00  0.00    +0.267 C 
BRANCH  24  25
ATOM     25  C   UNL     1       8.983   3.255  22.928  0.00  0.00    +0.026 A 
ATOM     26  C   UNL     1       8.701   4.512  23.488  0.00  0.00    +0.049 A 
ATOM     27 CL   UNL     1       9.851   5.376  24.450  0.00  0.00    -0.083 Cl
ATOM     28  C   UNL     1       7.453   5.115  23.303  0.00  0.00    +0.020 A 
ATOM     29  C   UNL     1       6.475   4.485  22.538  0.00  0.00    +0.003 A 
ATOM     30  C   UNL     1       6.754   3.262  21.935  0.00  0.00    +0.020 A 
ATOM     31  C   UNL     1       8.000   2.654  22.121  0.00  0.00    +0.049 A 
ATOM     32 CL   UNL     1       8.251   1.128  21.342  0.00  0.00    -0.083 Cl
ENDBRANCH  24  25
ENDBRANCH  23  24
ENDBRANCH   5  23
TORSDOF 12
ENDMDL
