MODEL 1
REMARK VINA RESULT:      -7.4      0.000      0.000
REMARK  Name = 
REMARK  8 active torsions:
REMARK  status: ('A' for Active; 'I' for Inactive)
REMARK    1  A    between atoms: C_1  and  C_2
REMARK    2  A    between atoms: C_2  and  C_3
REMARK    3  A    between atoms: C_3  and  O_4
REMARK    4  A    between atoms: C_21  and  O_22
REMARK    5  A    between atoms: C_23  and  C_24
REMARK    6  A    between atoms: C_24  and  N_25
REMARK    7  A    between atoms: N_25  and  C_26
REMARK    8  A    between atoms: N_25  and  C_27
REMARK                            x       y       z     vdW  Elec       q    Type
REMARK                         _______ _______ _______ _____ _____    ______ ____
ROOT
ATOM      1  C   UNL     1       8.625   4.278  23.979  0.00  0.00    +0.188 C 
ATOM      2  C   UNL     1       8.713   2.763  23.628  0.00  0.00    +0.008 A 
ATOM      3  C   UNL     1       7.647   1.698  23.421  0.00  0.00    +0.035 A 
ATOM      4  C   UNL     1       7.903   0.400  23.775  0.00  0.00    +0.071 A 
ATOM      5  C   UNL     1       7.270  -0.994  23.731  0.00  0.00    +0.093 A 
ATOM      6  C   UNL     1       7.970  -1.760  24.653  0.00  0.00    +0.000 A 
ATOM      7  C   UNL     1       7.656  -3.072  24.932  0.00  0.00    +0.018 A 
ATOM      8  C   UNL     1       6.648  -3.682  24.194  0.00  0.00    +0.009 A 
ATOM      9  C   UNL     1       6.213  -5.002  24.539  0.00  0.00    +0.017 A 
ATOM     10  C   UNL     1       5.381  -5.688  23.641  0.00  0.00    +0.122 A 
ATOM     11  C   UNL     1       4.982  -5.068  22.467  0.00  0.00    +0.048 A 
ATOM     12  C   UNL     1       5.328  -3.717  22.226  0.00  0.00    +0.032 A 
ATOM     13  C   UNL     1       6.126  -2.946  23.096  0.00  0.00    +0.072 A 
ATOM     14  C   UNL     1       9.109  -1.029  25.234  0.00  0.00    +0.162 C 
ATOM     15  N   UNL     1       6.397  -1.589  22.882  0.00  0.00    -0.245 NA
ATOM     16  N   UNL     1       9.097   0.194  24.460  0.00  0.00    -0.302 N 
ATOM     17  C   UNL     1      10.177   1.011  24.425  0.00  0.00    +0.259 A 
ATOM     18  O   UNL     1      11.238   0.745  24.979  0.00  0.00    -0.267 OA
ATOM     19  C   UNL     1       9.980   2.289  23.701  0.00  0.00    +0.061 A 
ATOM     20  C   UNL     1      11.217   3.086  23.501  0.00  0.00    +0.273 C 
ATOM     21  O   UNL     1      11.102   4.431  23.932  0.00  0.00    -0.457 OA
ATOM     22  C   UNL     1       9.952   5.038  23.562  0.00  0.00    +0.344 C 
ATOM     23  O   UNL     1       9.989   6.177  23.105  0.00  0.00    -0.247 OA
ENDROOT
BRANCH   1  25
ATOM     24  C   UNL     1       6.815   5.091  22.261  0.00  0.00    +0.007 C 
ATOM     25  C   UNL     1       7.505   5.270  23.598  0.00  0.00    +0.048 C 
ENDBRANCH   1  25
BRANCH   1  26
ATOM     26  O   UNL     1       8.650   4.287  25.440  0.00  0.00    -0.373 OA
ATOM     27  H   UNL     1       7.727   4.175  25.758  0.00  0.00    +0.211 HD
ENDBRANCH   1  26
BRANCH  10  28
ATOM     28  O   UNL     1       4.989  -6.962  23.935  0.00  0.00    -0.506 OA
ATOM     29  H   UNL     1       4.795  -7.038  24.883  0.00  0.00    +0.292 HD
ENDBRANCH  10  28
BRANCH   9  30
ATOM     30  C   UNL     1       6.526  -5.639  25.893  0.00  0.00    +0.123 C 
BRANCH  30  31
ATOM     31  N   UNL     1       5.399  -5.547  26.856  0.00  0.00    -0.304 NA
ATOM     32  C   UNL     1       5.621  -4.479  27.830  0.00  0.00    +0.104 C 
ATOM     33  C   UNL     1       5.184  -6.814  27.561  0.00  0.00    +0.104 C 
ENDBRANCH  30  31
ENDBRANCH   9  30
TORSDOF 5
ENDMDL
MODEL 2
REMARK VINA RESULT:      -7.2      2.013      9.094
REMARK  Name = 
REMARK  8 active torsions:
REMARK  status: ('A' for Active; 'I' for Inactive)
REMARK    1  A    between atoms: C_1  and  C_2
REMARK    2  A    between atoms: C_2  and  C_3
REMARK    3  A    between atoms: C_3  and  O_4
REMARK    4  A    between atoms: C_21  and  O_22
REMARK    5  A    between atoms: C_23  and  C_24
REMARK    6  A    between atoms: C_24  and  N_25
REMARK    7  A    between atoms: N_25  and  C_26
REMARK    8  A    between atoms: N_25  and  C_27
REMARK                            x       y       z     vdW  Elec       q    Type
REMARK                         _______ _______ _______ _____ _____    ______ ____
ROOT
ATOM      1  C   UNL     1       6.233  -4.867  23.539  0.00  0.00    +0.188 C 
ATOM      2  C   UNL     1       6.415  -3.419  24.082  0.00  0.00    +0.008 A 
ATOM      3  C   UNL     1       6.475  -2.067  23.387  0.00  0.00    +0.035 A 
ATOM      4  C   UNL     1       7.261  -1.070  23.900  0.00  0.00    +0.071 A 
ATOM      5  C   UNL     1       7.624   0.400  23.671  0.00  0.00    +0.093 A 
ATOM      6  C   UNL     1       8.809   0.613  24.361  0.00  0.00    +0.000 A 
ATOM      7  C   UNL     1       9.476   1.818  24.353  0.00  0.00    +0.018 A 
ATOM      8  C   UNL     1       8.892   2.894  23.694  0.00  0.00    +0.009 A 
ATOM      9  C   UNL     1       9.613   4.124  23.559  0.00  0.00    +0.017 A 
ATOM     10  C   UNL     1       8.919   5.261  23.116  0.00  0.00    +0.122 A 
ATOM     11  C   UNL     1       7.575   5.161  22.796  0.00  0.00    +0.048 A 
ATOM     12  C   UNL     1       6.932   3.900  22.817  0.00  0.00    +0.032 A 
ATOM     13  C   UNL     1       7.568   2.704  23.212  0.00  0.00    +0.072 A 
ATOM     14  C   UNL     1       9.218  -0.566  25.143  0.00  0.00    +0.162 C 
ATOM     15  N   UNL     1       6.942   1.453  23.156  0.00  0.00    -0.245 NA
ATOM     16  N   UNL     1       8.084  -1.447  24.957  0.00  0.00    -0.302 N 
ATOM     17  C   UNL     1       7.881  -2.508  25.776  0.00  0.00    +0.259 A 
ATOM     18  O   UNL     1       8.588  -2.751  26.747  0.00  0.00    -0.267 OA
ATOM     19  C   UNL     1       6.759  -3.396  25.392  0.00  0.00    +0.061 A 
ATOM     20  C   UNL     1       6.423  -4.440  26.394  0.00  0.00    +0.273 C 
ATOM     21  O   UNL     1       6.370  -5.749  25.855  0.00  0.00    -0.457 OA
ATOM     22  C   UNL     1       5.715  -5.841  24.677  0.00  0.00    +0.344 C 
ATOM     23  O   UNL     1       4.911  -6.753  24.501  0.00  0.00    -0.247 OA
ENDROOT
BRANCH   1  25
ATOM     24  C   UNL     1       6.222  -5.773  21.076  0.00  0.00    +0.007 C 
ATOM     25  C   UNL     1       5.442  -5.314  22.291  0.00  0.00    +0.048 C 
ENDBRANCH   1  25
BRANCH   1  26
ATOM     26  O   UNL     1       7.604  -5.307  23.289  0.00  0.00    -0.373 OA
ATOM     27  H   UNL     1       8.071  -5.348  24.152  0.00  0.00    +0.211 HD
ENDBRANCH   1  26
BRANCH  10  28
ATOM     28  O   UNL     1       9.581   6.450  23.022  0.00  0.00    -0.506 OA
ATOM     29  H   UNL     1      10.178   6.437  22.255  0.00  0.00    +0.292 HD
ENDBRANCH  10  28
BRANCH   9  30
ATOM     30  C   UNL     1      11.124   4.213  23.770  0.00  0.00    +0.123 C 
BRANCH  30  31
ATOM     31  N   UNL     1      11.689   5.533  23.392  0.00  0.00    -0.304 NA
ATOM     32  C   UNL     1      12.751   5.388  22.396  0.00  0.00    +0.104 C 
ATOM     33  C   UNL     1      12.207   6.255  24.557  0.00  0.00    +0.104 C 
ENDBRANCH  30  31
ENDBRANCH   9  30
TORSDOF 5
ENDMDL
MODEL 3
REMARK VINA RESULT:      -7.1      2.256      9.272
REMARK  Name = 
REMARK  8 active torsions:
REMARK  status: ('A' for Active; 'I' for Inactive)
REMARK    1  A    between atoms: C_1  and  C_2
REMARK    2  A    between atoms: C_2  and  C_3
REMARK    3  A    between atoms: C_3  and  O_4
REMARK    4  A    between atoms: C_21  and  O_22
REMARK    5  A    between atoms: C_23  and  C_24
REMARK    6  A    between atoms: C_24  and  N_25
REMARK    7  A    between atoms: N_25  and  C_26
REMARK    8  A    between atoms: N_25  and  C_27
REMARK                            x       y       z     vdW  Elec       q    Type
REMARK                         _______ _______ _______ _____ _____    ______ ____
ROOT
ATOM      1  C   UNL     1       3.184  -6.073  23.679  0.00  0.00    +0.188 C 
ATOM      2  C   UNL     1       3.926  -4.984  24.510  0.00  0.00    +0.008 A 
ATOM      3  C   UNL     1       4.001  -3.471  24.375  0.00  0.00    +0.035 A 
ATOM      4  C   UNL     1       5.146  -2.811  24.732  0.00  0.00    +0.071 A 
ATOM      5  C   UNL     1       5.716  -1.395  24.860  0.00  0.00    +0.093 A 
ATOM      6  C   UNL     1       7.096  -1.540  24.901  0.00  0.00    +0.000 A 
ATOM      7  C   UNL     1       7.961  -0.471  24.967  0.00  0.00    +0.018 A 
ATOM      8  C   UNL     1       7.427   0.807  25.087  0.00  0.00    +0.009 A 
ATOM      9  C   UNL     1       8.291   1.948  25.034  0.00  0.00    +0.017 A 
ATOM     10  C   UNL     1       7.770   3.199  25.402  0.00  0.00    +0.122 A 
ATOM     11  C   UNL     1       6.440   3.303  25.775  0.00  0.00    +0.048 A 
ATOM     12  C   UNL     1       5.588   2.176  25.687  0.00  0.00    +0.032 A 
ATOM     13  C   UNL     1       6.023   0.895  25.291  0.00  0.00    +0.072 A 
ATOM     14  C   UNL     1       7.506  -2.954  24.932  0.00  0.00    +0.162 C 
ATOM     15  N   UNL     1       5.154  -0.192  25.136  0.00  0.00    -0.245 NA
ATOM     16  N   UNL     1       6.229  -3.626  25.048  0.00  0.00    -0.302 N 
ATOM     17  C   UNL     1       6.153  -4.918  25.450  0.00  0.00    +0.259 A 
ATOM     18  O   UNL     1       7.130  -5.572  25.799  0.00  0.00    -0.267 OA
ATOM     19  C   UNL     1       4.798  -5.517  25.399  0.00  0.00    +0.061 A 
ATOM     20  C   UNL     1       4.690  -6.862  26.021  0.00  0.00    +0.273 C 
ATOM     21  O   UNL     1       4.095  -7.832  25.176  0.00  0.00    -0.457 OA
ATOM     22  C   UNL     1       2.993  -7.401  24.523  0.00  0.00    +0.344 C 
ATOM     23  O   UNL     1       1.999  -8.121  24.474  0.00  0.00    -0.247 OA
ENDROOT
BRANCH   1  25
ATOM     24  C   UNL     1       0.805  -4.985  23.476  0.00  0.00    +0.007 C 
ATOM     25  C   UNL     1       1.848  -5.931  22.919  0.00  0.00    +0.048 C 
ENDBRANCH   1  25
BRANCH   1  26
ATOM     26  O   UNL     1       4.160  -6.437  22.654  0.00  0.00    -0.373 OA
ATOM     27  H   UNL     1       4.525  -5.607  22.277  0.00  0.00    +0.211 HD
ENDBRANCH   1  26
BRANCH  10  28
ATOM     28  O   UNL     1       8.590   4.289  25.396  0.00  0.00    -0.506 OA
ATOM     29  H   UNL     1       8.097   5.076  25.680  0.00  0.00    +0.292 HD
ENDBRANCH  10  28
BRANCH   9  30
ATOM     30  C   UNL     1       9.715   1.870  24.487  0.00  0.00    +0.123 C 
BRANCH  30  31
ATOM     31  N   UNL     1       9.899   2.635  23.227  0.00  0.00    -0.304 NA
ATOM     32  C   UNL     1       9.908   1.746  22.065  0.00  0.00    +0.104 C 
ATOM     33  C   UNL     1      11.133   3.425  23.247  0.00  0.00    +0.104 C 
ENDBRANCH  30  31
ENDBRANCH   9  30
TORSDOF 5
ENDMDL
MODEL 4
REMARK VINA RESULT:      -6.9      2.095      3.157
REMARK  Name = 
REMARK  8 active torsions:
REMARK  status: ('A' for Active; 'I' for Inactive)
REMARK    1  A    between atoms: C_1  and  C_2
REMARK    2  A    between atoms: C_2  and  C_3
REMARK    3  A    between atoms: C_3  and  O_4
REMARK    4  A    between atoms: C_21  and  O_22
REMARK    5  A    between atoms: C_23  and  C_24
REMARK    6  A    between atoms: C_24  and  N_25
REMARK    7  A    between atoms: N_25  and  C_26
REMARK    8  A    between atoms: N_25  and  C_27
REMARK                            x       y       z     vdW  Elec       q    Type
REMARK                         _______ _______ _______ _____ _____    ______ ____
ROOT
ATOM      1  C   UNL     1       8.471   1.433  23.182  0.00  0.00    +0.188 C 
ATOM      2  C   UNL     1       8.288  -0.031  23.680  0.00  0.00    +0.008 A 
ATOM      3  C   UNL     1       7.209  -1.072  23.420  0.00  0.00    +0.035 A 
ATOM      4  C   UNL     1       6.880  -1.972  24.398  0.00  0.00    +0.071 A 
ATOM      5  C   UNL     1       5.985  -3.190  24.645  0.00  0.00    +0.093 A 
ATOM      6  C   UNL     1       5.894  -3.324  26.024  0.00  0.00    +0.000 A 
ATOM      7  C   UNL     1       5.128  -4.292  26.635  0.00  0.00    +0.018 A 
ATOM      8  C   UNL     1       4.486  -5.230  25.835  0.00  0.00    +0.009 A 
ATOM      9  C   UNL     1       3.585  -6.173  26.427  0.00  0.00    +0.017 A 
ATOM     10  C   UNL     1       3.145  -7.256  25.651  0.00  0.00    +0.122 A 
ATOM     11  C   UNL     1       3.566  -7.372  24.336  0.00  0.00    +0.048 A 
ATOM     12  C   UNL     1       4.351  -6.350  23.751  0.00  0.00    +0.032 A 
ATOM     13  C   UNL     1       4.801  -5.211  24.450  0.00  0.00    +0.072 A 
ATOM     14  C   UNL     1       6.756  -2.364  26.735  0.00  0.00    +0.162 C 
ATOM     15  N   UNL     1       5.513  -4.171  23.838  0.00  0.00    -0.245 NA
ATOM     16  N   UNL     1       7.470  -1.745  25.638  0.00  0.00    -0.302 N 
ATOM     17  C   UNL     1       8.610  -1.044  25.852  0.00  0.00    +0.259 A 
ATOM     18  O   UNL     1       9.138  -0.942  26.954  0.00  0.00    -0.267 OA
ATOM     19  C   UNL     1       9.163  -0.357  24.661  0.00  0.00    +0.061 A 
ATOM     20  C   UNL     1      10.506   0.244  24.860  0.00  0.00    +0.273 C 
ATOM     21  O   UNL     1      10.580   1.607  24.480  0.00  0.00    -0.457 OA
ATOM     22  C   UNL     1       9.985   1.889  23.300  0.00  0.00    +0.344 C 
ATOM     23  O   UNL     1      10.561   2.608  22.487  0.00  0.00    -0.247 OA
ENDROOT
BRANCH   1  25
ATOM     24  C   UNL     1       6.965   3.128  21.860  0.00  0.00    +0.007 C 
ATOM     25  C   UNL     1       8.014   2.035  21.836  0.00  0.00    +0.048 C 
ENDBRANCH   1  25
BRANCH   1  26
ATOM     26  O   UNL     1       7.779   2.223  24.198  0.00  0.00    -0.373 OA
ATOM     27  H   UNL     1       7.509   3.073  23.787  0.00  0.00    +0.211 HD
ENDBRANCH   1  26
BRANCH  10  28
ATOM     28  O   UNL     1       2.318  -8.185  26.212  0.00  0.00    -0.506 OA
ATOM     29  H   UNL     1       2.843  -8.894  26.618  0.00  0.00    +0.292 HD
ENDBRANCH  10  28
BRANCH   9  30
ATOM     30  C   UNL     1       3.000  -5.978  27.826  0.00  0.00    +0.123 C 
BRANCH  30  31
ATOM     31  N   UNL     1       3.514  -6.959  28.816  0.00  0.00    -0.304 NA
ATOM     32  C   UNL     1       2.442  -7.440  29.688  0.00  0.00    +0.104 C 
ATOM     33  C   UNL     1       4.591  -6.392  29.632  0.00  0.00    +0.104 C 
ENDBRANCH  30  31
ENDBRANCH   9  30
TORSDOF 5
ENDMDL
MODEL 5
REMARK VINA RESULT:      -6.8      2.144      9.167
REMARK  Name = 
REMARK  8 active torsions:
REMARK  status: ('A' for Active; 'I' for Inactive)
REMARK    1  A    between atoms: C_1  and  C_2
REMARK    2  A    between atoms: C_2  and  C_3
REMARK    3  A    between atoms: C_3  and  O_4
REMARK    4  A    between atoms: C_21  and  O_22
REMARK    5  A    between atoms: C_23  and  C_24
REMARK    6  A    between atoms: C_24  and  N_25
REMARK    7  A    between atoms: N_25  and  C_26
REMARK    8  A    between atoms: N_25  and  C_27
REMARK                            x       y       z     vdW  Elec       q    Type
REMARK                         _______ _______ _______ _____ _____    ______ ____
ROOT
ATOM      1  C   UNL     1       4.569  -5.176  28.275  0.00  0.00    +0.188 C 
ATOM      2  C   UNL     1       5.537  -4.648  27.175  0.00  0.00    +0.008 A 
ATOM      3  C   UNL     1       6.459  -3.440  27.118  0.00  0.00    +0.035 A 
ATOM      4  C   UNL     1       6.684  -2.809  25.924  0.00  0.00    +0.071 A 
ATOM      5  C   UNL     1       7.510  -1.673  25.313  0.00  0.00    +0.093 A 
ATOM      6  C   UNL     1       6.898  -1.363  24.106  0.00  0.00    +0.000 A 
ATOM      7  C   UNL     1       7.333  -0.347  23.283  0.00  0.00    +0.018 A 
ATOM      8  C   UNL     1       8.489   0.340  23.635  0.00  0.00    +0.009 A 
ATOM      9  C   UNL     1       8.900   1.480  22.871  0.00  0.00    +0.017 A 
ATOM     10  C   UNL     1      10.185   2.002  23.087  0.00  0.00    +0.122 A 
ATOM     11  C   UNL     1      11.005   1.427  24.044  0.00  0.00    +0.048 A 
ATOM     12  C   UNL     1      10.512   0.386  24.868  0.00  0.00    +0.032 A 
ATOM     13  C   UNL     1       9.222  -0.167  24.742  0.00  0.00    +0.072 A 
ATOM     14  C   UNL     1       5.789  -2.280  23.791  0.00  0.00    +0.162 C 
ATOM     15  N   UNL     1       8.721  -1.143  25.612  0.00  0.00    -0.245 NA
ATOM     16  N   UNL     1       5.899  -3.249  24.862  0.00  0.00    -0.302 N 
ATOM     17  C   UNL     1       5.294  -4.458  24.776  0.00  0.00    +0.259 A 
ATOM     18  O   UNL     1       4.681  -4.833  23.782  0.00  0.00    -0.267 OA
ATOM     19  C   UNL     1       5.381  -5.296  25.995  0.00  0.00    +0.061 A 
ATOM     20  C   UNL     1       4.887  -6.687  25.829  0.00  0.00    +0.273 C 
ATOM     21  O   UNL     1       3.934  -7.072  26.805  0.00  0.00    -0.457 OA
ATOM     22  C   UNL     1       4.256  -6.715  28.068  0.00  0.00    +0.344 C 
ATOM     23  O   UNL     1       4.120  -7.528  28.979  0.00  0.00    -0.247 OA
ENDROOT
BRANCH   1  25
ATOM     24  C   UNL     1       4.061  -3.854  30.485  0.00  0.00    +0.007 C 
ATOM     25  C   UNL     1       4.718  -5.038  29.806  0.00  0.00    +0.048 C 
ENDBRANCH   1  25
BRANCH   1  26
ATOM     26  O   UNL     1       3.307  -4.508  27.962  0.00  0.00    -0.373 OA
ATOM     27  H   UNL     1       2.579  -5.045  28.343  0.00  0.00    +0.211 HD
ENDBRANCH   1  26
BRANCH  10  28
ATOM     28  O   UNL     1      10.608   3.062  22.339  0.00  0.00    -0.506 OA
ATOM     29  H   UNL     1      11.529   3.276  22.559  0.00  0.00    +0.292 HD
ENDBRANCH  10  28
BRANCH   9  30
ATOM     30  C   UNL     1       7.954   2.210  21.919  0.00  0.00    +0.123 C 
BRANCH  30  31
ATOM     31  N   UNL     1       7.079   3.195  22.606  0.00  0.00    -0.304 NA
ATOM     32  C   UNL     1       5.672   2.974  22.273  0.00  0.00    +0.104 C 
ATOM     33  C   UNL     1       7.449   4.573  22.273  0.00  0.00    +0.104 C 
ENDBRANCH  30  31
ENDBRANCH   9  30
TORSDOF 5
ENDMDL
MODEL 6
REMARK VINA RESULT:      -6.7      2.825      4.274
REMARK  Name = 
REMARK  8 active torsions:
REMARK  status: ('A' for Active; 'I' for Inactive)
REMARK    1  A    between atoms: C_1  and  C_2
REMARK    2  A    between atoms: C_2  and  C_3
REMARK    3  A    between atoms: C_3  and  O_4
REMARK    4  A    between atoms: C_21  and  O_22
REMARK    5  A    between atoms: C_23  and  C_24
REMARK    6  A    between atoms: C_24  and  N_25
REMARK    7  A    between atoms: N_25  and  C_26
REMARK    8  A    between atoms: N_25  and  C_27
REMARK                            x       y       z     vdW  Elec       q    Type
REMARK                         _______ _______ _______ _____ _____    ______ ____
ROOT
ATOM      1  C   UNL     1       8.201   0.237  22.942  0.00  0.00    +0.188 C 
ATOM      2  C   UNL     1       7.765  -1.258  22.962  0.00  0.00    +0.008 A 
ATOM      3  C   UNL     1       6.403  -1.928  22.855  0.00  0.00    +0.035 A 
ATOM      4  C   UNL     1       6.163  -3.096  23.527  0.00  0.00    +0.071 A 
ATOM      5  C   UNL     1       5.081  -4.163  23.714  0.00  0.00    +0.093 A 
ATOM      6  C   UNL     1       5.414  -4.847  24.875  0.00  0.00    +0.000 A 
ATOM      7  C   UNL     1       4.641  -5.860  25.398  0.00  0.00    +0.018 A 
ATOM      8  C   UNL     1       3.523  -6.275  24.684  0.00  0.00    +0.009 A 
ATOM      9  C   UNL     1       2.631  -7.238  25.256  0.00  0.00    +0.017 A 
ATOM     10  C   UNL     1       1.658  -7.823  24.429  0.00  0.00    +0.122 A 
ATOM     11  C   UNL     1       1.568  -7.438  23.102  0.00  0.00    +0.048 A 
ATOM     12  C   UNL     1       2.382  -6.389  22.610  0.00  0.00    +0.032 A 
ATOM     13  C   UNL     1       3.355  -5.724  23.385  0.00  0.00    +0.072 A 
ATOM     14  C   UNL     1       6.706  -4.406  25.429  0.00  0.00    +0.162 C 
ATOM     15  N   UNL     1       4.099  -4.639  22.908  0.00  0.00    -0.245 NA
ATOM     16  N   UNL     1       7.169  -3.496  24.403  0.00  0.00    -0.302 N 
ATOM     17  C   UNL     1       8.469  -3.120  24.335  0.00  0.00    +0.259 A 
ATOM     18  O   UNL     1       9.336  -3.566  25.079  0.00  0.00    -0.267 OA
ATOM     19  C   UNL     1       8.776  -2.087  23.319  0.00  0.00    +0.061 A 
ATOM     20  C   UNL     1      10.224  -1.823  23.119  0.00  0.00    +0.273 C 
ATOM     21  O   UNL     1      10.570  -0.452  23.212  0.00  0.00    -0.457 OA
ATOM     22  C   UNL     1       9.731   0.379  22.555  0.00  0.00    +0.344 C 
ATOM     23  O   UNL     1      10.193   1.281  21.860  0.00  0.00    -0.247 OA
ENDROOT
BRANCH   1  25
ATOM     24  C   UNL     1       6.662   2.362  22.986  0.00  0.00    +0.007 C 
ATOM     25  C   UNL     1       7.526   1.405  22.191  0.00  0.00    +0.048 C 
ENDBRANCH   1  25
BRANCH   1  26
ATOM     26  O   UNL     1       8.150   0.620  24.351  0.00  0.00    -0.373 OA
ATOM     27  H   UNL     1       7.389   1.229  24.471  0.00  0.00    +0.211 HD
ENDBRANCH   1  26
BRANCH  10  28
ATOM     28  O   UNL     1       0.826  -8.772  24.948  0.00  0.00    -0.506 OA
ATOM     29  H   UNL     1       1.251  -9.644  24.904  0.00  0.00    +0.292 HD
ENDBRANCH  10  28
BRANCH   9  30
ATOM     30  C   UNL     1       2.626  -7.563  26.749  0.00  0.00    +0.123 C 
BRANCH  30  31
ATOM     31  N   UNL     1       1.357  -7.188  27.425  0.00  0.00    -0.304 NA
ATOM     32  C   UNL     1       1.287  -5.745  27.654  0.00  0.00    +0.104 C 
ATOM     33  C   UNL     1       1.192  -7.894  28.698  0.00  0.00    +0.104 C 
ENDBRANCH  30  31
ENDBRANCH   9  30
TORSDOF 5
ENDMDL
MODEL 7
REMARK VINA RESULT:      -6.7      2.207      3.235
REMARK  Name = 
REMARK  8 active torsions:
REMARK  status: ('A' for Active; 'I' for Inactive)
REMARK    1  A    between atoms: C_1  and  C_2
REMARK    2  A    between atoms: C_2  and  C_3
REMARK    3  A    between atoms: C_3  and  O_4
REMARK    4  A    between atoms: C_21  and  O_22
REMARK    5  A    between atoms: C_23  and  C_24
REMARK    6  A    between atoms: C_24  and  N_25
REMARK    7  A    between atoms: N_25  and  C_26
REMARK    8  A    between atoms: N_25  and  C_27
REMARK                            x       y       z     vdW  Elec       q    Type
REMARK                         _______ _______ _______ _____ _____    ______ ____
ROOT
ATOM      1  C   UNL     1       9.721   5.049  23.797  0.00  0.00    +0.188 C 
ATOM      2  C   UNL     1       9.189   3.719  24.410  0.00  0.00    +0.008 A 
ATOM      3  C   UNL     1       9.386   2.263  24.019  0.00  0.00    +0.035 A 
ATOM      4  C   UNL     1       8.379   1.358  24.227  0.00  0.00    +0.071 A 
ATOM      5  C   UNL     1       8.074  -0.137  24.098  0.00  0.00    +0.093 A 
ATOM      6  C   UNL     1       6.690  -0.248  24.123  0.00  0.00    +0.000 A 
ATOM      7  C   UNL     1       6.032  -1.449  23.984  0.00  0.00    +0.018 A 
ATOM      8  C   UNL     1       6.787  -2.613  23.900  0.00  0.00    +0.009 A 
ATOM      9  C   UNL     1       6.142  -3.863  23.631  0.00  0.00    +0.017 A 
ATOM     10  C   UNL     1       6.880  -5.046  23.797  0.00  0.00    +0.122 A 
ATOM     11  C   UNL     1       8.208  -4.975  24.185  0.00  0.00    +0.048 A 
ATOM     12  C   UNL     1       8.844  -3.716  24.313  0.00  0.00    +0.032 A 
ATOM     13  C   UNL     1       8.184  -2.484  24.126  0.00  0.00    +0.072 A 
ATOM     14  C   UNL     1       6.033   1.045  24.381  0.00  0.00    +0.162 C 
ATOM     15  N   UNL     1       8.843  -1.250  24.182  0.00  0.00    -0.245 NA
ATOM     16  N   UNL     1       7.169   1.903  24.645  0.00  0.00    -0.302 N 
ATOM     17  C   UNL     1       7.013   3.099  25.262  0.00  0.00    +0.259 A 
ATOM     18  O   UNL     1       5.935   3.499  25.688  0.00  0.00    -0.267 OA
ATOM     19  C   UNL     1       8.238   3.928  25.351  0.00  0.00    +0.061 A 
ATOM     20  C   UNL     1       8.104   5.144  26.194  0.00  0.00    +0.273 C 
ATOM     21  O   UNL     1       8.513   6.335  25.542  0.00  0.00    -0.457 OA
ATOM     22  C   UNL     1       9.673   6.225  24.858  0.00  0.00    +0.344 C 
ATOM     23  O   UNL     1      10.521   7.108  24.959  0.00  0.00    -0.247 OA
ENDROOT
BRANCH   1  25
ATOM     24  C   UNL     1      12.257   4.449  23.479  0.00  0.00    +0.007 C 
ATOM     25  C   UNL     1      11.059   5.278  23.061  0.00  0.00    +0.048 C 
ENDBRANCH   1  25
BRANCH   1  26
ATOM     26  O   UNL     1       8.694   5.404  22.821  0.00  0.00    -0.373 OA
ATOM     27  H   UNL     1       8.191   4.589  22.601  0.00  0.00    +0.211 HD
ENDBRANCH   1  26
BRANCH  10  28
ATOM     28  O   UNL     1       6.269  -6.247  23.584  0.00  0.00    -0.506 OA
ATOM     29  H   UNL     1       5.885  -6.270  22.692  0.00  0.00    +0.292 HD
ENDBRANCH  10  28
BRANCH   9  30
ATOM     30  C   UNL     1       4.725  -3.947  23.065  0.00  0.00    +0.123 C 
BRANCH  30  31
ATOM     31  N   UNL     1       3.771  -4.629  23.976  0.00  0.00    -0.304 NA
ATOM     32  C   UNL     1       2.706  -5.293  23.225  0.00  0.00    +0.104 C 
ATOM     33  C   UNL     1       3.181  -3.697  24.940  0.00  0.00    +0.104 C 
ENDBRANCH  30  31
ENDBRANCH   9  30
TORSDOF 5
ENDMDL
MODEL 8
REMARK VINA RESULT:      -6.6      2.964      9.248
REMARK  Name = 
REMARK  8 active torsions:
REMARK  status: ('A' for Active; 'I' for Inactive)
REMARK    1  A    between atoms: C_1  and  C_2
REMARK    2  A    between atoms: C_2  and  C_3
REMARK    3  A    between atoms: C_3  and  O_4
REMARK    4  A    between atoms: C_21  and  O_22
REMARK    5  A    between atoms: C_23  and  C_24
REMARK    6  A    between atoms: C_24  and  N_25
REMARK    7  A    between atoms: N_25  and  C_26
REMARK    8  A    between atoms: N_25  and  C_27
REMARK                            x       y       z     vdW  Elec       q    Type
REMARK                         _______ _______ _______ _____ _____    ______ ____
ROOT
ATOM      1  C   UNL     1       4.140  -5.622  28.055  0.00  0.00    +0.188 C 
ATOM      2  C   UNL     1       4.367  -4.669  26.845  0.00  0.00    +0.008 A 
ATOM      3  C   UNL     1       5.627  -4.206  26.130  0.00  0.00    +0.035 A 
ATOM      4  C   UNL     1       5.683  -2.950  25.590  0.00  0.00    +0.071 A 
ATOM      5  C   UNL     1       6.603  -2.047  24.762  0.00  0.00    +0.093 A 
ATOM      6  C   UNL     1       6.140  -0.752  24.952  0.00  0.00    +0.000 A 
ATOM      7  C   UNL     1       6.749   0.351  24.398  0.00  0.00    +0.018 A 
ATOM      8  C   UNL     1       7.824   0.153  23.539  0.00  0.00    +0.009 A 
ATOM      9  C   UNL     1       8.557   1.279  23.043  0.00  0.00    +0.017 A 
ATOM     10  C   UNL     1       9.468   1.075  21.996  0.00  0.00    +0.122 A 
ATOM     11  C   UNL     1       9.656  -0.201  21.490  0.00  0.00    +0.048 A 
ATOM     12  C   UNL     1       9.009  -1.306  22.095  0.00  0.00    +0.032 A 
ATOM     13  C   UNL     1       8.110  -1.191  23.176  0.00  0.00    +0.072 A 
ATOM     14  C   UNL     1       4.901  -0.715  25.750  0.00  0.00    +0.162 C 
ATOM     15  N   UNL     1       7.537  -2.298  23.813  0.00  0.00    -0.245 NA
ATOM     16  N   UNL     1       4.603  -2.125  25.891  0.00  0.00    -0.302 N 
ATOM     17  C   UNL     1       3.369  -2.545  26.262  0.00  0.00    +0.259 A 
ATOM     18  O   UNL     1       2.424  -1.782  26.435  0.00  0.00    -0.267 OA
ATOM     19  C   UNL     1       3.241  -4.002  26.493  0.00  0.00    +0.061 A 
ATOM     20  C   UNL     1       1.850  -4.477  26.709  0.00  0.00    +0.273 C 
ATOM     21  O   UNL     1       1.691  -5.257  27.881  0.00  0.00    -0.457 OA
ATOM     22  C   UNL     1       2.657  -6.183  28.069  0.00  0.00    +0.344 C 
ATOM     23  O   UNL     1       2.347  -7.323  28.404  0.00  0.00    -0.247 OA
ENDROOT
BRANCH   1  25
ATOM     24  C   UNL     1       6.269  -6.593  29.245  0.00  0.00    +0.007 C 
ATOM     25  C   UNL     1       4.992  -6.842  28.467  0.00  0.00    +0.048 C 
ENDBRANCH   1  25
BRANCH   1  26
ATOM     26  O   UNL     1       4.194  -4.723  29.206  0.00  0.00    -0.373 OA
ATOM     27  H   UNL     1       4.997  -4.165  29.115  0.00  0.00    +0.211 HD
ENDBRANCH   1  26
BRANCH  10  28
ATOM     28  O   UNL     1      10.145   2.144  21.484  0.00  0.00    -0.506 OA
ATOM     29  H   UNL     1       9.745   2.417  20.642  0.00  0.00    +0.292 HD
ENDBRANCH  10  28
BRANCH   9  30
ATOM     30  C   UNL     1       8.466   2.662  23.688  0.00  0.00    +0.123 C 
BRANCH  30  31
ATOM     31  N   UNL     1       8.024   3.719  22.742  0.00  0.00    -0.304 NA
ATOM     32  C   UNL     1       8.129   5.047  23.347  0.00  0.00    +0.104 C 
ATOM     33  C   UNL     1       6.650   3.498  22.285  0.00  0.00    +0.104 C 
ENDBRANCH  30  31
ENDBRANCH   9  30
TORSDOF 5
ENDMDL
MODEL 9
REMARK VINA RESULT:      -6.4      2.127      3.506
REMARK  Name = 
REMARK  8 active torsions:
REMARK  status: ('A' for Active; 'I' for Inactive)
REMARK    1  A    between atoms: C_1  and  C_2
REMARK    2  A    between atoms: C_2  and  C_3
REMARK    3  A    between atoms: C_3  and  O_4
REMARK    4  A    between atoms: C_21  and  O_22
REMARK    5  A    between atoms: C_23  and  C_24
REMARK    6  A    between atoms: C_24  and  N_25
REMARK    7  A    between atoms: N_25  and  C_26
REMARK    8  A    between atoms: N_25  and  C_27
REMARK                            x       y       z     vdW  Elec       q    Type
REMARK                         _______ _______ _______ _____ _____    ______ ____
ROOT
ATOM      1  C   UNL     1       9.416   4.771  23.931  0.00  0.00    +0.188 C 
ATOM      2  C   UNL     1       8.755   3.616  24.741  0.00  0.00    +0.008 A 
ATOM      3  C   UNL     1       9.039   2.124  24.811  0.00  0.00    +0.035 A 
ATOM      4  C   UNL     1       8.012   1.243  25.020  0.00  0.00    +0.071 A 
ATOM      5  C   UNL     1       7.746  -0.250  25.232  0.00  0.00    +0.093 A 
ATOM      6  C   UNL     1       6.396  -0.439  24.972  0.00  0.00    +0.000 A 
ATOM      7  C   UNL     1       5.789  -1.674  25.014  0.00  0.00    +0.018 A 
ATOM      8  C   UNL     1       6.543  -2.769  25.420  0.00  0.00    +0.009 A 
ATOM      9  C   UNL     1       5.980  -4.085  25.357  0.00  0.00    +0.017 A 
ATOM     10  C   UNL     1       6.658  -5.134  25.997  0.00  0.00    +0.122 A 
ATOM     11  C   UNL     1       7.858  -4.880  26.642  0.00  0.00    +0.048 A 
ATOM     12  C   UNL     1       8.445  -3.594  26.568  0.00  0.00    +0.032 A 
ATOM     13  C   UNL     1       7.848  -2.498  25.913  0.00  0.00    +0.072 A 
ATOM     14  C   UNL     1       5.695   0.831  24.717  0.00  0.00    +0.162 C 
ATOM     15  N   UNL     1       8.475  -1.252  25.783  0.00  0.00    -0.245 NA
ATOM     16  N   UNL     1       6.737   1.799  24.991  0.00  0.00    -0.302 N 
ATOM     17  C   UNL     1       6.440   3.103  25.212  0.00  0.00    +0.259 A 
ATOM     18  O   UNL     1       5.291   3.531  25.260  0.00  0.00    -0.267 OA
ATOM     19  C   UNL     1       7.609   4.002  25.350  0.00  0.00    +0.061 A 
ATOM     20  C   UNL     1       7.280   5.385  25.783  0.00  0.00    +0.273 C 
ATOM     21  O   UNL     1       7.830   6.388  24.946  0.00  0.00    -0.457 OA
ATOM     22  C   UNL     1       9.119   6.177  24.598  0.00  0.00    +0.344 C 
ATOM     23  O   UNL     1       9.919   7.108  24.647  0.00  0.00    -0.247 OA
ENDROOT
BRANCH   1  25
ATOM     24  C   UNL     1      11.699   3.611  23.356  0.00  0.00    +0.007 C 
ATOM     25  C   UNL     1      10.889   4.885  23.484  0.00  0.00    +0.048 C 
ENDBRANCH   1  25
BRANCH   1  26
ATOM     26  O   UNL     1       8.647   4.793  22.689  0.00  0.00    -0.373 OA
ATOM     27  H   UNL     1       9.258   4.575  21.951  0.00  0.00    +0.211 HD
ENDBRANCH   1  26
BRANCH  10  28
ATOM     28  O   UNL     1       6.115  -6.385  25.982  0.00  0.00    -0.506 OA
ATOM     29  H   UNL     1       5.412  -6.433  25.314  0.00  0.00    +0.292 HD
ENDBRANCH  10  28
BRANCH   9  30
ATOM     30  C   UNL     1       4.736  -4.403  24.528  0.00  0.00    +0.123 C 
BRANCH  30  31
ATOM     31  N   UNL     1       4.976  -5.437  23.489  0.00  0.00    -0.304 NA
ATOM     32  C   UNL     1       5.750  -4.894  22.372  0.00  0.00    +0.104 C 
ATOM     33  C   UNL     1       3.721  -6.001  22.985  0.00  0.00    +0.104 C 
ENDBRANCH  30  31
ENDBRANCH   9  30
TORSDOF 5
ENDMDL
