MODEL 1
REMARK VINA RESULT:      -8.0      0.000      0.000
REMARK  Name = 
REMARK  5 active torsions:
REMARK  status: ('A' for Active; 'I' for Inactive)
REMARK    1  A    between atoms: N_1  and  S_2
REMARK    2  A    between atoms: S_2  and  O_5
REMARK    3  A    between atoms: O_5  and  C_6
REMARK    4  A    between atoms: C_11  and  C_12
REMARK    5  A    between atoms: C_12  and  C_13
REMARK                            x       y       z     vdW  Elec       q    Type
REMARK                         _______ _______ _______ _____ _____    ______ ____
ROOT
ATOM      1  C   UNL     1       5.511  -6.227  25.984  0.00  0.00    +0.160 A 
ATOM      2  C   UNL     1       6.737  -5.681  26.351  0.00  0.00    +0.076 A 
ATOM      3  C   UNL     1       7.398  -4.930  25.396  0.00  0.00    +0.104 A 
ATOM      4  C   UNL     1       6.935  -4.730  24.099  0.00  0.00    +0.002 A 
ATOM      5  C   UNL     1       7.807  -3.861  23.313  0.00  0.00    +0.032 C 
ATOM      6  C   UNL     1       8.880  -3.426  24.005  0.00  0.00    +0.072 C 
ATOM      7  C   UNL     1       5.738  -5.317  23.720  0.00  0.00    +0.013 A 
ATOM      8  S   UNL     1       8.886  -4.050  25.638  0.00  0.00    +0.022 S 
ATOM      9  O   UNL     1       8.627  -2.986  26.584  0.00  0.00    -0.165 OA
ATOM     10  O   UNL     1       9.944  -5.024  25.813  0.00  0.00    -0.165 OA
ATOM     11  C   UNL     1       5.028  -6.071  24.669  0.00  0.00    +0.049 A 
ENDROOT
BRANCH   1  12
ATOM     12  O   UNL     1       4.693  -6.924  26.837  0.00  0.00    -0.334 OA
BRANCH  12  13
ATOM     13  S   UNL     1       4.844  -6.784  28.455  0.00  0.00    +0.189 S 
ATOM     14  O   UNL     1       5.988  -7.557  28.884  0.00  0.00    -0.119 OA
ATOM     15  O   UNL     1       4.656  -5.414  28.865  0.00  0.00    -0.119 OA
BRANCH  13  16
ATOM     16  N   UNL     1       3.519  -7.616  29.063  0.00  0.00    -0.174 NA
ATOM     17  H   UNL     1       3.310  -8.407  28.457  0.00  0.00    +0.147 HD
ATOM     18  H   UNL     1       3.747  -7.915  30.012  0.00  0.00    +0.147 HD
ENDBRANCH  13  16
ENDBRANCH  12  13
ENDBRANCH   1  12
BRANCH   6  19
ATOM     19  C   UNL     1       9.917  -2.438  23.580  0.00  0.00    +0.058 C 
BRANCH  19  20
ATOM     20  C   UNL     1       9.448  -0.966  23.422  0.00  0.00    -0.005 C 
ATOM     21  C   UNL     1      10.017  -0.413  22.097  0.00  0.00    +0.004 C 
ATOM     22  C   UNL     1       9.399   0.917  21.669  0.00  0.00    +0.000 C 
ATOM     23  C   UNL     1      10.113   2.152  22.210  0.00  0.00    +0.000 C 
ATOM     24  C   UNL     1      10.573   2.074  23.661  0.00  0.00    +0.000 C 
ATOM     25  C   UNL     1       9.593   1.368  24.592  0.00  0.00    +0.000 C 
ATOM     26  C   UNL     1       9.823  -0.142  24.668  0.00  0.00    +0.004 C 
ENDBRANCH  19  20
ENDBRANCH   6  19
TORSDOF 5
ENDMDL
MODEL 2
REMARK VINA RESULT:      -7.8      1.978      2.899
REMARK  Name = 
REMARK  5 active torsions:
REMARK  status: ('A' for Active; 'I' for Inactive)
REMARK    1  A    between atoms: N_1  and  S_2
REMARK    2  A    between atoms: S_2  and  O_5
REMARK    3  A    between atoms: O_5  and  C_6
REMARK    4  A    between atoms: C_11  and  C_12
REMARK    5  A    between atoms: C_12  and  C_13
REMARK                            x       y       z     vdW  Elec       q    Type
REMARK                         _______ _______ _______ _____ _____    ______ ____
ROOT
ATOM      1  C   UNL     1       7.192  -5.296  25.724  0.00  0.00    +0.160 A 
ATOM      2  C   UNL     1       6.764  -4.325  24.824  0.00  0.00    +0.076 A 
ATOM      3  C   UNL     1       7.742  -3.543  24.236  0.00  0.00    +0.104 A 
ATOM      4  C   UNL     1       9.100  -3.641  24.523  0.00  0.00    +0.002 A 
ATOM      5  C   UNL     1       9.916  -2.725  23.728  0.00  0.00    +0.032 C 
ATOM      6  C   UNL     1       9.187  -1.976  22.877  0.00  0.00    +0.072 C 
ATOM      7  C   UNL     1       9.518  -4.574  25.458  0.00  0.00    +0.013 A 
ATOM      8  S   UNL     1       7.481  -2.340  22.998  0.00  0.00    +0.022 S 
ATOM      9  O   UNL     1       7.027  -3.020  21.804  0.00  0.00    -0.165 OA
ATOM     10  O   UNL     1       6.761  -1.239  23.605  0.00  0.00    -0.165 OA
ATOM     11  C   UNL     1       8.556  -5.400  26.062  0.00  0.00    +0.049 A 
ENDROOT
BRANCH   1  12
ATOM     12  O   UNL     1       6.361  -6.206  26.327  0.00  0.00    -0.334 OA
BRANCH  12  13
ATOM     13  S   UNL     1       5.626  -5.870  27.744  0.00  0.00    +0.189 S 
ATOM     14  O   UNL     1       6.599  -5.301  28.649  0.00  0.00    -0.119 OA
ATOM     15  O   UNL     1       4.345  -5.247  27.516  0.00  0.00    -0.119 OA
BRANCH  13  16
ATOM     16  N   UNL     1       5.277  -7.379  28.391  0.00  0.00    -0.174 NA
ATOM     17  H   UNL     1       4.288  -7.583  28.257  0.00  0.00    +0.147 HD
ATOM     18  H   UNL     1       5.871  -8.064  27.922  0.00  0.00    +0.147 HD
ENDBRANCH  13  16
ENDBRANCH  12  13
ENDBRANCH   1  12
BRANCH   6  19
ATOM     19  C   UNL     1       9.674  -1.026  21.831  0.00  0.00    +0.058 C 
BRANCH  19  20
ATOM     20  C   UNL     1       9.687   0.479  22.215  0.00  0.00    -0.005 C 
ATOM     21  C   UNL     1       9.833   0.589  23.748  0.00  0.00    +0.004 C 
ATOM     22  C   UNL     1      10.154   2.001  24.237  0.00  0.00    +0.000 C 
ATOM     23  C   UNL     1       8.932   2.864  24.534  0.00  0.00    +0.000 C 
ATOM     24  C   UNL     1       7.782   2.756  23.540  0.00  0.00    +0.000 C 
ATOM     25  C   UNL     1       8.221   2.641  22.084  0.00  0.00    +0.000 C 
ATOM     26  C   UNL     1       8.449   1.195  21.641  0.00  0.00    +0.004 C 
ENDBRANCH  19  20
ENDBRANCH   6  19
TORSDOF 5
ENDMDL
MODEL 3
REMARK VINA RESULT:      -7.6      2.951      3.323
REMARK  Name = 
REMARK  5 active torsions:
REMARK  status: ('A' for Active; 'I' for Inactive)
REMARK    1  A    between atoms: N_1  and  S_2
REMARK    2  A    between atoms: S_2  and  O_5
REMARK    3  A    between atoms: O_5  and  C_6
REMARK    4  A    between atoms: C_11  and  C_12
REMARK    5  A    between atoms: C_12  and  C_13
REMARK                            x       y       z     vdW  Elec       q    Type
REMARK                         _______ _______ _______ _____ _____    ______ ____
ROOT
ATOM      1  C   UNL     1       4.563  -6.888  24.663  0.00  0.00    +0.160 A 
ATOM      2  C   UNL     1       4.936  -6.324  23.447  0.00  0.00    +0.076 A 
ATOM      3  C   UNL     1       5.901  -5.334  23.486  0.00  0.00    +0.104 A 
ATOM      4  C   UNL     1       6.477  -4.849  24.656  0.00  0.00    +0.002 A 
ATOM      5  C   UNL     1       7.500  -3.835  24.406  0.00  0.00    +0.032 C 
ATOM      6  C   UNL     1       7.679  -3.581  23.095  0.00  0.00    +0.072 C 
ATOM      7  C   UNL     1       6.067  -5.376  25.870  0.00  0.00    +0.013 A 
ATOM      8  S   UNL     1       6.618  -4.552  22.100  0.00  0.00    +0.022 S 
ATOM      9  O   UNL     1       7.381  -5.544  21.373  0.00  0.00    -0.165 OA
ATOM     10  O   UNL     1       5.595  -3.731  21.485  0.00  0.00    -0.165 OA
ATOM     11  C   UNL     1       5.103  -6.398  25.869  0.00  0.00    +0.049 A 
ENDROOT
BRANCH   1  12
ATOM     12  O   UNL     1       3.685  -7.935  24.790  0.00  0.00    -0.334 OA
BRANCH  12  13
ATOM     13  S   UNL     1       2.085  -7.729  24.550  0.00  0.00    +0.189 S 
ATOM     14  O   UNL     1       1.368  -8.735  25.301  0.00  0.00    -0.119 OA
ATOM     15  O   UNL     1       1.736  -6.331  24.629  0.00  0.00    -0.119 OA
BRANCH  13  16
ATOM     16  N   UNL     1       1.854  -8.154  22.943  0.00  0.00    -0.174 NA
ATOM     17  H   UNL     1       2.623  -7.790  22.384  0.00  0.00    +0.147 HD
ATOM     18  H   UNL     1       1.800  -9.172  22.895  0.00  0.00    +0.147 HD
ENDBRANCH  13  16
ENDBRANCH  12  13
ENDBRANCH   1  12
BRANCH   6  19
ATOM     19  C   UNL     1       8.707  -2.705  22.454  0.00  0.00    +0.058 C 
BRANCH  19  20
ATOM     20  C   UNL     1       8.632  -1.191  22.789  0.00  0.00    -0.005 C 
ATOM     21  C   UNL     1       9.246  -0.401  21.613  0.00  0.00    +0.004 C 
ATOM     22  C   UNL     1       8.976   1.102  21.672  0.00  0.00    +0.000 C 
ATOM     23  C   UNL     1      10.021   1.906  22.440  0.00  0.00    +0.000 C 
ATOM     24  C   UNL     1      10.530   1.275  23.731  0.00  0.00    +0.000 C 
ATOM     25  C   UNL     1       9.455   0.563  24.546  0.00  0.00    +0.000 C 
ATOM     26  C   UNL     1       9.285  -0.906  24.155  0.00  0.00    +0.004 C 
ENDBRANCH  19  20
ENDBRANCH   6  19
TORSDOF 5
ENDMDL
MODEL 4
REMARK VINA RESULT:      -7.4      1.643      2.404
REMARK  Name = 
REMARK  5 active torsions:
REMARK  status: ('A' for Active; 'I' for Inactive)
REMARK    1  A    between atoms: N_1  and  S_2
REMARK    2  A    between atoms: S_2  and  O_5
REMARK    3  A    between atoms: O_5  and  C_6
REMARK    4  A    between atoms: C_11  and  C_12
REMARK    5  A    between atoms: C_12  and  C_13
REMARK                            x       y       z     vdW  Elec       q    Type
REMARK                         _______ _______ _______ _____ _____    ______ ____
ROOT
ATOM      1  C   UNL     1       5.211  -4.572  24.644  0.00  0.00    +0.160 A 
ATOM      2  C   UNL     1       6.528  -4.359  25.040  0.00  0.00    +0.076 A 
ATOM      3  C   UNL     1       7.330  -3.628  24.182  0.00  0.00    +0.104 A 
ATOM      4  C   UNL     1       6.913  -3.140  22.948  0.00  0.00    +0.002 A 
ATOM      5  C   UNL     1       7.947  -2.365  22.266  0.00  0.00    +0.032 C 
ATOM      6  C   UNL     1       9.092  -2.277  22.974  0.00  0.00    +0.072 C 
ATOM      7  C   UNL     1       5.616  -3.396  22.532  0.00  0.00    +0.013 A 
ATOM      8  S   UNL     1       8.973  -3.130  24.496  0.00  0.00    +0.022 S 
ATOM      9  O   UNL     1       8.953  -2.191  25.597  0.00  0.00    -0.165 OA
ATOM     10  O   UNL     1       9.798  -4.320  24.484  0.00  0.00    -0.165 OA
ATOM     11  C   UNL     1       4.766  -4.119  23.385  0.00  0.00    +0.049 A 
ENDROOT
BRANCH   1  12
ATOM     12  O   UNL     1       4.267  -5.202  25.415  0.00  0.00    -0.334 OA
BRANCH  12  13
ATOM     13  S   UNL     1       4.374  -6.795  25.747  0.00  0.00    +0.189 S 
ATOM     14  O   UNL     1       4.437  -7.527  24.503  0.00  0.00    -0.119 OA
ATOM     15  O   UNL     1       5.318  -7.027  26.814  0.00  0.00    -0.119 OA
BRANCH  13  16
ATOM     16  N   UNL     1       2.873  -7.180  26.391  0.00  0.00    -0.174 NA
ATOM     17  H   UNL     1       2.795  -6.786  27.326  0.00  0.00    +0.147 HD
ATOM     18  H   UNL     1       2.160  -6.807  25.762  0.00  0.00    +0.147 HD
ENDBRANCH  13  16
ENDBRANCH  12  13
ENDBRANCH   1  12
BRANCH   6  19
ATOM     19  C   UNL     1      10.315  -1.477  22.661  0.00  0.00    +0.058 C 
BRANCH  19  20
ATOM     20  C   UNL     1      10.142   0.065  22.621  0.00  0.00    -0.005 C 
ATOM     21  C   UNL     1       9.895   0.565  24.062  0.00  0.00    +0.004 C 
ATOM     22  C   UNL     1       9.999   2.081  24.214  0.00  0.00    +0.000 C 
ATOM     23  C   UNL     1       8.692   2.834  23.987  0.00  0.00    +0.000 C 
ATOM     24  C   UNL     1       7.833   2.345  22.827  0.00  0.00    +0.000 C 
ATOM     25  C   UNL     1       8.627   1.932  21.592  0.00  0.00    +0.000 C 
ATOM     26  C   UNL     1       9.045   0.461  21.615  0.00  0.00    +0.004 C 
ENDBRANCH  19  20
ENDBRANCH   6  19
TORSDOF 5
ENDMDL
MODEL 5
REMARK VINA RESULT:      -7.3      4.801      8.112
REMARK  Name = 
REMARK  5 active torsions:
REMARK  status: ('A' for Active; 'I' for Inactive)
REMARK    1  A    between atoms: N_1  and  S_2
REMARK    2  A    between atoms: S_2  and  O_5
REMARK    3  A    between atoms: O_5  and  C_6
REMARK    4  A    between atoms: C_11  and  C_12
REMARK    5  A    between atoms: C_12  and  C_13
REMARK                            x       y       z     vdW  Elec       q    Type
REMARK                         _______ _______ _______ _____ _____    ______ ____
ROOT
ATOM      1  C   UNL     1       8.837   2.208  23.027  0.00  0.00    +0.160 A 
ATOM      2  C   UNL     1       8.336   1.336  23.989  0.00  0.00    +0.076 A 
ATOM      3  C   UNL     1       8.716   0.009  23.888  0.00  0.00    +0.104 A 
ATOM      4  C   UNL     1       9.519  -0.500  22.871  0.00  0.00    +0.002 A 
ATOM      5  C   UNL     1       9.799  -1.925  23.030  0.00  0.00    +0.032 C 
ATOM      6  C   UNL     1       9.227  -2.455  24.130  0.00  0.00    +0.072 C 
ATOM      7  C   UNL     1       9.973   0.361  21.886  0.00  0.00    +0.013 A 
ATOM      8  S   UNL     1       8.320  -1.256  25.023  0.00  0.00    +0.022 S 
ATOM      9  O   UNL     1       8.983  -0.955  26.274  0.00  0.00    -0.165 OA
ATOM     10  O   UNL     1       6.897  -1.505  24.920  0.00  0.00    -0.165 OA
ATOM     11  C   UNL     1       9.626   1.720  21.966  0.00  0.00    +0.049 A 
ENDROOT
BRANCH   1  12
ATOM     12  O   UNL     1       8.626   3.564  23.034  0.00  0.00    -0.334 OA
BRANCH  12  13
ATOM     13  S   UNL     1       7.158   4.192  22.699  0.00  0.00    +0.189 S 
ATOM     14  O   UNL     1       6.439   3.269  21.850  0.00  0.00    -0.119 OA
ATOM     15  O   UNL     1       6.563   4.751  23.888  0.00  0.00    -0.119 OA
BRANCH  13  16
ATOM     16  N   UNL     1       7.492   5.506  21.711  0.00  0.00    -0.174 NA
ATOM     17  H   UNL     1       6.846   5.509  20.924  0.00  0.00    +0.147 HD
ATOM     18  H   UNL     1       7.404   6.352  22.276  0.00  0.00    +0.147 HD
ENDBRANCH  13  16
ENDBRANCH  12  13
ENDBRANCH   1  12
BRANCH   6  19
ATOM     19  C   UNL     1       9.385  -3.834  24.683  0.00  0.00    +0.058 C 
BRANCH  19  20
ATOM     20  C   UNL     1       8.242  -4.839  24.375  0.00  0.00    -0.005 C 
ATOM     21  C   UNL     1       7.623  -4.469  23.009  0.00  0.00    +0.004 C 
ATOM     22  C   UNL     1       6.691  -5.540  22.445  0.00  0.00    +0.000 C 
ATOM     23  C   UNL     1       5.233  -5.401  22.870  0.00  0.00    +0.000 C 
ATOM     24  C   UNL     1       4.997  -5.022  24.327  0.00  0.00    +0.000 C 
ATOM     25  C   UNL     1       5.953  -5.689  25.310  0.00  0.00    +0.000 C 
ATOM     26  C   UNL     1       7.233  -4.883  25.538  0.00  0.00    +0.004 C 
ENDBRANCH  19  20
ENDBRANCH   6  19
TORSDOF 5
ENDMDL
MODEL 6
REMARK VINA RESULT:      -7.1      2.798      3.359
REMARK  Name = 
REMARK  5 active torsions:
REMARK  status: ('A' for Active; 'I' for Inactive)
REMARK    1  A    between atoms: N_1  and  S_2
REMARK    2  A    between atoms: S_2  and  O_5
REMARK    3  A    between atoms: O_5  and  C_6
REMARK    4  A    between atoms: C_11  and  C_12
REMARK    5  A    between atoms: C_12  and  C_13
REMARK                            x       y       z     vdW  Elec       q    Type
REMARK                         _______ _______ _______ _____ _____    ______ ____
ROOT
ATOM      1  C   UNL     1       4.746  -5.455  22.976  0.00  0.00    +0.160 A 
ATOM      2  C   UNL     1       4.851  -4.394  23.870  0.00  0.00    +0.076 A 
ATOM      3  C   UNL     1       6.120  -3.892  24.098  0.00  0.00    +0.104 A 
ATOM      4  C   UNL     1       7.280  -4.408  23.528  0.00  0.00    +0.002 A 
ATOM      5  C   UNL     1       8.478  -3.661  23.906  0.00  0.00    +0.032 C 
ATOM      6  C   UNL     1       8.215  -2.623  24.725  0.00  0.00    +0.072 C 
ATOM      7  C   UNL     1       7.178  -5.497  22.678  0.00  0.00    +0.013 A 
ATOM      8  S   UNL     1       6.508  -2.502  25.080  0.00  0.00    +0.022 S 
ATOM      9  O   UNL     1       5.943  -1.332  24.441  0.00  0.00    -0.165 OA
ATOM     10  O   UNL     1       6.243  -2.855  26.460  0.00  0.00    -0.165 OA
ATOM     11  C   UNL     1       5.904  -6.022  22.407  0.00  0.00    +0.049 A 
ENDROOT
BRANCH   1  12
ATOM     12  O   UNL     1       3.556  -6.010  22.578  0.00  0.00    -0.334 OA
BRANCH  12  13
ATOM     13  S   UNL     1       2.657  -6.906  23.602  0.00  0.00    +0.189 S 
ATOM     14  O   UNL     1       3.542  -7.688  24.437  0.00  0.00    -0.119 OA
ATOM     15  O   UNL     1       1.587  -6.117  24.162  0.00  0.00    -0.119 OA
BRANCH  13  16
ATOM     16  N   UNL     1       1.907  -8.032  22.610  0.00  0.00    -0.174 NA
ATOM     17  H   UNL     1       1.691  -7.601  21.713  0.00  0.00    +0.147 HD
ATOM     18  H   UNL     1       2.540  -8.827  22.506  0.00  0.00    +0.147 HD
ENDBRANCH  13  16
ENDBRANCH  12  13
ENDBRANCH   1  12
BRANCH   6  19
ATOM     19  C   UNL     1       9.156  -1.573  25.219  0.00  0.00    +0.058 C 
BRANCH  19  20
ATOM     20  C   UNL     1       9.861  -0.710  24.137  0.00  0.00    -0.005 C 
ATOM     21  C   UNL     1      10.016   0.726  24.683  0.00  0.00    +0.004 C 
ATOM     22  C   UNL     1      10.949   1.604  23.851  0.00  0.00    +0.000 C 
ATOM     23  C   UNL     1      10.264   2.367  22.721  0.00  0.00    +0.000 C 
ATOM     24  C   UNL     1       9.212   1.592  21.936  0.00  0.00    +0.000 C 
ATOM     25  C   UNL     1       9.572   0.133  21.679  0.00  0.00    +0.000 C 
ATOM     26  C   UNL     1       9.108  -0.803  22.796  0.00  0.00    +0.004 C 
ENDBRANCH  19  20
ENDBRANCH   6  19
TORSDOF 5
ENDMDL
MODEL 7
REMARK VINA RESULT:      -7.1      2.520      3.326
REMARK  Name = 
REMARK  5 active torsions:
REMARK  status: ('A' for Active; 'I' for Inactive)
REMARK    1  A    between atoms: N_1  and  S_2
REMARK    2  A    between atoms: S_2  and  O_5
REMARK    3  A    between atoms: O_5  and  C_6
REMARK    4  A    between atoms: C_11  and  C_12
REMARK    5  A    between atoms: C_12  and  C_13
REMARK                            x       y       z     vdW  Elec       q    Type
REMARK                         _______ _______ _______ _____ _____    ______ ____
ROOT
ATOM      1  C   UNL     1       6.131  -5.178  25.509  0.00  0.00    +0.160 A 
ATOM      2  C   UNL     1       7.030  -4.585  24.628  0.00  0.00    +0.076 A 
ATOM      3  C   UNL     1       7.603  -3.391  25.028  0.00  0.00    +0.104 A 
ATOM      4  C   UNL     1       7.302  -2.739  26.220  0.00  0.00    +0.002 A 
ATOM      5  C   UNL     1       8.082  -1.519  26.412  0.00  0.00    +0.032 C 
ATOM      6  C   UNL     1       8.937  -1.276  25.398  0.00  0.00    +0.072 C 
ATOM      7  C   UNL     1       6.367  -3.305  27.072  0.00  0.00    +0.013 A 
ATOM      8  S   UNL     1       8.837  -2.510  24.163  0.00  0.00    +0.022 S 
ATOM      9  O   UNL     1      10.039  -3.314  24.158  0.00  0.00    -0.165 OA
ATOM     10  O   UNL     1       8.231  -1.982  22.957  0.00  0.00    -0.165 OA
ATOM     11  C   UNL     1       5.779  -4.528  26.710  0.00  0.00    +0.049 A 
ENDROOT
BRANCH   1  12
ATOM     12  O   UNL     1       5.542  -6.400  25.302  0.00  0.00    -0.334 OA
BRANCH  12  13
ATOM     13  S   UNL     1       4.220  -6.552  24.359  0.00  0.00    +0.189 S 
ATOM     14  O   UNL     1       3.662  -7.871  24.549  0.00  0.00    -0.119 OA
ATOM     15  O   UNL     1       3.404  -5.364  24.435  0.00  0.00    -0.119 OA
BRANCH  13  16
ATOM     16  N   UNL     1       4.832  -6.570  22.797  0.00  0.00    -0.174 NA
ATOM     17  H   UNL     1       5.458  -5.777  22.670  0.00  0.00    +0.147 HD
ATOM     18  H   UNL     1       5.316  -7.460  22.662  0.00  0.00    +0.147 HD
ENDBRANCH  13  16
ENDBRANCH  12  13
ENDBRANCH   1  12
BRANCH   6  19
ATOM     19  C   UNL     1       9.972  -0.203  25.297  0.00  0.00    +0.058 C 
BRANCH  19  20
ATOM     20  C   UNL     1       9.645   0.988  24.356  0.00  0.00    -0.005 C 
ATOM     21  C   UNL     1       8.118   1.216  24.371  0.00  0.00    +0.004 C 
ATOM     22  C   UNL     1       7.684   2.531  23.725  0.00  0.00    +0.000 C 
ATOM     23  C   UNL     1       7.413   2.444  22.227  0.00  0.00    +0.000 C 
ATOM     24  C   UNL     1       8.395   1.605  21.419  0.00  0.00    +0.000 C 
ATOM     25  C   UNL     1       9.849   1.744  21.861  0.00  0.00    +0.000 C 
ATOM     26  C   UNL     1      10.238   0.748  22.954  0.00  0.00    +0.004 C 
ENDBRANCH  19  20
ENDBRANCH   6  19
TORSDOF 5
ENDMDL
MODEL 8
REMARK VINA RESULT:      -7.1      2.775      3.823
REMARK  Name = 
REMARK  5 active torsions:
REMARK  status: ('A' for Active; 'I' for Inactive)
REMARK    1  A    between atoms: N_1  and  S_2
REMARK    2  A    between atoms: S_2  and  O_5
REMARK    3  A    between atoms: O_5  and  C_6
REMARK    4  A    between atoms: C_11  and  C_12
REMARK    5  A    between atoms: C_12  and  C_13
REMARK                            x       y       z     vdW  Elec       q    Type
REMARK                         _______ _______ _______ _____ _____    ______ ____
ROOT
ATOM      1  C   UNL     1       7.117  -4.132  24.315  0.00  0.00    +0.160 A 
ATOM      2  C   UNL     1       8.368  -3.534  24.201  0.00  0.00    +0.076 A 
ATOM      3  C   UNL     1       8.421  -2.310  23.558  0.00  0.00    +0.104 A 
ATOM      4  C   UNL     1       7.319  -1.677  22.990  0.00  0.00    +0.002 A 
ATOM      5  C   UNL     1       7.648  -0.376  22.413  0.00  0.00    +0.032 C 
ATOM      6  C   UNL     1       8.950  -0.053  22.551  0.00  0.00    +0.072 C 
ATOM      7  C   UNL     1       6.083  -2.299  23.060  0.00  0.00    +0.013 A 
ATOM      8  S   UNL     1       9.839  -1.307  23.384  0.00  0.00    +0.022 S 
ATOM      9  O   UNL     1      10.230  -0.855  24.702  0.00  0.00    -0.165 OA
ATOM     10  O   UNL     1      10.743  -1.985  22.478  0.00  0.00    -0.165 OA
ATOM     11  C   UNL     1       5.987  -3.533  23.724  0.00  0.00    +0.049 A 
ENDROOT
BRANCH   1  12
ATOM     12  O   UNL     1       6.881  -5.300  24.996  0.00  0.00    -0.334 OA
BRANCH  12  13
ATOM     13  S   UNL     1       6.736  -5.316  26.620  0.00  0.00    +0.189 S 
ATOM     14  O   UNL     1       6.431  -3.978  27.074  0.00  0.00    -0.119 OA
ATOM     15  O   UNL     1       5.966  -6.458  27.049  0.00  0.00    -0.119 OA
BRANCH  13  16
ATOM     16  N   UNL     1       8.297  -5.603  27.167  0.00  0.00    -0.174 NA
ATOM     17  H   UNL     1       8.822  -6.093  26.446  0.00  0.00    +0.147 HD
ATOM     18  H   UNL     1       8.718  -4.701  27.395  0.00  0.00    +0.147 HD
ENDBRANCH  13  16
ENDBRANCH  12  13
ENDBRANCH   1  12
BRANCH   6  19
ATOM     19  C   UNL     1       9.627   1.232  22.199  0.00  0.00    +0.058 C 
BRANCH  19  20
ATOM     20  C   UNL     1       8.995   2.529  22.773  0.00  0.00    -0.005 C 
ATOM     21  C   UNL     1       8.802   2.344  24.294  0.00  0.00    +0.004 C 
ATOM     22  C   UNL     1       8.464   3.638  25.034  0.00  0.00    +0.000 C 
ATOM     23  C   UNL     1       6.973   3.946  25.127  0.00  0.00    +0.000 C 
ATOM     24  C   UNL     1       6.156   3.672  23.870  0.00  0.00    +0.000 C 
ATOM     25  C   UNL     1       6.866   4.035  22.570  0.00  0.00    +0.000 C 
ATOM     26  C   UNL     1       7.706   2.887  22.008  0.00  0.00    +0.004 C 
ENDBRANCH  19  20
ENDBRANCH   6  19
TORSDOF 5
ENDMDL
MODEL 9
REMARK VINA RESULT:      -7.1      2.110      3.196
REMARK  Name = 
REMARK  5 active torsions:
REMARK  status: ('A' for Active; 'I' for Inactive)
REMARK    1  A    between atoms: N_1  and  S_2
REMARK    2  A    between atoms: S_2  and  O_5
REMARK    3  A    between atoms: O_5  and  C_6
REMARK    4  A    between atoms: C_11  and  C_12
REMARK    5  A    between atoms: C_12  and  C_13
REMARK                            x       y       z     vdW  Elec       q    Type
REMARK                         _______ _______ _______ _____ _____    ______ ____
ROOT
ATOM      1  C   UNL     1       6.812  -4.218  25.660  0.00  0.00    +0.160 A 
ATOM      2  C   UNL     1       7.096  -2.967  26.200  0.00  0.00    +0.076 A 
ATOM      3  C   UNL     1       8.112  -2.243  25.602  0.00  0.00    +0.104 A 
ATOM      4  C   UNL     1       8.882  -2.707  24.539  0.00  0.00    +0.002 A 
ATOM      5  C   UNL     1       9.857  -1.722  24.074  0.00  0.00    +0.032 C 
ATOM      6  C   UNL     1       9.809  -0.566  24.766  0.00  0.00    +0.072 C 
ATOM      7  C   UNL     1       8.631  -3.973  24.036  0.00  0.00    +0.013 A 
ATOM      8  S   UNL     1       8.585  -0.614  26.014  0.00  0.00    +0.022 S 
ATOM      9  O   UNL     1       7.488   0.267  25.676  0.00  0.00    -0.165 OA
ATOM     10  O   UNL     1       9.191  -0.656  27.328  0.00  0.00    -0.165 OA
ATOM     11  C   UNL     1       7.594  -4.730  24.604  0.00  0.00    +0.049 A 
ENDROOT
BRANCH   1  12
ATOM     12  O   UNL     1       5.783  -5.023  26.080  0.00  0.00    -0.334 OA
BRANCH  12  13
ATOM     13  S   UNL     1       5.843  -5.786  27.520  0.00  0.00    +0.189 S 
ATOM     14  O   UNL     1       5.445  -4.859  28.555  0.00  0.00    -0.119 OA
ATOM     15  O   UNL     1       5.266  -7.105  27.419  0.00  0.00    -0.119 OA
BRANCH  13  16
ATOM     16  N   UNL     1       7.481  -6.038  27.782  0.00  0.00    -0.174 NA
ATOM     17  H   UNL     1       7.761  -5.570  28.641  0.00  0.00    +0.147 HD
ATOM     18  H   UNL     1       7.637  -7.046  27.831  0.00  0.00    +0.147 HD
ENDBRANCH  13  16
ENDBRANCH  12  13
ENDBRANCH   1  12
BRANCH   6  19
ATOM     19  C   UNL     1      10.559   0.700  24.506  0.00  0.00    +0.058 C 
BRANCH  19  20
ATOM     20  C   UNL     1       9.919   1.688  23.494  0.00  0.00    -0.005 C 
ATOM     21  C   UNL     1       9.201   2.802  24.288  0.00  0.00    +0.004 C 
ATOM     22  C   UNL     1       8.781   3.995  23.432  0.00  0.00    +0.000 C 
ATOM     23  C   UNL     1       7.392   3.875  22.812  0.00  0.00    +0.000 C 
ATOM     24  C   UNL     1       7.025   2.504  22.258  0.00  0.00    +0.000 C 
ATOM     25  C   UNL     1       8.171   1.788  21.551  0.00  0.00    +0.000 C 
ATOM     26  C   UNL     1       9.017   0.935  22.498  0.00  0.00    +0.004 C 
ENDBRANCH  19  20
ENDBRANCH   6  19
TORSDOF 5
ENDMDL
