MODEL 1
REMARK VINA RESULT:      -6.5      0.000      0.000
REMARK  Name = 
REMARK  9 active torsions:
REMARK  status: ('A' for Active; 'I' for Inactive)
REMARK    1  A    between atoms: C_2  and  C_3
REMARK    2  A    between atoms: C_3  and  C_4
REMARK    3  A    between atoms: C_9  and  O_10
REMARK    4  A    between atoms: C_11  and  O_12
REMARK    5  A    between atoms: O_12  and  C_13
REMARK    6  A    between atoms: C_13  and  C_14
REMARK    7  A    between atoms: N_19  and  C_20
REMARK    8  A    between atoms: C_20  and  C_21
REMARK    9  A    between atoms: C_21  and  O_22
REMARK                            x       y       z     vdW  Elec       q    Type
REMARK                         _______ _______ _______ _____ _____    ______ ____
ROOT
ATOM      1  C   UNL     1       8.430  -4.251  24.197  0.00  0.00    +0.060 C 
ENDROOT
BRANCH   1   2
ATOM      2  C   UNL     1       7.171  -4.885  24.779  0.00  0.00    -0.027 A 
ATOM      3  C   UNL     1       7.219  -5.326  26.121  0.00  0.00    +0.054 A 
ATOM      4  C   UNL     1       6.160  -6.041  26.685  0.00  0.00    +0.163 A 
ATOM      5  C   UNL     1       5.070  -6.390  25.885  0.00  0.00    +0.174 A 
ATOM      6  C   UNL     1       4.973  -5.928  24.565  0.00  0.00    +0.077 A 
ATOM      7 BR   UNL     1       3.431  -6.438  23.559  0.00  0.00    -0.045 Br
ATOM      8  C   UNL     1       6.005  -5.137  24.022  0.00  0.00    +0.039 A 
ATOM      9 BR   UNL     1       5.814  -4.372  22.280  0.00  0.00    -0.049 Br
BRANCH   5  10
ATOM     10  O   UNL     1       4.097  -7.191  26.434  0.00  0.00    -0.503 OA
ATOM     11  H   UNL     1       4.075  -8.025  25.932  0.00  0.00    +0.292 HD
ENDBRANCH   5  10
BRANCH   4  12
ATOM     12  O   UNL     1       6.156  -6.496  27.977  0.00  0.00    -0.489 OA
BRANCH  12  13
ATOM     13  C   UNL     1       5.799  -5.540  28.976  0.00  0.00    +0.226 C 
ATOM     14  C   UNL     1       5.835  -6.231  30.329  0.00  0.00    +0.048 C 
ENDBRANCH  12  13
ENDBRANCH   4  12
ENDBRANCH   1   2
BRANCH   1  15
ATOM     15  C   UNL     1       8.273  -2.743  23.970  0.00  0.00    +0.144 C 
ATOM     16  C   UNL     1       9.548  -2.017  23.581  0.00  0.00    +0.235 C 
ATOM     17  O   UNL     1      10.552  -2.526  23.096  0.00  0.00    -0.274 OA
ATOM     18  N   UNL     1       9.432  -0.664  23.827  0.00  0.00    -0.248 N 
ATOM     19  C   UNL     1       8.475  -0.300  24.751  0.00  0.00    +0.117 C 
ATOM     20  S   UNL     1       8.055   1.227  25.254  0.00  0.00    -0.028 S 
ATOM     21  S   UNL     1       7.680  -1.747  25.370  0.00  0.00    -0.089 S 
BRANCH  18  22
ATOM     22  C   UNL     1      10.357   0.268  23.169  0.00  0.00    +0.235 C 
BRANCH  22  23
ATOM     23  C   UNL     1       9.810   0.875  21.890  0.00  0.00    +0.323 C 
ATOM     24  O   UNL     1       9.175   0.238  21.060  0.00  0.00    -0.249 OA
BRANCH  23  25
ATOM     25  O   UNL     1      10.190   2.156  21.666  0.00  0.00    -0.480 OA
ATOM     26  H   UNL     1      11.013   2.255  21.132  0.00  0.00    +0.295 HD
ENDBRANCH  23  25
ENDBRANCH  22  23
ENDBRANCH  18  22
ENDBRANCH   1  15
TORSDOF 8
ENDMDL
MODEL 2
REMARK VINA RESULT:      -6.4      2.230      3.259
REMARK  Name = 
REMARK  9 active torsions:
REMARK  status: ('A' for Active; 'I' for Inactive)
REMARK    1  A    between atoms: C_2  and  C_3
REMARK    2  A    between atoms: C_3  and  C_4
REMARK    3  A    between atoms: C_9  and  O_10
REMARK    4  A    between atoms: C_11  and  O_12
REMARK    5  A    between atoms: O_12  and  C_13
REMARK    6  A    between atoms: C_13  and  C_14
REMARK    7  A    between atoms: N_19  and  C_20
REMARK    8  A    between atoms: C_20  and  C_21
REMARK    9  A    between atoms: C_21  and  O_22
REMARK                            x       y       z     vdW  Elec       q    Type
REMARK                         _______ _______ _______ _____ _____    ______ ____
ROOT
ATOM      1  C   UNL     1       8.125  -4.073  23.363  0.00  0.00    +0.060 C 
ENDROOT
BRANCH   1   2
ATOM      2  C   UNL     1       7.137  -4.885  24.194  0.00  0.00    -0.027 A 
ATOM      3  C   UNL     1       5.989  -5.390  23.542  0.00  0.00    +0.054 A 
ATOM      4  C   UNL     1       4.970  -6.022  24.258  0.00  0.00    +0.163 A 
ATOM      5  C   UNL     1       5.054  -6.087  25.650  0.00  0.00    +0.174 A 
ATOM      6  C   UNL     1       6.200  -5.637  26.320  0.00  0.00    +0.077 A 
ATOM      7 BR   UNL     1       6.231  -5.793  28.224  0.00  0.00    -0.045 Br
ATOM      8  C   UNL     1       7.264  -5.074  25.589  0.00  0.00    +0.039 A 
ATOM      9 BR   UNL     1       8.893  -4.599  26.471  0.00  0.00    -0.049 Br
BRANCH   5  10
ATOM     10  O   UNL     1       3.985  -6.611  26.337  0.00  0.00    -0.503 OA
ATOM     11  H   UNL     1       3.819  -6.045  27.112  0.00  0.00    +0.292 HD
ENDBRANCH   5  10
BRANCH   4  12
ATOM     12  O   UNL     1       3.836  -6.524  23.677  0.00  0.00    -0.489 OA
BRANCH  12  13
ATOM     13  C   UNL     1       2.927  -5.561  23.143  0.00  0.00    +0.226 C 
ATOM     14  C   UNL     1       1.597  -6.252  22.890  0.00  0.00    +0.048 C 
ENDBRANCH  12  13
ENDBRANCH   4  12
ENDBRANCH   1   2
BRANCH   1  15
ATOM     15  C   UNL     1       7.572  -2.695  22.982  0.00  0.00    +0.144 C 
ATOM     16  C   UNL     1       8.588  -1.740  22.382  0.00  0.00    +0.235 C 
ATOM     17  O   UNL     1       9.652  -2.050  21.857  0.00  0.00    -0.274 OA
ATOM     18  N   UNL     1       8.149  -0.435  22.482  0.00  0.00    -0.248 N 
ATOM     19  C   UNL     1       7.199  -0.192  23.453  0.00  0.00    +0.117 C 
ATOM     20  S   UNL     1       6.441   1.240  23.817  0.00  0.00    -0.028 S 
ATOM     21  S   UNL     1       6.846  -1.690  24.312  0.00  0.00    -0.089 S 
BRANCH  18  22
ATOM     22  C   UNL     1       8.756   0.595  21.629  0.00  0.00    +0.235 C 
BRANCH  22  23
ATOM     23  C   UNL     1       9.944   1.295  22.264  0.00  0.00    +0.323 C 
ATOM     24  O   UNL     1      10.430   0.959  23.335  0.00  0.00    -0.249 OA
BRANCH  23  25
ATOM     25  O   UNL     1      10.351   2.414  21.616  0.00  0.00    -0.480 OA
ATOM     26  H   UNL     1      11.169   2.826  21.981  0.00  0.00    +0.295 HD
ENDBRANCH  23  25
ENDBRANCH  22  23
ENDBRANCH  18  22
ENDBRANCH   1  15
TORSDOF 8
ENDMDL
MODEL 3
REMARK VINA RESULT:      -6.4      2.218      3.480
REMARK  Name = 
REMARK  9 active torsions:
REMARK  status: ('A' for Active; 'I' for Inactive)
REMARK    1  A    between atoms: C_2  and  C_3
REMARK    2  A    between atoms: C_3  and  C_4
REMARK    3  A    between atoms: C_9  and  O_10
REMARK    4  A    between atoms: C_11  and  O_12
REMARK    5  A    between atoms: O_12  and  C_13
REMARK    6  A    between atoms: C_13  and  C_14
REMARK    7  A    between atoms: N_19  and  C_20
REMARK    8  A    between atoms: C_20  and  C_21
REMARK    9  A    between atoms: C_21  and  O_22
REMARK                            x       y       z     vdW  Elec       q    Type
REMARK                         _______ _______ _______ _____ _____    ______ ____
ROOT
ATOM      1  C   UNL     1       8.109  -4.139  25.763  0.00  0.00    +0.060 C 
ENDROOT
BRANCH   1   2
ATOM      2  C   UNL     1       6.991  -5.040  25.248  0.00  0.00    -0.027 A 
ATOM      3  C   UNL     1       6.885  -5.219  23.850  0.00  0.00    +0.054 A 
ATOM      4  C   UNL     1       5.809  -5.913  23.290  0.00  0.00    +0.163 A 
ATOM      5  C   UNL     1       4.785  -6.368  24.121  0.00  0.00    +0.174 A 
ATOM      6  C   UNL     1       4.885  -6.246  25.514  0.00  0.00    +0.077 A 
ATOM      7 BR   UNL     1       3.443  -6.925  26.569  0.00  0.00    -0.045 Br
ATOM      8  C   UNL     1       6.010  -5.619  26.084  0.00  0.00    +0.039 A 
ATOM      9 BR   UNL     1       6.234  -5.584  27.983  0.00  0.00    -0.049 Br
BRANCH   5  10
ATOM     10  O   UNL     1       3.685  -6.946  23.533  0.00  0.00    -0.503 OA
ATOM     11  H   UNL     1       4.000  -7.588  22.872  0.00  0.00    +0.292 HD
ENDBRANCH   5  10
BRANCH   4  12
ATOM     12  O   UNL     1       5.655  -6.111  21.943  0.00  0.00    -0.489 OA
BRANCH  12  13
ATOM     13  C   UNL     1       6.402  -5.240  21.093  0.00  0.00    +0.226 C 
ATOM     14  C   UNL     1       5.817  -3.843  21.214  0.00  0.00    +0.048 C 
ENDBRANCH  12  13
ENDBRANCH   4  12
ENDBRANCH   1   2
BRANCH   1  15
ATOM     15  C   UNL     1       8.078  -2.746  25.125  0.00  0.00    +0.144 C 
ATOM     16  C   UNL     1       9.352  -2.342  24.405  0.00  0.00    +0.235 C 
ATOM     17  O   UNL     1      10.219  -3.100  23.986  0.00  0.00    -0.274 OA
ATOM     18  N   UNL     1       9.413  -0.971  24.256  0.00  0.00    -0.248 N 
ATOM     19  C   UNL     1       8.640  -0.235  25.131  0.00  0.00    +0.117 C 
ATOM     20  S   UNL     1       8.457   1.414  25.207  0.00  0.00    -0.028 S 
ATOM     21  S   UNL     1       7.796  -1.328  26.227  0.00  0.00    -0.089 S 
BRANCH  18  22
ATOM     22  C   UNL     1      10.326  -0.396  23.260  0.00  0.00    +0.235 C 
BRANCH  22  23
ATOM     23  C   UNL     1       9.780  -0.416  21.844  0.00  0.00    +0.323 C 
ATOM     24  O   UNL     1       9.215   0.538  21.326  0.00  0.00    -0.249 OA
BRANCH  23  25
ATOM     25  O   UNL     1       9.846  -1.623  21.231  0.00  0.00    -0.480 OA
ATOM     26  H   UNL     1      10.689  -1.795  20.749  0.00  0.00    +0.295 HD
ENDBRANCH  23  25
ENDBRANCH  22  23
ENDBRANCH  18  22
ENDBRANCH   1  15
TORSDOF 8
ENDMDL
MODEL 4
REMARK VINA RESULT:      -6.3      3.939      9.019
REMARK  Name = 
REMARK  9 active torsions:
REMARK  status: ('A' for Active; 'I' for Inactive)
REMARK    1  A    between atoms: C_2  and  C_3
REMARK    2  A    between atoms: C_3  and  C_4
REMARK    3  A    between atoms: C_9  and  O_10
REMARK    4  A    between atoms: C_11  and  O_12
REMARK    5  A    between atoms: O_12  and  C_13
REMARK    6  A    between atoms: C_13  and  C_14
REMARK    7  A    between atoms: N_19  and  C_20
REMARK    8  A    between atoms: C_20  and  C_21
REMARK    9  A    between atoms: C_21  and  O_22
REMARK                            x       y       z     vdW  Elec       q    Type
REMARK                         _______ _______ _______ _____ _____    ______ ____
ROOT
ATOM      1  C   UNL     1       9.934   1.127  22.245  0.00  0.00    +0.060 C 
ENDROOT
BRANCH   1   2
ATOM      2  C   UNL     1       9.793   2.586  22.669  0.00  0.00    -0.027 A 
ATOM      3  C   UNL     1      10.970   3.280  23.032  0.00  0.00    +0.054 A 
ATOM      4  C   UNL     1      10.912   4.571  23.564  0.00  0.00    +0.163 A 
ATOM      5  C   UNL     1       9.668   5.152  23.810  0.00  0.00    +0.174 A 
ATOM      6  C   UNL     1       8.486   4.508  23.418  0.00  0.00    +0.077 A 
ATOM      7 BR   UNL     1       6.832   5.396  23.774  0.00  0.00    -0.045 Br
ATOM      8  C   UNL     1       8.548   3.240  22.806  0.00  0.00    +0.039 A 
ATOM      9 BR   UNL     1       6.959   2.420  22.127  0.00  0.00    -0.049 Br
BRANCH   5  10
ATOM     10  O   UNL     1       9.639   6.375  24.438  0.00  0.00    -0.503 OA
ATOM     11  H   UNL     1      10.180   6.994  23.916  0.00  0.00    +0.292 HD
ENDBRANCH   5  10
BRANCH   4  12
ATOM     12  O   UNL     1      12.020   5.286  23.936  0.00  0.00    -0.489 OA
BRANCH  12  13
ATOM     13  C   UNL     1      13.233   4.961  23.257  0.00  0.00    +0.226 C 
ATOM     14  C   UNL     1      13.336   5.841  22.022  0.00  0.00    +0.048 C 
ENDBRANCH  12  13
ENDBRANCH   4  12
ENDBRANCH   1   2
BRANCH   1  15
ATOM     15  C   UNL     1      10.000   0.175  23.444  0.00  0.00    +0.144 C 
ATOM     16  C   UNL     1       9.748  -1.286  23.118  0.00  0.00    +0.235 C 
ATOM     17  O   UNL     1       9.856  -1.810  22.015  0.00  0.00    -0.274 OA
ATOM     18  N   UNL     1       9.390  -1.984  24.253  0.00  0.00    -0.248 N 
ATOM     19  C   UNL     1       8.884  -1.228  25.290  0.00  0.00    +0.117 C 
ATOM     20  S   UNL     1       8.391  -1.738  26.792  0.00  0.00    -0.028 S 
ATOM     21  S   UNL     1       8.833   0.467  24.807  0.00  0.00    -0.089 S 
BRANCH  18  22
ATOM     22  C   UNL     1       9.494  -3.449  24.259  0.00  0.00    +0.235 C 
BRANCH  22  23
ATOM     23  C   UNL     1       8.186  -4.158  23.958  0.00  0.00    +0.323 C 
ATOM     24  O   UNL     1       7.618  -4.891  24.756  0.00  0.00    -0.249 OA
BRANCH  23  25
ATOM     25  O   UNL     1       7.753  -4.023  22.681  0.00  0.00    -0.480 OA
ATOM     26  H   UNL     1       8.180  -4.632  22.034  0.00  0.00    +0.295 HD
ENDBRANCH  23  25
ENDBRANCH  22  23
ENDBRANCH  18  22
ENDBRANCH   1  15
TORSDOF 8
ENDMDL
MODEL 5
REMARK VINA RESULT:      -6.2      2.812      3.662
REMARK  Name = 
REMARK  9 active torsions:
REMARK  status: ('A' for Active; 'I' for Inactive)
REMARK    1  A    between atoms: C_2  and  C_3
REMARK    2  A    between atoms: C_3  and  C_4
REMARK    3  A    between atoms: C_9  and  O_10
REMARK    4  A    between atoms: C_11  and  O_12
REMARK    5  A    between atoms: O_12  and  C_13
REMARK    6  A    between atoms: C_13  and  C_14
REMARK    7  A    between atoms: N_19  and  C_20
REMARK    8  A    between atoms: C_20  and  C_21
REMARK    9  A    between atoms: C_21  and  O_22
REMARK                            x       y       z     vdW  Elec       q    Type
REMARK                         _______ _______ _______ _____ _____    ______ ____
ROOT
ATOM      1  C   UNL     1       7.102  -2.264  25.957  0.00  0.00    +0.060 C 
ENDROOT
BRANCH   1   2
ATOM      2  C   UNL     1       6.053  -3.134  25.272  0.00  0.00    -0.027 A 
ATOM      3  C   UNL     1       6.192  -3.362  23.885  0.00  0.00    +0.054 A 
ATOM      4  C   UNL     1       5.202  -4.028  23.158  0.00  0.00    +0.163 A 
ATOM      5  C   UNL     1       4.023  -4.406  23.802  0.00  0.00    +0.174 A 
ATOM      6  C   UNL     1       3.875  -4.236  25.185  0.00  0.00    +0.077 A 
ATOM      7 BR   UNL     1       2.234  -4.809  25.978  0.00  0.00    -0.045 Br
ATOM      8  C   UNL     1       4.908  -3.637  25.932  0.00  0.00    +0.039 A 
ATOM      9 BR   UNL     1       4.786  -3.539  27.838  0.00  0.00    -0.049 Br
BRANCH   5  10
ATOM     10  O   UNL     1       3.020  -4.957  23.040  0.00  0.00    -0.503 OA
ATOM     11  H   UNL     1       2.997  -5.914  23.219  0.00  0.00    +0.292 HD
ENDBRANCH   5  10
BRANCH   4  12
ATOM     12  O   UNL     1       5.285  -4.271  21.813  0.00  0.00    -0.489 OA
BRANCH  12  13
ATOM     13  C   UNL     1       6.488  -4.894  21.362  0.00  0.00    +0.226 C 
ATOM     14  C   UNL     1       6.523  -6.311  21.909  0.00  0.00    +0.048 C 
ENDBRANCH  12  13
ENDBRANCH   4  12
ENDBRANCH   1   2
BRANCH   1  15
ATOM     15  C   UNL     1       7.408  -0.987  25.166  0.00  0.00    +0.144 C 
ATOM     16  C   UNL     1       8.823  -0.892  24.623  0.00  0.00    +0.235 C 
ATOM     17  O   UNL     1       9.593  -1.828  24.442  0.00  0.00    -0.274 OA
ATOM     18  N   UNL     1       9.145   0.417  24.330  0.00  0.00    -0.248 N 
ATOM     19  C   UNL     1       8.397   1.381  24.975  0.00  0.00    +0.117 C 
ATOM     20  S   UNL     1       8.498   3.032  24.830  0.00  0.00    -0.028 S 
ATOM     21  S   UNL     1       7.227   0.598  26.037  0.00  0.00    -0.089 S 
BRANCH  18  22
ATOM     22  C   UNL     1      10.277   0.696  23.437  0.00  0.00    +0.235 C 
BRANCH  22  23
ATOM     23  C   UNL     1       9.876   0.927  21.991  0.00  0.00    +0.323 C 
ATOM     24  O   UNL     1       9.507   0.030  21.244  0.00  0.00    -0.249 OA
BRANCH  23  25
ATOM     25  O   UNL     1      10.082   2.189  21.543  0.00  0.00    -0.480 OA
ATOM     26  H   UNL     1      11.030   2.451  21.472  0.00  0.00    +0.295 HD
ENDBRANCH  23  25
ENDBRANCH  22  23
ENDBRANCH  18  22
ENDBRANCH   1  15
TORSDOF 8
ENDMDL
MODEL 6
REMARK VINA RESULT:      -6.0      4.100      8.076
REMARK  Name = 
REMARK  9 active torsions:
REMARK  status: ('A' for Active; 'I' for Inactive)
REMARK    1  A    between atoms: C_2  and  C_3
REMARK    2  A    between atoms: C_3  and  C_4
REMARK    3  A    between atoms: C_9  and  O_10
REMARK    4  A    between atoms: C_11  and  O_12
REMARK    5  A    between atoms: O_12  and  C_13
REMARK    6  A    between atoms: C_13  and  C_14
REMARK    7  A    between atoms: N_19  and  C_20
REMARK    8  A    between atoms: C_20  and  C_21
REMARK    9  A    between atoms: C_21  and  O_22
REMARK                            x       y       z     vdW  Elec       q    Type
REMARK                         _______ _______ _______ _____ _____    ______ ____
ROOT
ATOM      1  C   UNL     1       8.608  -0.585  22.334  0.00  0.00    +0.060 C 
ENDROOT
BRANCH   1   2
ATOM      2  C   UNL     1       8.204   0.831  22.732  0.00  0.00    -0.027 A 
ATOM      3  C   UNL     1       6.903   1.263  22.390  0.00  0.00    +0.054 A 
ATOM      4  C   UNL     1       6.504   2.586  22.593  0.00  0.00    +0.163 A 
ATOM      5  C   UNL     1       7.432   3.513  23.070  0.00  0.00    +0.174 A 
ATOM      6  C   UNL     1       8.715   3.106  23.461  0.00  0.00    +0.077 A 
ATOM      7 BR   UNL     1       9.906   4.444  24.126  0.00  0.00    -0.045 Br
ATOM      8  C   UNL     1       9.091   1.754  23.333  0.00  0.00    +0.039 A 
ATOM      9 BR   UNL     1      10.779   1.156  24.005  0.00  0.00    -0.049 Br
BRANCH   5  10
ATOM     10  O   UNL     1       7.046   4.830  23.151  0.00  0.00    -0.503 OA
ATOM     11  H   UNL     1       6.133   4.897  22.819  0.00  0.00    +0.292 HD
ENDBRANCH   5  10
BRANCH   4  12
ATOM     12  O   UNL     1       5.257   3.058  22.276  0.00  0.00    -0.489 OA
BRANCH  12  13
ATOM     13  C   UNL     1       4.275   2.973  23.308  0.00  0.00    +0.226 C 
ATOM     14  C   UNL     1       2.927   3.346  22.712  0.00  0.00    +0.048 C 
ENDBRANCH  12  13
ENDBRANCH   4  12
ENDBRANCH   1   2
BRANCH   1  15
ATOM     15  C   UNL     1       7.976  -1.648  23.238  0.00  0.00    +0.144 C 
ATOM     16  C   UNL     1       8.906  -2.774  23.652  0.00  0.00    +0.235 C 
ATOM     17  O   UNL     1      10.132  -2.739  23.647  0.00  0.00    -0.274 OA
ATOM     18  N   UNL     1       8.184  -3.874  24.068  0.00  0.00    -0.248 N 
ATOM     19  C   UNL     1       6.883  -3.947  23.615  0.00  0.00    +0.117 C 
ATOM     20  S   UNL     1       5.740  -5.106  23.945  0.00  0.00    -0.028 S 
ATOM     21  S   UNL     1       6.545  -2.558  22.583  0.00  0.00    -0.089 S 
BRANCH  18  22
ATOM     22  C   UNL     1       8.847  -4.906  24.876  0.00  0.00    +0.235 C 
BRANCH  22  23
ATOM     23  C   UNL     1       8.601  -4.769  26.367  0.00  0.00    +0.323 C 
ATOM     24  O   UNL     1       8.829  -3.744  26.996  0.00  0.00    -0.249 OA
BRANCH  23  25
ATOM     25  O   UNL     1       8.228  -5.916  26.985  0.00  0.00    -0.480 OA
ATOM     26  H   UNL     1       7.471  -5.821  27.609  0.00  0.00    +0.295 HD
ENDBRANCH  23  25
ENDBRANCH  22  23
ENDBRANCH  18  22
ENDBRANCH   1  15
TORSDOF 8
ENDMDL
MODEL 7
REMARK VINA RESULT:      -6.0      3.995      7.243
REMARK  Name = 
REMARK  9 active torsions:
REMARK  status: ('A' for Active; 'I' for Inactive)
REMARK    1  A    between atoms: C_2  and  C_3
REMARK    2  A    between atoms: C_3  and  C_4
REMARK    3  A    between atoms: C_9  and  O_10
REMARK    4  A    between atoms: C_11  and  O_12
REMARK    5  A    between atoms: O_12  and  C_13
REMARK    6  A    between atoms: C_13  and  C_14
REMARK    7  A    between atoms: N_19  and  C_20
REMARK    8  A    between atoms: C_20  and  C_21
REMARK    9  A    between atoms: C_21  and  O_22
REMARK                            x       y       z     vdW  Elec       q    Type
REMARK                         _______ _______ _______ _____ _____    ______ ____
ROOT
ATOM      1  C   UNL     1       8.204  -0.658  22.926  0.00  0.00    +0.060 C 
ENDROOT
BRANCH   1   2
ATOM      2  C   UNL     1       8.201   0.512  23.905  0.00  0.00    -0.027 A 
ATOM      3  C   UNL     1       7.435   0.379  25.085  0.00  0.00    +0.054 A 
ATOM      4  C   UNL     1       7.268   1.453  25.963  0.00  0.00    +0.163 A 
ATOM      5  C   UNL     1       7.803   2.697  25.629  0.00  0.00    +0.174 A 
ATOM      6  C   UNL     1       8.607   2.849  24.489  0.00  0.00    +0.077 A 
ATOM      7 BR   UNL     1       9.316   4.586  24.130  0.00  0.00    -0.045 Br
ATOM      8  C   UNL     1       8.843   1.745  23.647  0.00  0.00    +0.039 A 
ATOM      9 BR   UNL     1      10.059   1.898  22.179  0.00  0.00    -0.049 Br
BRANCH   5  10
ATOM     10  O   UNL     1       7.527   3.762  26.453  0.00  0.00    -0.503 OA
ATOM     11  H   UNL     1       6.966   3.440  27.182  0.00  0.00    +0.292 HD
ENDBRANCH   5  10
BRANCH   4  12
ATOM     12  O   UNL     1       6.532   1.380  27.117  0.00  0.00    -0.489 OA
BRANCH  12  13
ATOM     13  C   UNL     1       5.254   0.755  27.005  0.00  0.00    +0.226 C 
ATOM     14  C   UNL     1       4.258   1.794  26.517  0.00  0.00    +0.048 C 
ENDBRANCH  12  13
ENDBRANCH   4  12
ENDBRANCH   1   2
BRANCH   1  15
ATOM     15  C   UNL     1       7.621  -1.934  23.542  0.00  0.00    +0.144 C 
ATOM     16  C   UNL     1       8.642  -3.002  23.892  0.00  0.00    +0.235 C 
ATOM     17  O   UNL     1       9.842  -2.825  24.069  0.00  0.00    -0.274 OA
ATOM     18  N   UNL     1       8.036  -4.236  24.011  0.00  0.00    -0.248 N 
ATOM     19  C   UNL     1       6.822  -4.375  23.370  0.00  0.00    +0.117 C 
ATOM     20  S   UNL     1       5.821  -5.699  23.336  0.00  0.00    -0.028 S 
ATOM     21  S   UNL     1       6.421  -2.869  22.546  0.00  0.00    -0.089 S 
BRANCH  18  22
ATOM     22  C   UNL     1       8.734  -5.314  24.724  0.00  0.00    +0.235 C 
BRANCH  22  23
ATOM     23  C   UNL     1       8.418  -5.373  26.207  0.00  0.00    +0.323 C 
ATOM     24  O   UNL     1       7.374  -5.829  26.656  0.00  0.00    -0.249 OA
BRANCH  23  25
ATOM     25  O   UNL     1       9.327  -4.759  27.003  0.00  0.00    -0.480 OA
ATOM     26  H   UNL     1       9.832  -5.364  27.595  0.00  0.00    +0.295 HD
ENDBRANCH  23  25
ENDBRANCH  22  23
ENDBRANCH  18  22
ENDBRANCH   1  15
TORSDOF 8
ENDMDL
MODEL 8
REMARK VINA RESULT:      -5.9      3.803      7.486
REMARK  Name = 
REMARK  9 active torsions:
REMARK  status: ('A' for Active; 'I' for Inactive)
REMARK    1  A    between atoms: C_2  and  C_3
REMARK    2  A    between atoms: C_3  and  C_4
REMARK    3  A    between atoms: C_9  and  O_10
REMARK    4  A    between atoms: C_11  and  O_12
REMARK    5  A    between atoms: O_12  and  C_13
REMARK    6  A    between atoms: C_13  and  C_14
REMARK    7  A    between atoms: N_19  and  C_20
REMARK    8  A    between atoms: C_20  and  C_21
REMARK    9  A    between atoms: C_21  and  O_22
REMARK                            x       y       z     vdW  Elec       q    Type
REMARK                         _______ _______ _______ _____ _____    ______ ____
ROOT
ATOM      1  C   UNL     1       7.579  -0.499  27.068  0.00  0.00    +0.060 C 
ENDROOT
BRANCH   1   2
ATOM      2  C   UNL     1       8.153   0.384  25.964  0.00  0.00    -0.027 A 
ATOM      3  C   UNL     1       9.145  -0.174  25.126  0.00  0.00    +0.054 A 
ATOM      4  C   UNL     1       9.819   0.607  24.184  0.00  0.00    +0.163 A 
ATOM      5  C   UNL     1       9.560   1.978  24.124  0.00  0.00    +0.174 A 
ATOM      6  C   UNL     1       8.550   2.551  24.909  0.00  0.00    +0.077 A 
ATOM      7 BR   UNL     1       8.253   4.431  24.737  0.00  0.00    -0.045 Br
ATOM      8  C   UNL     1       7.813   1.746  25.801  0.00  0.00    +0.039 A 
ATOM      9 BR   UNL     1       6.333   2.482  26.762  0.00  0.00    -0.049 Br
BRANCH   5  10
ATOM     10  O   UNL     1      10.318   2.741  23.269  0.00  0.00    -0.503 OA
ATOM     11  H   UNL     1       9.857   3.588  23.132  0.00  0.00    +0.292 HD
ENDBRANCH   5  10
BRANCH   4  12
ATOM     12  O   UNL     1      10.791   0.119  23.351  0.00  0.00    -0.489 OA
BRANCH  12  13
ATOM     13  C   UNL     1      10.409  -0.976  22.519  0.00  0.00    +0.226 C 
ATOM     14  C   UNL     1       9.461  -0.454  21.452  0.00  0.00    +0.048 C 
ENDBRANCH  12  13
ENDBRANCH   4  12
ENDBRANCH   1   2
BRANCH   1  15
ATOM     15  C   UNL     1       6.751  -1.662  26.513  0.00  0.00    +0.144 C 
ATOM     16  C   UNL     1       7.541  -2.920  26.198  0.00  0.00    +0.235 C 
ATOM     17  O   UNL     1       8.640  -3.217  26.653  0.00  0.00    -0.274 OA
ATOM     18  N   UNL     1       6.844  -3.726  25.321  0.00  0.00    -0.248 N 
ATOM     19  C   UNL     1       5.877  -3.097  24.564  0.00  0.00    +0.117 C 
ATOM     20  S   UNL     1       4.844  -3.767  23.449  0.00  0.00    -0.028 S 
ATOM     21  S   UNL     1       5.850  -1.379  24.960  0.00  0.00    -0.089 S 
BRANCH  18  22
ATOM     22  C   UNL     1       7.216  -5.141  25.196  0.00  0.00    +0.235 C 
BRANCH  22  23
ATOM     23  C   UNL     1       8.321  -5.398  24.188  0.00  0.00    +0.323 C 
ATOM     24  O   UNL     1       8.117  -5.569  22.994  0.00  0.00    -0.249 OA
BRANCH  23  25
ATOM     25  O   UNL     1       9.553  -5.556  24.731  0.00  0.00    -0.480 OA
ATOM     26  H   UNL     1      10.015  -4.715  24.958  0.00  0.00    +0.295 HD
ENDBRANCH  23  25
ENDBRANCH  22  23
ENDBRANCH  18  22
ENDBRANCH   1  15
TORSDOF 8
ENDMDL
MODEL 9
REMARK VINA RESULT:      -5.9      2.723      3.818
REMARK  Name = 
REMARK  9 active torsions:
REMARK  status: ('A' for Active; 'I' for Inactive)
REMARK    1  A    between atoms: C_2  and  C_3
REMARK    2  A    between atoms: C_3  and  C_4
REMARK    3  A    between atoms: C_9  and  O_10
REMARK    4  A    between atoms: C_11  and  O_12
REMARK    5  A    between atoms: O_12  and  C_13
REMARK    6  A    between atoms: C_13  and  C_14
REMARK    7  A    between atoms: N_19  and  C_20
REMARK    8  A    between atoms: C_20  and  C_21
REMARK    9  A    between atoms: C_21  and  O_22
REMARK                            x       y       z     vdW  Elec       q    Type
REMARK                         _______ _______ _______ _____ _____    ______ ____
ROOT
ATOM      1  C   UNL     1       7.568  -4.991  23.124  0.00  0.00    +0.060 C 
ENDROOT
BRANCH   1   2
ATOM      2  C   UNL     1       6.241  -5.120  23.865  0.00  0.00    -0.027 A 
ATOM      3  C   UNL     1       5.062  -5.209  23.090  0.00  0.00    +0.054 A 
ATOM      4  C   UNL     1       3.800  -5.189  23.688  0.00  0.00    +0.163 A 
ATOM      5  C   UNL     1       3.703  -5.001  25.068  0.00  0.00    +0.174 A 
ATOM      6  C   UNL     1       4.853  -4.956  25.868  0.00  0.00    +0.077 A 
ATOM      7 BR   UNL     1       4.616  -4.722  27.749  0.00  0.00    -0.045 Br
ATOM      8  C   UNL     1       6.126  -5.059  25.272  0.00  0.00    +0.039 A 
ATOM      9 BR   UNL     1       7.694  -5.156  26.362  0.00  0.00    -0.049 Br
BRANCH   5  10
ATOM     10  O   UNL     1       2.448  -4.871  25.615  0.00  0.00    -0.503 OA
ATOM     11  H   UNL     1       2.535  -4.929  26.584  0.00  0.00    +0.292 HD
ENDBRANCH   5  10
BRANCH   4  12
ATOM     12  O   UNL     1       2.627  -5.267  22.985  0.00  0.00    -0.489 OA
BRANCH  12  13
ATOM     13  C   UNL     1       2.112  -6.581  22.772  0.00  0.00    +0.226 C 
ATOM     14  C   UNL     1       0.658  -6.458  22.349  0.00  0.00    +0.048 C 
ENDBRANCH  12  13
ENDBRANCH   4  12
ENDBRANCH   1   2
BRANCH   1  15
ATOM     15  C   UNL     1       7.862  -3.548  22.701  0.00  0.00    +0.144 C 
ATOM     16  C   UNL     1       8.977  -2.867  23.474  0.00  0.00    +0.235 C 
ATOM     17  O   UNL     1       9.864  -3.427  24.110  0.00  0.00    -0.274 OA
ATOM     18  N   UNL     1       8.884  -1.496  23.357  0.00  0.00    -0.248 N 
ATOM     19  C   UNL     1       7.642  -1.003  23.014  0.00  0.00    +0.117 C 
ATOM     20  S   UNL     1       7.193   0.576  22.762  0.00  0.00    -0.028 S 
ATOM     21  S   UNL     1       6.508  -2.343  22.846  0.00  0.00    -0.089 S 
BRANCH  18  22
ATOM     22  C   UNL     1      10.055  -0.666  23.671  0.00  0.00    +0.235 C 
BRANCH  22  23
ATOM     23  C   UNL     1       9.929   0.107  24.971  0.00  0.00    +0.323 C 
ATOM     24  O   UNL     1       9.533  -0.392  26.016  0.00  0.00    -0.249 OA
BRANCH  23  25
ATOM     25  O   UNL     1      10.163   1.437  24.860  0.00  0.00    -0.480 OA
ATOM     26  H   UNL     1      10.517   1.722  23.985  0.00  0.00    +0.295 HD
ENDBRANCH  23  25
ENDBRANCH  22  23
ENDBRANCH  18  22
ENDBRANCH   1  15
TORSDOF 8
ENDMDL
