MODEL 1
REMARK VINA RESULT:      -6.3      0.000      0.000
REMARK  Name = 
REMARK  2 active torsions:
REMARK  status: ('A' for Active; 'I' for Inactive)
REMARK    1  A    between atoms: N_3  and  C_4
REMARK    2  A    between atoms: N_10  and  C_11
REMARK                            x       y       z     vdW  Elec       q    Type
REMARK                         _______ _______ _______ _____ _____    ______ ____
ROOT
ATOM      1  O   UNL     1       7.452  -1.692  23.050  0.00  0.00    -0.252 OA
ATOM      2  C   UNL     1       8.490  -2.312  23.261  0.00  0.00    +0.308 C 
ATOM      3  N   UNL     1       9.739  -1.722  23.371  0.00  0.00    -0.269 N 
ATOM      4  H   UNL     1      10.537  -2.335  23.333  0.00  0.00    +0.156 HD
ATOM      5  N   UNL     1       8.560  -3.687  23.418  0.00  0.00    -0.269 N 
ATOM      6  H   UNL     1       9.454  -4.071  23.681  0.00  0.00    +0.156 HD
ENDROOT
BRANCH   3   7
ATOM      7  C   UNL     1      10.013  -0.338  23.262  0.00  0.00    +0.035 A 
ATOM      8  C   UNL     1       9.838   0.265  22.012  0.00  0.00    +0.023 A 
ATOM      9  C   UNL     1       9.999   1.646  21.861  0.00  0.00    +0.002 A 
ATOM     10  C   UNL     1      10.360   2.433  22.954  0.00  0.00    +0.000 A 
ATOM     11  C   UNL     1      10.589   1.834  24.188  0.00  0.00    +0.002 A 
ATOM     12  C   UNL     1      10.427   0.457  24.338  0.00  0.00    +0.023 A 
ENDBRANCH   3   7
BRANCH   5  13
ATOM     13  C   UNL     1       7.476  -4.595  23.385  0.00  0.00    +0.035 A 
ATOM     14  C   UNL     1       6.734  -4.763  24.562  0.00  0.00    +0.023 A 
ATOM     15  C   UNL     1       5.615  -5.603  24.585  0.00  0.00    +0.002 A 
ATOM     16  C   UNL     1       5.232  -6.290  23.438  0.00  0.00    +0.000 A 
ATOM     17  C   UNL     1       5.975  -6.151  22.272  0.00  0.00    +0.002 A 
ATOM     18  C   UNL     1       7.094  -5.314  22.248  0.00  0.00    +0.023 A 
ENDBRANCH   5  13
TORSDOF 2
ENDMDL
MODEL 2
REMARK VINA RESULT:      -6.3      0.055      6.987
REMARK  Name = 
REMARK  2 active torsions:
REMARK  status: ('A' for Active; 'I' for Inactive)
REMARK    1  A    between atoms: N_3  and  C_4
REMARK    2  A    between atoms: N_10  and  C_11
REMARK                            x       y       z     vdW  Elec       q    Type
REMARK                         _______ _______ _______ _____ _____    ______ ____
ROOT
ATOM      1  O   UNL     1       7.428  -1.707  23.116  0.00  0.00    -0.252 OA
ATOM      2  C   UNL     1       8.480  -2.302  23.320  0.00  0.00    +0.308 C 
ATOM      3  N   UNL     1       8.580  -3.676  23.475  0.00  0.00    -0.269 N 
ATOM      4  H   UNL     1       9.447  -4.031  23.845  0.00  0.00    +0.156 HD
ATOM      5  N   UNL     1       9.717  -1.687  23.429  0.00  0.00    -0.269 N 
ATOM      6  H   UNL     1      10.521  -2.289  23.504  0.00  0.00    +0.156 HD
ENDROOT
BRANCH   3   7
ATOM      7  C   UNL     1       7.505  -4.594  23.418  0.00  0.00    +0.035 A 
ATOM      8  C   UNL     1       6.761  -4.800  24.585  0.00  0.00    +0.023 A 
ATOM      9  C   UNL     1       5.628  -5.621  24.571  0.00  0.00    +0.002 A 
ATOM     10  C   UNL     1       5.245  -6.263  23.394  0.00  0.00    +0.000 A 
ATOM     11  C   UNL     1       6.009  -6.108  22.243  0.00  0.00    +0.002 A 
ATOM     12  C   UNL     1       7.137  -5.287  22.259  0.00  0.00    +0.023 A 
ENDBRANCH   3   7
BRANCH   5  13
ATOM     13  C   UNL     1       9.983  -0.303  23.305  0.00  0.00    +0.035 A 
ATOM     14  C   UNL     1       9.811   0.280  22.042  0.00  0.00    +0.023 A 
ATOM     15  C   UNL     1      10.002   1.654  21.859  0.00  0.00    +0.002 A 
ATOM     16  C   UNL     1      10.377   2.457  22.932  0.00  0.00    +0.000 A 
ATOM     17  C   UNL     1      10.576   1.886  24.183  0.00  0.00    +0.002 A 
ATOM     18  C   UNL     1      10.387   0.513  24.366  0.00  0.00    +0.023 A 
ENDBRANCH   5  13
TORSDOF 2
ENDMDL
MODEL 3
REMARK VINA RESULT:      -6.2      0.268      1.225
REMARK  Name = 
REMARK  2 active torsions:
REMARK  status: ('A' for Active; 'I' for Inactive)
REMARK    1  A    between atoms: N_3  and  C_4
REMARK    2  A    between atoms: N_10  and  C_11
REMARK                            x       y       z     vdW  Elec       q    Type
REMARK                         _______ _______ _______ _____ _____    ______ ____
ROOT
ATOM      1  O   UNL     1       7.335  -1.614  23.504  0.00  0.00    -0.252 OA
ATOM      2  C   UNL     1       8.337  -2.298  23.330  0.00  0.00    +0.308 C 
ATOM      3  N   UNL     1       9.609  -1.780  23.141  0.00  0.00    -0.269 N 
ATOM      4  H   UNL     1      10.313  -2.415  22.800  0.00  0.00    +0.156 HD
ATOM      5  N   UNL     1       8.341  -3.683  23.294  0.00  0.00    -0.269 N 
ATOM      6  H   UNL     1       9.239  -4.136  23.238  0.00  0.00    +0.156 HD
ENDROOT
BRANCH   3   7
ATOM      7  C   UNL     1       9.949  -0.407  23.125  0.00  0.00    +0.035 A 
ATOM      8  C   UNL     1       9.755   0.298  21.932  0.00  0.00    +0.023 A 
ATOM      9  C   UNL     1       9.980   1.677  21.877  0.00  0.00    +0.002 A 
ATOM     10  C   UNL     1      10.425   2.359  23.008  0.00  0.00    +0.000 A 
ATOM     11  C   UNL     1      10.673   1.658  24.183  0.00  0.00    +0.002 A 
ATOM     12  C   UNL     1      10.446   0.282  24.237  0.00  0.00    +0.023 A 
ENDBRANCH   3   7
BRANCH   5  13
ATOM     13  C   UNL     1       7.224  -4.533  23.468  0.00  0.00    +0.035 A 
ATOM     14  C   UNL     1       6.688  -5.144  22.326  0.00  0.00    +0.023 A 
ATOM     15  C   UNL     1       5.618  -6.039  22.432  0.00  0.00    +0.002 A 
ATOM     16  C   UNL     1       5.066  -6.326  23.676  0.00  0.00    +0.000 A 
ATOM     17  C   UNL     1       5.571  -5.706  24.813  0.00  0.00    +0.002 A 
ATOM     18  C   UNL     1       6.639  -4.810  24.708  0.00  0.00    +0.023 A 
ENDBRANCH   5  13
TORSDOF 2
ENDMDL
MODEL 4
REMARK VINA RESULT:      -6.1      0.551      6.925
REMARK  Name = 
REMARK  2 active torsions:
REMARK  status: ('A' for Active; 'I' for Inactive)
REMARK    1  A    between atoms: N_3  and  C_4
REMARK    2  A    between atoms: N_10  and  C_11
REMARK                            x       y       z     vdW  Elec       q    Type
REMARK                         _______ _______ _______ _____ _____    ______ ____
ROOT
ATOM      1  O   UNL     1       7.202  -1.872  23.620  0.00  0.00    -0.252 OA
ATOM      2  C   UNL     1       8.253  -2.503  23.575  0.00  0.00    +0.308 C 
ATOM      3  N   UNL     1       8.339  -3.881  23.701  0.00  0.00    -0.269 N 
ATOM      4  H   UNL     1       9.255  -4.267  23.860  0.00  0.00    +0.156 HD
ATOM      5  N   UNL     1       9.502  -1.929  23.397  0.00  0.00    -0.269 N 
ATOM      6  H   UNL     1      10.281  -2.558  23.283  0.00  0.00    +0.156 HD
ENDROOT
BRANCH   3   7
ATOM      7  C   UNL     1       7.250  -4.763  23.891  0.00  0.00    +0.035 A 
ATOM      8  C   UNL     1       6.850  -5.032  25.205  0.00  0.00    +0.023 A 
ATOM      9  C   UNL     1       5.722  -5.819  25.458  0.00  0.00    +0.002 A 
ATOM     10  C   UNL     1       4.998  -6.364  24.400  0.00  0.00    +0.000 A 
ATOM     11  C   UNL     1       5.419  -6.148  23.092  0.00  0.00    +0.002 A 
ATOM     12  C   UNL     1       6.544  -5.361  22.841  0.00  0.00    +0.023 A 
ENDBRANCH   3   7
BRANCH   5  13
ATOM     13  C   UNL     1       9.778  -0.553  23.218  0.00  0.00    +0.035 A 
ATOM     14  C   UNL     1      10.253   0.163  24.325  0.00  0.00    +0.023 A 
ATOM     15  C   UNL     1      10.599   1.513  24.205  0.00  0.00    +0.002 A 
ATOM     16  C   UNL     1      10.465   2.164  22.983  0.00  0.00    +0.000 A 
ATOM     17  C   UNL     1       9.970   1.471  21.885  0.00  0.00    +0.002 A 
ATOM     18  C   UNL     1       9.622   0.123  22.004  0.00  0.00    +0.023 A 
ENDBRANCH   5  13
TORSDOF 2
ENDMDL
MODEL 5
REMARK VINA RESULT:      -5.9      1.352      2.207
REMARK  Name = 
REMARK  2 active torsions:
REMARK  status: ('A' for Active; 'I' for Inactive)
REMARK    1  A    between atoms: N_3  and  C_4
REMARK    2  A    between atoms: N_10  and  C_11
REMARK                            x       y       z     vdW  Elec       q    Type
REMARK                         _______ _______ _______ _____ _____    ______ ____
ROOT
ATOM      1  O   UNL     1       7.565  -1.609  24.833  0.00  0.00    -0.252 OA
ATOM      2  C   UNL     1       8.515  -2.296  24.474  0.00  0.00    +0.308 C 
ATOM      3  N   UNL     1       9.624  -1.800  23.806  0.00  0.00    -0.269 N 
ATOM      4  H   UNL     1      10.236  -2.475  23.376  0.00  0.00    +0.156 HD
ATOM      5  N   UNL     1       8.614  -3.662  24.680  0.00  0.00    -0.269 N 
ATOM      6  H   UNL     1       9.484  -4.101  24.423  0.00  0.00    +0.156 HD
ENDROOT
BRANCH   3   7
ATOM      7  C   UNL     1       9.836  -0.449  23.444  0.00  0.00    +0.035 A 
ATOM      8  C   UNL     1      10.360   0.411  24.415  0.00  0.00    +0.023 A 
ATOM      9  C   UNL     1      10.682   1.734  24.094  0.00  0.00    +0.002 A 
ATOM     10  C   UNL     1      10.460   2.214  22.804  0.00  0.00    +0.000 A 
ATOM     11  C   UNL     1       9.888   1.383  21.847  0.00  0.00    +0.002 A 
ATOM     12  C   UNL     1       9.569   0.063  22.169  0.00  0.00    +0.023 A 
ENDBRANCH   3   7
BRANCH   5  13
ATOM     13  C   UNL     1       7.672  -4.484  25.343  0.00  0.00    +0.035 A 
ATOM     14  C   UNL     1       7.824  -4.658  26.726  0.00  0.00    +0.023 A 
ATOM     15  C   UNL     1       6.897  -5.412  27.455  0.00  0.00    +0.002 A 
ATOM     16  C   UNL     1       5.817  -6.007  26.810  0.00  0.00    +0.000 A 
ATOM     17  C   UNL     1       5.672  -5.863  25.436  0.00  0.00    +0.002 A 
ATOM     18  C   UNL     1       6.598  -5.112  24.706  0.00  0.00    +0.023 A 
ENDBRANCH   5  13
TORSDOF 2
ENDMDL
MODEL 6
REMARK VINA RESULT:      -5.8      3.644      8.565
REMARK  Name = 
REMARK  2 active torsions:
REMARK  status: ('A' for Active; 'I' for Inactive)
REMARK    1  A    between atoms: N_3  and  C_4
REMARK    2  A    between atoms: N_10  and  C_11
REMARK                            x       y       z     vdW  Elec       q    Type
REMARK                         _______ _______ _______ _____ _____    ______ ____
ROOT
ATOM      1  O   UNL     1       9.912   2.369  24.376  0.00  0.00    -0.252 OA
ATOM      2  C   UNL     1       9.519   2.903  23.345  0.00  0.00    +0.308 C 
ATOM      3  N   UNL     1       8.864   2.234  22.322  0.00  0.00    -0.269 N 
ATOM      4  H   UNL     1       8.777   2.718  21.444  0.00  0.00    +0.156 HD
ATOM      5  N   UNL     1       9.676   4.249  23.053  0.00  0.00    -0.269 N 
ATOM      6  H   UNL     1       9.229   4.590  22.217  0.00  0.00    +0.156 HD
ENDROOT
BRANCH   3   7
ATOM      7  C   UNL     1       8.546   0.856  22.308  0.00  0.00    +0.035 A 
ATOM      8  C   UNL     1       9.450  -0.016  21.689  0.00  0.00    +0.023 A 
ATOM      9  C   UNL     1       9.242  -1.398  21.724  0.00  0.00    +0.002 A 
ATOM     10  C   UNL     1       8.115  -1.920  22.357  0.00  0.00    +0.000 A 
ATOM     11  C   UNL     1       7.183  -1.059  22.926  0.00  0.00    +0.002 A 
ATOM     12  C   UNL     1       7.393   0.320  22.892  0.00  0.00    +0.023 A 
ENDBRANCH   3   7
BRANCH   5  13
ATOM     13  C   UNL     1      10.282   5.224  23.880  0.00  0.00    +0.035 A 
ATOM     14  C   UNL     1       9.479   5.840  24.851  0.00  0.00    +0.023 A 
ATOM     15  C   UNL     1      10.026   6.773  25.739  0.00  0.00    +0.002 A 
ATOM     16  C   UNL     1      11.374   7.108  25.661  0.00  0.00    +0.000 A 
ATOM     17  C   UNL     1      12.173   6.523  24.685  0.00  0.00    +0.002 A 
ATOM     18  C   UNL     1      11.628   5.592  23.796  0.00  0.00    +0.023 A 
ENDBRANCH   5  13
TORSDOF 2
ENDMDL
MODEL 7
REMARK VINA RESULT:      -5.7      2.931      4.778
REMARK  Name = 
REMARK  2 active torsions:
REMARK  status: ('A' for Active; 'I' for Inactive)
REMARK    1  A    between atoms: N_3  and  C_4
REMARK    2  A    between atoms: N_10  and  C_11
REMARK                            x       y       z     vdW  Elec       q    Type
REMARK                         _______ _______ _______ _____ _____    ______ ____
ROOT
ATOM      1  O   UNL     1       9.756   1.893  24.527  0.00  0.00    -0.252 OA
ATOM      2  C   UNL     1      10.048   1.919  23.336  0.00  0.00    +0.308 C 
ATOM      3  N   UNL     1      10.597   3.018  22.694  0.00  0.00    -0.269 N 
ATOM      4  H   UNL     1      10.599   3.004  21.687  0.00  0.00    +0.156 HD
ATOM      5  N   UNL     1       9.867   0.858  22.464  0.00  0.00    -0.269 N 
ATOM      6  H   UNL     1      10.231   0.967  21.531  0.00  0.00    +0.156 HD
ENDROOT
BRANCH   3   7
ATOM      7  C   UNL     1      10.908   4.259  23.299  0.00  0.00    +0.035 A 
ATOM      8  C   UNL     1       9.861   4.979  23.886  0.00  0.00    +0.023 A 
ATOM      9  C   UNL     1      10.117   6.164  24.582  0.00  0.00    +0.002 A 
ATOM     10  C   UNL     1      11.418   6.653  24.678  0.00  0.00    +0.000 A 
ATOM     11  C   UNL     1      12.458   5.974  24.051  0.00  0.00    +0.002 A 
ATOM     12  C   UNL     1      12.202   4.790  23.358  0.00  0.00    +0.023 A 
ENDBRANCH   3   7
BRANCH   5  13
ATOM     13  C   UNL     1       9.349  -0.418  22.786  0.00  0.00    +0.035 A 
ATOM     14  C   UNL     1      10.240  -1.369  23.301  0.00  0.00    +0.023 A 
ATOM     15  C   UNL     1       9.785  -2.633  23.692  0.00  0.00    +0.002 A 
ATOM     16  C   UNL     1       8.439  -2.963  23.566  0.00  0.00    +0.000 A 
ATOM     17  C   UNL     1       7.551  -2.037  23.033  0.00  0.00    +0.002 A 
ATOM     18  C   UNL     1       8.005  -0.775  22.639  0.00  0.00    +0.023 A 
ENDBRANCH   5  13
TORSDOF 2
ENDMDL
MODEL 8
REMARK VINA RESULT:      -5.5      2.917      8.155
REMARK  Name = 
REMARK  2 active torsions:
REMARK  status: ('A' for Active; 'I' for Inactive)
REMARK    1  A    between atoms: N_3  and  C_4
REMARK    2  A    between atoms: N_10  and  C_11
REMARK                            x       y       z     vdW  Elec       q    Type
REMARK                         _______ _______ _______ _____ _____    ______ ____
ROOT
ATOM      1  O   UNL     1      10.422   1.584  24.677  0.00  0.00    -0.252 OA
ATOM      2  C   UNL     1       9.963   1.804  23.561  0.00  0.00    +0.308 C 
ATOM      3  N   UNL     1       9.289   0.863  22.797  0.00  0.00    -0.269 N 
ATOM      4  H   UNL     1       9.144   1.085  21.826  0.00  0.00    +0.156 HD
ATOM      5  N   UNL     1      10.054   3.021  22.904  0.00  0.00    -0.269 N 
ATOM      6  H   UNL     1       9.558   3.108  22.032  0.00  0.00    +0.156 HD
ENDROOT
BRANCH   3   7
ATOM      7  C   UNL     1       9.024  -0.473  23.178  0.00  0.00    +0.035 A 
ATOM      8  C   UNL     1       7.692  -0.902  23.170  0.00  0.00    +0.023 A 
ATOM      9  C   UNL     1       7.373  -2.236  23.443  0.00  0.00    +0.002 A 
ATOM     10  C   UNL     1       8.381  -3.148  23.749  0.00  0.00    +0.000 A 
ATOM     11  C   UNL     1       9.703  -2.719  23.813  0.00  0.00    +0.002 A 
ATOM     12  C   UNL     1      10.020  -1.388  23.539  0.00  0.00    +0.023 A 
ENDBRANCH   3   7
BRANCH   5  13
ATOM     13  C   UNL     1      10.658   4.201  23.399  0.00  0.00    +0.035 A 
ATOM     14  C   UNL     1       9.838   5.116  24.073  0.00  0.00    +0.023 A 
ATOM     15  C   UNL     1      10.378   6.277  24.636  0.00  0.00    +0.002 A 
ATOM     16  C   UNL     1      11.740   6.541  24.523  0.00  0.00    +0.000 A 
ATOM     17  C   UNL     1      12.558   5.655  23.834  0.00  0.00    +0.002 A 
ATOM     18  C   UNL     1      12.019   4.495  23.270  0.00  0.00    +0.023 A 
ENDBRANCH   5  13
TORSDOF 2
ENDMDL
MODEL 9
REMARK VINA RESULT:      -5.4      2.156      7.088
REMARK  Name = 
REMARK  2 active torsions:
REMARK  status: ('A' for Active; 'I' for Inactive)
REMARK    1  A    between atoms: N_3  and  C_4
REMARK    2  A    between atoms: N_10  and  C_11
REMARK                            x       y       z     vdW  Elec       q    Type
REMARK                         _______ _______ _______ _____ _____    ______ ____
ROOT
ATOM      1  O   UNL     1       7.848   0.050  24.145  0.00  0.00    -0.252 OA
ATOM      2  C   UNL     1       8.584  -0.030  23.167  0.00  0.00    +0.308 C 
ATOM      3  N   UNL     1       9.068  -1.224  22.653  0.00  0.00    -0.269 N 
ATOM      4  H   UNL     1       9.823  -1.161  21.989  0.00  0.00    +0.156 HD
ATOM      5  N   UNL     1       9.039   1.058  22.440  0.00  0.00    -0.269 N 
ATOM      6  H   UNL     1       9.562   0.861  21.602  0.00  0.00    +0.156 HD
ENDROOT
BRANCH   3   7
ATOM      7  C   UNL     1       8.791  -2.515  23.161  0.00  0.00    +0.035 A 
ATOM      8  C   UNL     1       9.595  -2.993  24.201  0.00  0.00    +0.023 A 
ATOM      9  C   UNL     1       9.314  -4.220  24.811  0.00  0.00    +0.002 A 
ATOM     10  C   UNL     1       8.241  -4.991  24.369  0.00  0.00    +0.000 A 
ATOM     11  C   UNL     1       7.469  -4.550  23.299  0.00  0.00    +0.002 A 
ATOM     12  C   UNL     1       7.749  -3.324  22.693  0.00  0.00    +0.023 A 
ENDBRANCH   3   7
BRANCH   5  13
ATOM     13  C   UNL     1       8.728   2.418  22.676  0.00  0.00    +0.035 A 
ATOM     14  C   UNL     1       7.595   2.944  22.038  0.00  0.00    +0.023 A 
ATOM     15  C   UNL     1       7.197   4.265  22.270  0.00  0.00    +0.002 A 
ATOM     16  C   UNL     1       7.929   5.076  23.131  0.00  0.00    +0.000 A 
ATOM     17  C   UNL     1       9.068   4.573  23.748  0.00  0.00    +0.002 A 
ATOM     18  C   UNL     1       9.468   3.254  23.516  0.00  0.00    +0.023 A 
ENDBRANCH   5  13
TORSDOF 2
ENDMDL
