MODEL 1
REMARK VINA RESULT:      -6.0      0.000      0.000
REMARK  Name = 
REMARK  9 active torsions:
REMARK  status: ('A' for Active; 'I' for Inactive)
REMARK    1  A    between atoms: N_1  and  CA_2
REMARK    2  A    between atoms: CA_2  and  C_4
REMARK    3  A    between atoms: CA_2  and  C_16
REMARK    4  A    between atoms: C_4  and  C_5
REMARK    5  A    between atoms: C_8  and  O_9
REMARK    6  A    between atoms: O_9  and  P_10
REMARK    7  A    between atoms: P_10  and  O_11
REMARK    8  A    between atoms: P_10  and  O_12
REMARK    9  A    between atoms: C_16  and  O_17
REMARK                            x       y       z     vdW  Elec       q    Type
REMARK                         _______ _______ _______ _____ _____    ______ ____
ROOT
ATOM      1  C   UNL     1       9.197  -2.500  24.079  0.00  0.00    -0.045 A 
ATOM      2  C   UNL     1       9.086  -1.519  25.076  0.00  0.00    +0.007 A 
ATOM      3  C   UNL     1       9.607  -0.237  24.872  0.00  0.00    +0.046 A 
ATOM      4  C   UNL     1      10.242   0.073  23.672  0.00  0.00    +0.132 A 
ATOM      5  C   UNL     1      10.386  -0.906  22.688  0.00  0.00    +0.046 A 
ATOM      6  C   UNL     1       9.851  -2.178  22.885  0.00  0.00    +0.007 A 
ENDROOT
BRANCH   1   7
ATOM      7  C   UNL     1       8.631  -3.887  24.283  0.00  0.00    +0.065 C 
BRANCH   7   8
ATOM      8  CA  UNL     1       9.069  -4.550  25.599  0.00  0.00    +0.165 C 
BRANCH   8   9
ATOM      9  N   UNL     1      10.216  -5.504  25.440  0.00  0.00    -0.318 NA
ATOM     10  H1  UNL     1      10.126  -6.231  26.157  0.00  0.00    +0.119 HD
ATOM     11  H2  UNL     1      10.057  -6.010  24.562  0.00  0.00    +0.119 HD
ENDBRANCH   8   9
BRANCH   8  12
ATOM     12  C   UNL     1       7.877  -5.335  26.184  0.00  0.00    +0.322 C 
ATOM     13  OXT UNL     1       6.814  -5.532  25.614  0.00  0.00    -0.249 OA
BRANCH  12  14
ATOM     14  O   UNL     1       8.152  -5.785  27.433  0.00  0.00    -0.480 OA
ATOM     15  H   UNL     1       8.896  -6.431  27.329  0.00  0.00    +0.295 HD
ENDBRANCH  12  14
ENDBRANCH   8  12
ENDBRANCH   7   8
ENDBRANCH   1   7
BRANCH   4  16
ATOM     16  O   UNL     1      10.709   1.356  23.509  0.00  0.00    -0.404 OA
BRANCH  16  17
ATOM     17  P   UNL     1       9.501   2.538  23.138  0.00  0.00    +0.528 P 
ATOM     18  O   UNL     1       8.420   3.595  22.806  0.00  0.00    -0.216 OA
BRANCH  17  19
ATOM     19  O   UNL     1       9.825   2.183  21.566  0.00  0.00    -0.293 OA
ATOM     20  H   UNL     1      10.132   2.967  21.077  0.00  0.00    +0.223 HD
ENDBRANCH  17  19
BRANCH  17  21
ATOM     21  O   UNL     1      10.719   3.629  23.245  0.00  0.00    -0.293 OA
ATOM     22  H   UNL     1      10.840   3.990  22.347  0.00  0.00    +0.223 HD
ENDBRANCH  17  21
ENDBRANCH  16  17
ENDBRANCH   4  16
TORSDOF 9
ENDMDL
MODEL 2
REMARK VINA RESULT:      -6.0      1.269      1.648
REMARK  Name = 
REMARK  9 active torsions:
REMARK  status: ('A' for Active; 'I' for Inactive)
REMARK    1  A    between atoms: N_1  and  CA_2
REMARK    2  A    between atoms: CA_2  and  C_4
REMARK    3  A    between atoms: CA_2  and  C_16
REMARK    4  A    between atoms: C_4  and  C_5
REMARK    5  A    between atoms: C_8  and  O_9
REMARK    6  A    between atoms: O_9  and  P_10
REMARK    7  A    between atoms: P_10  and  O_11
REMARK    8  A    between atoms: P_10  and  O_12
REMARK    9  A    between atoms: C_16  and  O_17
REMARK                            x       y       z     vdW  Elec       q    Type
REMARK                         _______ _______ _______ _____ _____    ______ ____
ROOT
ATOM      1  C   UNL     1       8.722  -3.157  23.579  0.00  0.00    -0.045 A 
ATOM      2  C   UNL     1       7.967  -2.636  22.516  0.00  0.00    +0.007 A 
ATOM      3  C   UNL     1       8.349  -1.444  21.891  0.00  0.00    +0.046 A 
ATOM      4  C   UNL     1       9.485  -0.764  22.323  0.00  0.00    +0.132 A 
ATOM      5  C   UNL     1      10.223  -1.258  23.400  0.00  0.00    +0.046 A 
ATOM      6  C   UNL     1       9.852  -2.455  24.011  0.00  0.00    +0.007 A 
ENDROOT
BRANCH   1   7
ATOM      7  C   UNL     1       8.325  -4.448  24.257  0.00  0.00    +0.065 C 
BRANCH   7   8
ATOM      8  CA  UNL     1       9.059  -4.706  25.582  0.00  0.00    +0.165 C 
BRANCH   8   9
ATOM      9  N   UNL     1       9.826  -5.995  25.604  0.00  0.00    -0.318 NA
ATOM     10  H1  UNL     1      10.196  -6.129  26.551  0.00  0.00    +0.119 HD
ATOM     11  H2  UNL     1       9.136  -6.749  25.507  0.00  0.00    +0.119 HD
ENDBRANCH   8   9
BRANCH   8  12
ATOM     12  C   UNL     1       8.025  -4.749  26.726  0.00  0.00    +0.322 C 
ATOM     13  OXT UNL     1       7.262  -3.842  27.022  0.00  0.00    -0.249 OA
BRANCH  12  14
ATOM     14  O   UNL     1       8.069  -5.935  27.382  0.00  0.00    -0.480 OA
ATOM     15  H   UNL     1       8.545  -6.560  26.777  0.00  0.00    +0.295 HD
ENDBRANCH  12  14
ENDBRANCH   8  12
ENDBRANCH   7   8
ENDBRANCH   1   7
BRANCH   4  16
ATOM     16  O   UNL     1       9.835   0.385  21.655  0.00  0.00    -0.404 OA
BRANCH  16  17
ATOM     17  P   UNL     1       9.327   1.858  22.405  0.00  0.00    +0.528 P 
ATOM     18  O   UNL     1       8.873   3.176  23.078  0.00  0.00    -0.216 OA
BRANCH  17  19
ATOM     19  O   UNL     1       8.381   2.056  21.076  0.00  0.00    -0.293 OA
ATOM     20  H   UNL     1       7.698   1.365  21.015  0.00  0.00    +0.223 HD
ENDBRANCH  17  19
BRANCH  17  21
ATOM     21  O   UNL     1      10.642   2.526  21.690  0.00  0.00    -0.293 OA
ATOM     22  H   UNL     1      10.669   3.455  21.985  0.00  0.00    +0.223 HD
ENDBRANCH  17  21
ENDBRANCH  16  17
ENDBRANCH   4  16
TORSDOF 9
ENDMDL
MODEL 3
REMARK VINA RESULT:      -5.9      1.236      1.488
REMARK  Name = 
REMARK  9 active torsions:
REMARK  status: ('A' for Active; 'I' for Inactive)
REMARK    1  A    between atoms: N_1  and  CA_2
REMARK    2  A    between atoms: CA_2  and  C_4
REMARK    3  A    between atoms: CA_2  and  C_16
REMARK    4  A    between atoms: C_4  and  C_5
REMARK    5  A    between atoms: C_8  and  O_9
REMARK    6  A    between atoms: O_9  and  P_10
REMARK    7  A    between atoms: P_10  and  O_11
REMARK    8  A    between atoms: P_10  and  O_12
REMARK    9  A    between atoms: C_16  and  O_17
REMARK                            x       y       z     vdW  Elec       q    Type
REMARK                         _______ _______ _______ _____ _____    ______ ____
ROOT
ATOM      1  C   UNL     1       8.602  -3.373  23.566  0.00  0.00    -0.045 A 
ATOM      2  C   UNL     1       9.795  -2.791  24.023  0.00  0.00    +0.007 A 
ATOM      3  C   UNL     1      10.275  -1.610  23.446  0.00  0.00    +0.046 A 
ATOM      4  C   UNL     1       9.569  -1.003  22.412  0.00  0.00    +0.132 A 
ATOM      5  C   UNL     1       8.399  -1.591  21.930  0.00  0.00    +0.046 A 
ATOM      6  C   UNL     1       7.911  -2.759  22.516  0.00  0.00    +0.007 A 
ENDROOT
BRANCH   1   7
ATOM      7  C   UNL     1       8.068  -4.644  24.185  0.00  0.00    +0.065 C 
BRANCH   7   8
ATOM      8  CA  UNL     1       8.568  -4.897  25.616  0.00  0.00    +0.165 C 
BRANCH   8   9
ATOM      9  N   UNL     1       9.723  -5.852  25.690  0.00  0.00    -0.318 NA
ATOM     10  H1  UNL     1      10.576  -5.307  25.851  0.00  0.00    +0.119 HD
ATOM     11  H2  UNL     1       9.608  -6.384  26.560  0.00  0.00    +0.119 HD
ENDBRANCH   8   9
BRANCH   8  12
ATOM     12  C   UNL     1       7.413  -5.484  26.453  0.00  0.00    +0.322 C 
ATOM     13  OXT UNL     1       6.252  -5.583  26.083  0.00  0.00    -0.249 OA
BRANCH  12  14
ATOM     14  O   UNL     1       7.845  -5.881  27.675  0.00  0.00    -0.480 OA
ATOM     15  H   UNL     1       8.359  -6.714  27.522  0.00  0.00    +0.295 HD
ENDBRANCH  12  14
ENDBRANCH   8  12
ENDBRANCH   7   8
ENDBRANCH   1   7
BRANCH   4  16
ATOM     16  O   UNL     1      10.066   0.173  21.901  0.00  0.00    -0.404 OA
BRANCH  16  17
ATOM     17  P   UNL     1       9.114   1.579  22.229  0.00  0.00    +0.528 P 
ATOM     18  O   UNL     1       8.262   2.838  22.523  0.00  0.00    -0.216 OA
BRANCH  17  19
ATOM     19  O   UNL     1       8.582   1.418  20.682  0.00  0.00    -0.293 OA
ATOM     20  H   UNL     1       7.612   1.471  20.628  0.00  0.00    +0.223 HD
ENDBRANCH  17  19
BRANCH  17  21
ATOM     21  O   UNL     1      10.446   2.426  21.787  0.00  0.00    -0.293 OA
ATOM     22  H   UNL     1      10.465   3.217  22.356  0.00  0.00    +0.223 HD
ENDBRANCH  17  21
ENDBRANCH  16  17
ENDBRANCH   4  16
TORSDOF 9
ENDMDL
MODEL 4
REMARK VINA RESULT:      -5.8      3.603      6.906
REMARK  Name = 
REMARK  9 active torsions:
REMARK  status: ('A' for Active; 'I' for Inactive)
REMARK    1  A    between atoms: N_1  and  CA_2
REMARK    2  A    between atoms: CA_2  and  C_4
REMARK    3  A    between atoms: CA_2  and  C_16
REMARK    4  A    between atoms: C_4  and  C_5
REMARK    5  A    between atoms: C_8  and  O_9
REMARK    6  A    between atoms: O_9  and  P_10
REMARK    7  A    between atoms: P_10  and  O_11
REMARK    8  A    between atoms: P_10  and  O_12
REMARK    9  A    between atoms: C_16  and  O_17
REMARK                            x       y       z     vdW  Elec       q    Type
REMARK                         _______ _______ _______ _____ _____    ______ ____
ROOT
ATOM      1  C   UNL     1       8.544  -0.171  22.745  0.00  0.00    -0.045 A 
ATOM      2  C   UNL     1       8.067  -0.696  23.956  0.00  0.00    +0.007 A 
ATOM      3  C   UNL     1       8.602  -1.879  24.476  0.00  0.00    +0.046 A 
ATOM      4  C   UNL     1       9.616  -2.545  23.792  0.00  0.00    +0.132 A 
ATOM      5  C   UNL     1      10.073  -2.047  22.571  0.00  0.00    +0.046 A 
ATOM      6  C   UNL     1       9.552  -0.859  22.061  0.00  0.00    +0.007 A 
ENDROOT
BRANCH   1   7
ATOM      7  C   UNL     1       7.979   1.111  22.175  0.00  0.00    +0.065 C 
BRANCH   7   8
ATOM      8  CA  UNL     1       8.466   2.379  22.894  0.00  0.00    +0.165 C 
BRANCH   8   9
ATOM      9  N   UNL     1       7.995   3.652  22.254  0.00  0.00    -0.318 NA
ATOM     10  H1  UNL     1       8.334   4.436  22.820  0.00  0.00    +0.119 HD
ATOM     11  H2  UNL     1       8.515   3.747  21.374  0.00  0.00    +0.119 HD
ENDBRANCH   8   9
BRANCH   8  12
ATOM     12  C   UNL     1      10.008   2.391  22.896  0.00  0.00    +0.322 C 
ATOM     13  OXT UNL     1      10.713   2.339  23.892  0.00  0.00    -0.249 OA
BRANCH  12  14
ATOM     14  O   UNL     1      10.499   2.475  21.635  0.00  0.00    -0.480 OA
ATOM     15  H   UNL     1      11.481   2.568  21.733  0.00  0.00    +0.295 HD
ENDBRANCH  12  14
ENDBRANCH   8  12
ENDBRANCH   7   8
ENDBRANCH   1   7
BRANCH   4  16
ATOM     16  O   UNL     1      10.130  -3.685  24.362  0.00  0.00    -0.404 OA
BRANCH  16  17
ATOM     17  P   UNL     1       9.018  -4.592  25.328  0.00  0.00    +0.528 P 
ATOM     18  O   UNL     1       8.023  -5.404  26.193  0.00  0.00    -0.216 OA
BRANCH  17  19
ATOM     19  O   UNL     1      10.309  -5.548  25.681  0.00  0.00    -0.293 OA
ATOM     20  H   UNL     1      11.057  -5.029  26.023  0.00  0.00    +0.223 HD
ENDBRANCH  17  19
BRANCH  17  21
ATOM     21  O   UNL     1       8.674  -5.401  23.944  0.00  0.00    -0.293 OA
ATOM     22  H   UNL     1       8.711  -6.349  24.168  0.00  0.00    +0.223 HD
ENDBRANCH  17  21
ENDBRANCH  16  17
ENDBRANCH   4  16
TORSDOF 9
ENDMDL
MODEL 5
REMARK VINA RESULT:      -5.7      3.311      6.803
REMARK  Name = 
REMARK  9 active torsions:
REMARK  status: ('A' for Active; 'I' for Inactive)
REMARK    1  A    between atoms: N_1  and  CA_2
REMARK    2  A    between atoms: CA_2  and  C_4
REMARK    3  A    between atoms: CA_2  and  C_16
REMARK    4  A    between atoms: C_4  and  C_5
REMARK    5  A    between atoms: C_8  and  O_9
REMARK    6  A    between atoms: O_9  and  P_10
REMARK    7  A    between atoms: P_10  and  O_11
REMARK    8  A    between atoms: P_10  and  O_12
REMARK    9  A    between atoms: C_16  and  O_17
REMARK                            x       y       z     vdW  Elec       q    Type
REMARK                         _______ _______ _______ _____ _____    ______ ____
ROOT
ATOM      1  C   UNL     1       9.342  -1.740  22.700  0.00  0.00    -0.045 A 
ATOM      2  C   UNL     1      10.021  -2.380  23.748  0.00  0.00    +0.007 A 
ATOM      3  C   UNL     1       9.454  -3.487  24.390  0.00  0.00    +0.046 A 
ATOM      4  C   UNL     1       8.207  -3.960  23.990  0.00  0.00    +0.132 A 
ATOM      5  C   UNL     1       7.511  -3.310  22.970  0.00  0.00    +0.046 A 
ATOM      6  C   UNL     1       8.084  -2.218  22.319  0.00  0.00    +0.007 A 
ENDROOT
BRANCH   1   7
ATOM      7  C   UNL     1       9.947  -0.549  21.993  0.00  0.00    +0.065 C 
BRANCH   7   8
ATOM      8  CA  UNL     1       9.342   0.799  22.416  0.00  0.00    +0.165 C 
BRANCH   8   9
ATOM      9  N   UNL     1       9.719   1.938  21.514  0.00  0.00    -0.318 NA
ATOM     10  H1  UNL     1      10.426   1.599  20.853  0.00  0.00    +0.119 HD
ATOM     11  H2  UNL     1       8.903   2.124  20.920  0.00  0.00    +0.119 HD
ENDBRANCH   8   9
BRANCH   8  12
ATOM     12  C   UNL     1       9.829   1.141  23.839  0.00  0.00    +0.322 C 
ATOM     13  OXT UNL     1      10.991   1.339  24.159  0.00  0.00    -0.249 OA
BRANCH  12  14
ATOM     14  O   UNL     1       8.792   1.190  24.712  0.00  0.00    -0.480 OA
ATOM     15  H   UNL     1       7.982   0.977  24.181  0.00  0.00    +0.295 HD
ENDBRANCH  12  14
ENDBRANCH   8  12
ENDBRANCH   7   8
ENDBRANCH   1   7
BRANCH   4  16
ATOM     16  O   UNL     1       7.708  -5.070  24.631  0.00  0.00    -0.404 OA
BRANCH  16  17
ATOM     17  P   UNL     1       7.250  -4.824  26.281  0.00  0.00    +0.528 P 
ATOM     18  O   UNL     1       6.840  -4.604  27.757  0.00  0.00    -0.216 OA
BRANCH  17  19
ATOM     19  O   UNL     1       8.380  -5.967  26.627  0.00  0.00    -0.293 OA
ATOM     20  H   UNL     1       8.173  -6.817  26.200  0.00  0.00    +0.223 HD
ENDBRANCH  17  19
BRANCH  17  21
ATOM     21  O   UNL     1       6.078  -5.931  25.986  0.00  0.00    -0.293 OA
ATOM     22  H   UNL     1       5.445  -5.859  26.724  0.00  0.00    +0.223 HD
ENDBRANCH  17  21
ENDBRANCH  16  17
ENDBRANCH   4  16
TORSDOF 9
ENDMDL
MODEL 6
REMARK VINA RESULT:      -5.6      1.725      2.150
REMARK  Name = 
REMARK  9 active torsions:
REMARK  status: ('A' for Active; 'I' for Inactive)
REMARK    1  A    between atoms: N_1  and  CA_2
REMARK    2  A    between atoms: CA_2  and  C_4
REMARK    3  A    between atoms: CA_2  and  C_16
REMARK    4  A    between atoms: C_4  and  C_5
REMARK    5  A    between atoms: C_8  and  O_9
REMARK    6  A    between atoms: O_9  and  P_10
REMARK    7  A    between atoms: P_10  and  O_11
REMARK    8  A    between atoms: P_10  and  O_12
REMARK    9  A    between atoms: C_16  and  O_17
REMARK                            x       y       z     vdW  Elec       q    Type
REMARK                         _______ _______ _______ _____ _____    ______ ____
ROOT
ATOM      1  C   UNL     1       8.380  -3.761  23.697  0.00  0.00    -0.045 A 
ATOM      2  C   UNL     1       9.526  -3.195  24.278  0.00  0.00    +0.007 A 
ATOM      3  C   UNL     1      10.042  -1.987  23.797  0.00  0.00    +0.046 A 
ATOM      4  C   UNL     1       9.420  -1.338  22.735  0.00  0.00    +0.132 A 
ATOM      5  C   UNL     1       8.300  -1.910  22.130  0.00  0.00    +0.046 A 
ATOM      6  C   UNL     1       7.775  -3.105  22.621  0.00  0.00    +0.007 A 
ENDROOT
BRANCH   1   7
ATOM      7  C   UNL     1       7.807  -5.062  24.213  0.00  0.00    +0.065 C 
BRANCH   7   8
ATOM      8  CA  UNL     1       7.419  -5.026  25.699  0.00  0.00    +0.165 C 
BRANCH   8   9
ATOM      9  N   UNL     1       8.378  -5.758  26.590  0.00  0.00    -0.318 NA
ATOM     10  H1  UNL     1       7.879  -6.546  27.015  0.00  0.00    +0.119 HD
ATOM     11  H2  UNL     1       9.064  -6.210  25.974  0.00  0.00    +0.119 HD
ENDBRANCH   8   9
BRANCH   8  12
ATOM     12  C   UNL     1       6.028  -5.670  25.868  0.00  0.00    +0.322 C 
ATOM     13  OXT UNL     1       5.755  -6.565  26.654  0.00  0.00    -0.249 OA
BRANCH  12  14
ATOM     14  O   UNL     1       5.126  -5.119  25.018  0.00  0.00    -0.480 OA
ATOM     15  H   UNL     1       4.417  -4.733  25.592  0.00  0.00    +0.295 HD
ENDBRANCH  12  14
ENDBRANCH   8  12
ENDBRANCH   7   8
ENDBRANCH   1   7
BRANCH   4  16
ATOM     16  O   UNL     1       9.948  -0.137  22.321  0.00  0.00    -0.404 OA
BRANCH  16  17
ATOM     17  P   UNL     1       8.786   1.065  21.876  0.00  0.00    +0.528 P 
ATOM     18  O   UNL     1       7.746   2.141  21.479  0.00  0.00    -0.216 OA
BRANCH  17  19
ATOM     19  O   UNL     1      10.088   2.019  21.564  0.00  0.00    -0.293 OA
ATOM     20  H   UNL     1      10.848   1.498  21.249  0.00  0.00    +0.223 HD
ENDBRANCH  17  19
BRANCH  17  21
ATOM     21  O   UNL     1       8.765   1.448  23.470  0.00  0.00    -0.293 OA
ATOM     22  H   UNL     1       8.312   2.310  23.535  0.00  0.00    +0.223 HD
ENDBRANCH  17  21
ENDBRANCH  16  17
ENDBRANCH   4  16
TORSDOF 9
ENDMDL
MODEL 7
REMARK VINA RESULT:      -5.5      3.032      7.008
REMARK  Name = 
REMARK  9 active torsions:
REMARK  status: ('A' for Active; 'I' for Inactive)
REMARK    1  A    between atoms: N_1  and  CA_2
REMARK    2  A    between atoms: CA_2  and  C_4
REMARK    3  A    between atoms: CA_2  and  C_16
REMARK    4  A    between atoms: C_4  and  C_5
REMARK    5  A    between atoms: C_8  and  O_9
REMARK    6  A    between atoms: O_9  and  P_10
REMARK    7  A    between atoms: P_10  and  O_11
REMARK    8  A    between atoms: P_10  and  O_12
REMARK    9  A    between atoms: C_16  and  O_17
REMARK                            x       y       z     vdW  Elec       q    Type
REMARK                         _______ _______ _______ _____ _____    ______ ____
ROOT
ATOM      1  C   UNL     1       9.508  -1.106  24.596  0.00  0.00    -0.045 A 
ATOM      2  C   UNL     1       8.746  -1.307  25.757  0.00  0.00    +0.007 A 
ATOM      3  C   UNL     1       8.130  -2.539  25.998  0.00  0.00    +0.046 A 
ATOM      4  C   UNL     1       8.269  -3.578  25.082  0.00  0.00    +0.132 A 
ATOM      5  C   UNL     1       8.998  -3.378  23.908  0.00  0.00    +0.046 A 
ATOM      6  C   UNL     1       9.626  -2.155  23.677  0.00  0.00    +0.007 A 
ENDROOT
BRANCH   1   7
ATOM      7  C   UNL     1      10.186   0.218  24.328  0.00  0.00    +0.065 C 
BRANCH   7   8
ATOM      8  CA  UNL     1       9.321   1.211  23.536  0.00  0.00    +0.165 C 
BRANCH   8   9
ATOM      9  N   UNL     1       7.851   0.924  23.613  0.00  0.00    -0.318 NA
ATOM     10  H1  UNL     1       7.427   1.196  22.720  0.00  0.00    +0.119 HD
ATOM     11  H2  UNL     1       7.752  -0.098  23.625  0.00  0.00    +0.119 HD
ENDBRANCH   8   9
BRANCH   8  12
ATOM     12  C   UNL     1       9.737   1.162  22.051  0.00  0.00    +0.322 C 
ATOM     13  OXT UNL     1       9.578   0.208  21.305  0.00  0.00    -0.249 OA
BRANCH  12  14
ATOM     14  O   UNL     1      10.317   2.326  21.666  0.00  0.00    -0.480 OA
ATOM     15  H   UNL     1      10.237   2.937  22.442  0.00  0.00    +0.295 HD
ENDBRANCH  12  14
ENDBRANCH   8  12
ENDBRANCH   7   8
ENDBRANCH   1   7
BRANCH   4  16
ATOM     16  O   UNL     1       7.670  -4.779  25.380  0.00  0.00    -0.404 OA
BRANCH  16  17
ATOM     17  P   UNL     1       6.968  -4.881  26.958  0.00  0.00    +0.528 P 
ATOM     18  O   UNL     1       6.341  -4.972  28.370  0.00  0.00    -0.216 OA
BRANCH  17  19
ATOM     19  O   UNL     1       8.277  -5.802  27.337  0.00  0.00    -0.293 OA
ATOM     20  H   UNL     1       8.354  -6.574  26.750  0.00  0.00    +0.223 HD
ENDBRANCH  17  19
BRANCH  17  21
ATOM     21  O   UNL     1       6.124  -6.153  26.360  0.00  0.00    -0.293 OA
ATOM     22  H   UNL     1       5.474  -5.777  25.737  0.00  0.00    +0.223 HD
ENDBRANCH  17  21
ENDBRANCH  16  17
ENDBRANCH   4  16
TORSDOF 9
ENDMDL
MODEL 8
REMARK VINA RESULT:      -5.3      2.786      3.275
REMARK  Name = 
REMARK  9 active torsions:
REMARK  status: ('A' for Active; 'I' for Inactive)
REMARK    1  A    between atoms: N_1  and  CA_2
REMARK    2  A    between atoms: CA_2  and  C_4
REMARK    3  A    between atoms: CA_2  and  C_16
REMARK    4  A    between atoms: C_4  and  C_5
REMARK    5  A    between atoms: C_8  and  O_9
REMARK    6  A    between atoms: O_9  and  P_10
REMARK    7  A    between atoms: P_10  and  O_11
REMARK    8  A    between atoms: P_10  and  O_12
REMARK    9  A    between atoms: C_16  and  O_17
REMARK                            x       y       z     vdW  Elec       q    Type
REMARK                         _______ _______ _______ _____ _____    ______ ____
ROOT
ATOM      1  C   UNL     1       7.536  -2.836  23.468  0.00  0.00    -0.045 A 
ATOM      2  C   UNL     1       7.098  -1.605  22.958  0.00  0.00    +0.007 A 
ATOM      3  C   UNL     1       8.006  -0.561  22.746  0.00  0.00    +0.046 A 
ATOM      4  C   UNL     1       9.354  -0.740  23.042  0.00  0.00    +0.132 A 
ATOM      5  C   UNL     1       9.793  -1.951  23.580  0.00  0.00    +0.046 A 
ATOM      6  C   UNL     1       8.891  -2.997  23.775  0.00  0.00    +0.007 A 
ENDROOT
BRANCH   1   7
ATOM      7  C   UNL     1       6.567  -3.974  23.694  0.00  0.00    +0.065 C 
BRANCH   7   8
ATOM      8  CA  UNL     1       5.752  -4.356  22.448  0.00  0.00    +0.165 C 
BRANCH   8   9
ATOM      9  N   UNL     1       4.295  -4.580  22.727  0.00  0.00    -0.318 NA
ATOM     10  H1  UNL     1       4.200  -5.472  23.223  0.00  0.00    +0.119 HD
ATOM     11  H2  UNL     1       4.020  -3.883  23.429  0.00  0.00    +0.119 HD
ENDBRANCH   8   9
BRANCH   8  12
ATOM     12  C   UNL     1       6.327  -5.658  21.855  0.00  0.00    +0.322 C 
ATOM     13  OXT UNL     1       7.467  -6.066  22.020  0.00  0.00    -0.249 OA
BRANCH  12  14
ATOM     14  O   UNL     1       5.400  -6.306  21.107  0.00  0.00    -0.480 OA
ATOM     15  H   UNL     1       4.528  -5.903  21.349  0.00  0.00    +0.295 HD
ENDBRANCH  12  14
ENDBRANCH   8  12
ENDBRANCH   7   8
ENDBRANCH   1   7
BRANCH   4  16
ATOM     16  O   UNL     1      10.210   0.305  22.785  0.00  0.00    -0.404 OA
BRANCH  16  17
ATOM     17  P   UNL     1       9.532   1.882  22.996  0.00  0.00    +0.528 P 
ATOM     18  O   UNL     1       8.924   3.293  23.185  0.00  0.00    -0.216 OA
BRANCH  17  19
ATOM     19  O   UNL     1      10.252   2.240  21.562  0.00  0.00    -0.293 OA
ATOM     20  H   UNL     1      10.977   2.880  21.674  0.00  0.00    +0.223 HD
ENDBRANCH  17  19
BRANCH  17  21
ATOM     21  O   UNL     1      10.882   2.206  23.867  0.00  0.00    -0.293 OA
ATOM     22  H   UNL     1      10.639   2.072  24.802  0.00  0.00    +0.223 HD
ENDBRANCH  17  21
ENDBRANCH  16  17
ENDBRANCH   4  16
TORSDOF 9
ENDMDL
MODEL 9
REMARK VINA RESULT:      -5.3      2.966      7.025
REMARK  Name = 
REMARK  9 active torsions:
REMARK  status: ('A' for Active; 'I' for Inactive)
REMARK    1  A    between atoms: N_1  and  CA_2
REMARK    2  A    between atoms: CA_2  and  C_4
REMARK    3  A    between atoms: CA_2  and  C_16
REMARK    4  A    between atoms: C_4  and  C_5
REMARK    5  A    between atoms: C_8  and  O_9
REMARK    6  A    between atoms: O_9  and  P_10
REMARK    7  A    between atoms: P_10  and  O_11
REMARK    8  A    between atoms: P_10  and  O_12
REMARK    9  A    between atoms: C_16  and  O_17
REMARK                            x       y       z     vdW  Elec       q    Type
REMARK                         _______ _______ _______ _____ _____    ______ ____
ROOT
ATOM      1  C   UNL     1       8.134  -1.520  23.552  0.00  0.00    -0.045 A 
ATOM      2  C   UNL     1       7.817  -2.865  23.305  0.00  0.00    +0.007 A 
ATOM      3  C   UNL     1       7.891  -3.811  24.333  0.00  0.00    +0.046 A 
ATOM      4  C   UNL     1       8.280  -3.423  25.612  0.00  0.00    +0.132 A 
ATOM      5  C   UNL     1       8.628  -2.094  25.858  0.00  0.00    +0.046 A 
ATOM      6  C   UNL     1       8.538  -1.147  24.839  0.00  0.00    +0.007 A 
ENDROOT
BRANCH   1   7
ATOM      7  C   UNL     1       8.051  -0.486  22.453  0.00  0.00    +0.065 C 
BRANCH   7   8
ATOM      8  CA  UNL     1       9.377  -0.261  21.708  0.00  0.00    +0.165 C 
BRANCH   8   9
ATOM      9  N   UNL     1      10.349  -1.394  21.855  0.00  0.00    -0.318 NA
ATOM     10  H1  UNL     1       9.895  -2.133  22.402  0.00  0.00    +0.119 HD
ATOM     11  H2  UNL     1      10.454  -1.813  20.924  0.00  0.00    +0.119 HD
ENDBRANCH   8   9
BRANCH   8  12
ATOM     12  C   UNL     1      10.048   1.014  22.257  0.00  0.00    +0.322 C 
ATOM     13  OXT UNL     1      10.632   1.101  23.327  0.00  0.00    -0.249 OA
BRANCH  12  14
ATOM     14  O   UNL     1       9.905   2.052  21.396  0.00  0.00    -0.480 OA
ATOM     15  H   UNL     1       9.930   2.871  21.954  0.00  0.00    +0.295 HD
ENDBRANCH  12  14
ENDBRANCH   8  12
ENDBRANCH   7   8
ENDBRANCH   1   7
BRANCH   4  16
ATOM     16  O   UNL     1       8.305  -4.385  26.593  0.00  0.00    -0.404 OA
BRANCH  16  17
ATOM     17  P   UNL     1       6.954  -5.465  26.601  0.00  0.00    +0.528 P 
ATOM     18  O   UNL     1       5.745  -6.432  26.608  0.00  0.00    -0.216 OA
BRANCH  17  19
ATOM     19  O   UNL     1       6.186  -4.288  27.454  0.00  0.00    -0.293 OA
ATOM     20  H   UNL     1       6.198  -3.437  26.982  0.00  0.00    +0.223 HD
ENDBRANCH  17  19
BRANCH  17  21
ATOM     21  O   UNL     1       7.647  -6.116  27.937  0.00  0.00    -0.293 OA
ATOM     22  H   UNL     1       8.595  -6.211  27.731  0.00  0.00    +0.223 HD
ENDBRANCH  17  21
ENDBRANCH  16  17
ENDBRANCH   4  16
TORSDOF 9
ENDMDL
