MODEL 1
REMARK VINA RESULT:      -5.0      0.000      0.000
REMARK  Name = 
REMARK  6 active torsions:
REMARK  status: ('A' for Active; 'I' for Inactive)
REMARK    1  A    between atoms: O_1  and  C_2
REMARK    2  A    between atoms: C_5  and  C_16
REMARK    3  A    between atoms: C_7  and  O_9
REMARK    4  A    between atoms: C_10  and  O_12
REMARK    5  A    between atoms: C_13  and  O_15
REMARK    6  A    between atoms: C_16  and  O_17
REMARK                            x       y       z     vdW  Elec       q    Type
REMARK                         _______ _______ _______ _____ _____    ______ ____
ROOT
ATOM      1  C   UNL     1       9.429  -4.916  25.220  0.00  0.00    +0.280 C 
ATOM      2  C   UNL     1       8.499  -4.496  26.390  0.00  0.00    +0.201 C 
ATOM      3  C   UNL     1       7.358  -3.621  25.844  0.00  0.00    +0.179 C 
ATOM      4  C   UNL     1       7.927  -2.447  25.026  0.00  0.00    +0.185 C 
ATOM      5  C   UNL     1       8.806  -3.038  23.918  0.00  0.00    +0.260 C 
ATOM      6  O   UNL     1       9.890  -3.797  24.472  0.00  0.00    -0.332 OA
ENDROOT
BRANCH   1   7
ATOM      7  O   UNL     1      10.574  -5.620  25.677  0.00  0.00    -0.365 OA
ATOM      8  H   UNL     1      10.802  -6.275  24.994  0.00  0.00    +0.213 HD
ENDBRANCH   1   7
BRANCH   2   9
ATOM      9  O   UNL     1       8.017  -5.685  27.041  0.00  0.00    -0.384 OA
ATOM     10  H   UNL     1       7.908  -6.379  26.366  0.00  0.00    +0.210 HD
ENDBRANCH   2   9
BRANCH   3  11
ATOM     11  O   UNL     1       6.518  -3.188  26.921  0.00  0.00    -0.386 OA
ATOM     12  H   UNL     1       5.650  -2.934  26.556  0.00  0.00    +0.210 HD
ENDBRANCH   3  11
BRANCH   4  13
ATOM     13  O   UNL     1       8.682  -1.608  25.914  0.00  0.00    -0.386 OA
ATOM     14  H   UNL     1       9.418  -2.131  26.288  0.00  0.00    +0.210 HD
ENDBRANCH   4  13
BRANCH   5  15
ATOM     15  C   UNL     1       9.401  -1.928  23.066  0.00  0.00    +0.337 C 
ATOM     16  O   UNL     1      10.500  -1.993  22.534  0.00  0.00    -0.248 OA
BRANCH  15  17
ATOM     17  O   UNL     1       8.578  -0.861  22.956  0.00  0.00    -0.479 OA
ATOM     18  H   UNL     1       7.882  -1.068  22.287  0.00  0.00    +0.295 HD
ENDBRANCH  15  17
ENDBRANCH   5  15
TORSDOF 6
ENDMDL
MODEL 2
REMARK VINA RESULT:      -4.9      2.361      5.198
REMARK  Name = 
REMARK  6 active torsions:
REMARK  status: ('A' for Active; 'I' for Inactive)
REMARK    1  A    between atoms: O_1  and  C_2
REMARK    2  A    between atoms: C_5  and  C_16
REMARK    3  A    between atoms: C_7  and  O_9
REMARK    4  A    between atoms: C_10  and  O_12
REMARK    5  A    between atoms: C_13  and  O_15
REMARK    6  A    between atoms: C_16  and  O_17
REMARK                            x       y       z     vdW  Elec       q    Type
REMARK                         _______ _______ _______ _____ _____    ______ ____
ROOT
ATOM      1  C   UNL     1       9.909   0.300  24.477  0.00  0.00    +0.280 C 
ATOM      2  C   UNL     1      10.011   0.939  23.066  0.00  0.00    +0.201 C 
ATOM      3  C   UNL     1       8.898   0.370  22.168  0.00  0.00    +0.179 C 
ATOM      4  C   UNL     1       8.937  -1.169  22.178  0.00  0.00    +0.185 C 
ATOM      5  C   UNL     1       8.817  -1.626  23.636  0.00  0.00    +0.260 C 
ATOM      6  O   UNL     1       9.905  -1.121  24.424  0.00  0.00    -0.332 OA
ENDROOT
BRANCH   1   7
ATOM      7  O   UNL     1      10.986   0.689  25.316  0.00  0.00    -0.365 OA
ATOM      8  H   UNL     1      10.607   1.187  26.061  0.00  0.00    +0.213 HD
ENDBRANCH   1   7
BRANCH   2   9
ATOM      9  O   UNL     1       9.928   2.368  23.204  0.00  0.00    -0.384 OA
ATOM     10  H   UNL     1       9.869   2.758  22.313  0.00  0.00    +0.210 HD
ENDBRANCH   2   9
BRANCH   3  11
ATOM     11  O   UNL     1       9.010   0.916  20.848  0.00  0.00    -0.386 OA
ATOM     12  H   UNL     1       9.761   0.488  20.397  0.00  0.00    +0.210 HD
ENDBRANCH   3  11
BRANCH   4  13
ATOM     13  O   UNL     1      10.178  -1.590  21.589  0.00  0.00    -0.386 OA
ATOM     14  H   UNL     1      10.007  -2.364  21.018  0.00  0.00    +0.210 HD
ENDBRANCH   4  13
BRANCH   5  15
ATOM     15  C   UNL     1       8.846  -3.145  23.720  0.00  0.00    +0.337 C 
ATOM     16  O   UNL     1       7.900  -3.861  23.426  0.00  0.00    -0.248 OA
BRANCH  15  17
ATOM     17  O   UNL     1      10.038  -3.617  24.150  0.00  0.00    -0.479 OA
ATOM     18  H   UNL     1      10.011  -4.604  24.129  0.00  0.00    +0.295 HD
ENDBRANCH  15  17
ENDBRANCH   5  15
TORSDOF 6
ENDMDL
MODEL 3
REMARK VINA RESULT:      -4.9      1.481      4.164
REMARK  Name = 
REMARK  6 active torsions:
REMARK  status: ('A' for Active; 'I' for Inactive)
REMARK    1  A    between atoms: O_1  and  C_2
REMARK    2  A    between atoms: C_5  and  C_16
REMARK    3  A    between atoms: C_7  and  O_9
REMARK    4  A    between atoms: C_10  and  O_12
REMARK    5  A    between atoms: C_13  and  O_15
REMARK    6  A    between atoms: C_16  and  O_17
REMARK                            x       y       z     vdW  Elec       q    Type
REMARK                         _______ _______ _______ _____ _____    ______ ____
ROOT
ATOM      1  C   UNL     1       9.702  -2.116  23.447  0.00  0.00    +0.280 C 
ATOM      2  C   UNL     1       8.317  -1.865  22.793  0.00  0.00    +0.201 C 
ATOM      3  C   UNL     1       7.208  -2.205  23.804  0.00  0.00    +0.179 C 
ATOM      4  C   UNL     1       7.405  -3.628  24.358  0.00  0.00    +0.185 C 
ATOM      5  C   UNL     1       8.809  -3.696  24.970  0.00  0.00    +0.260 C 
ATOM      6  O   UNL     1       9.814  -3.430  23.980  0.00  0.00    -0.332 OA
ENDROOT
BRANCH   1   7
ATOM      7  O   UNL     1      10.765  -1.943  22.524  0.00  0.00    -0.365 OA
ATOM      8  H   UNL     1      11.569  -2.305  22.937  0.00  0.00    +0.213 HD
ENDBRANCH   1   7
BRANCH   2   9
ATOM      9  O   UNL     1       8.260  -0.497  22.354  0.00  0.00    -0.384 OA
ATOM     10  H   UNL     1       7.743   0.012  23.004  0.00  0.00    +0.210 HD
ENDBRANCH   2   9
BRANCH   3  11
ATOM     11  O   UNL     1       5.923  -2.023  23.197  0.00  0.00    -0.386 OA
ATOM     12  H   UNL     1       5.286  -2.620  23.630  0.00  0.00    +0.210 HD
ENDBRANCH   3  11
BRANCH   4  13
ATOM     13  O   UNL     1       7.253  -4.556  23.273  0.00  0.00    -0.386 OA
ATOM     14  H   UNL     1       7.501  -5.448  23.586  0.00  0.00    +0.210 HD
ENDBRANCH   4  13
BRANCH   5  15
ATOM     15  C   UNL     1       9.071  -5.081  25.541  0.00  0.00    +0.337 C 
ATOM     16  O   UNL     1       8.217  -5.767  26.083  0.00  0.00    -0.248 OA
BRANCH  15  17
ATOM     17  O   UNL     1      10.355  -5.473  25.379  0.00  0.00    -0.479 OA
ATOM     18  H   UNL     1      10.765  -4.924  24.668  0.00  0.00    +0.295 HD
ENDBRANCH  15  17
ENDBRANCH   5  15
TORSDOF 6
ENDMDL
MODEL 4
REMARK VINA RESULT:      -4.8      2.673      4.628
REMARK  Name = 
REMARK  6 active torsions:
REMARK  status: ('A' for Active; 'I' for Inactive)
REMARK    1  A    between atoms: O_1  and  C_2
REMARK    2  A    between atoms: C_5  and  C_16
REMARK    3  A    between atoms: C_7  and  O_9
REMARK    4  A    between atoms: C_10  and  O_12
REMARK    5  A    between atoms: C_13  and  O_15
REMARK    6  A    between atoms: C_16  and  O_17
REMARK                            x       y       z     vdW  Elec       q    Type
REMARK                         _______ _______ _______ _____ _____    ______ ____
ROOT
ATOM      1  C   UNL     1       7.141  -1.197  23.451  0.00  0.00    +0.280 C 
ATOM      2  C   UNL     1       8.248  -2.260  23.218  0.00  0.00    +0.201 C 
ATOM      3  C   UNL     1       9.629  -1.592  23.339  0.00  0.00    +0.179 C 
ATOM      4  C   UNL     1       9.714  -0.366  22.411  0.00  0.00    +0.185 C 
ATOM      5  C   UNL     1       8.563   0.576  22.781  0.00  0.00    +0.260 C 
ATOM      6  O   UNL     1       7.293  -0.068  22.599  0.00  0.00    -0.332 OA
ENDROOT
BRANCH   1   7
ATOM      7  O   UNL     1       5.843  -1.723  23.228  0.00  0.00    -0.365 OA
ATOM      8  H   UNL     1       5.783  -1.954  22.284  0.00  0.00    +0.213 HD
ENDBRANCH   1   7
BRANCH   2   9
ATOM      9  O   UNL     1       8.068  -3.324  24.169  0.00  0.00    -0.384 OA
ATOM     10  H   UNL     1       8.921  -3.780  24.283  0.00  0.00    +0.210 HD
ENDBRANCH   2   9
BRANCH   3  11
ATOM     11  O   UNL     1      10.659  -2.553  23.079  0.00  0.00    -0.386 OA
ATOM     12  H   UNL     1      10.666  -3.205  23.804  0.00  0.00    +0.210 HD
ENDBRANCH   3  11
BRANCH   4  13
ATOM     13  O   UNL     1       9.610  -0.824  21.054  0.00  0.00    -0.386 OA
ATOM     14  H   UNL     1      10.419  -1.324  20.830  0.00  0.00    +0.210 HD
ENDBRANCH   4  13
BRANCH   5  15
ATOM     15  C   UNL     1       8.588   1.816  21.901  0.00  0.00    +0.337 C 
ATOM     16  O   UNL     1       7.595   2.470  21.617  0.00  0.00    -0.248 OA
BRANCH  15  17
ATOM     17  O   UNL     1       9.833   2.119  21.470  0.00  0.00    -0.479 OA
ATOM     18  H   UNL     1      10.463   1.449  21.830  0.00  0.00    +0.295 HD
ENDBRANCH  15  17
ENDBRANCH   5  15
TORSDOF 6
ENDMDL
MODEL 5
REMARK VINA RESULT:      -4.8      2.830      4.004
REMARK  Name = 
REMARK  6 active torsions:
REMARK  status: ('A' for Active; 'I' for Inactive)
REMARK    1  A    between atoms: O_1  and  C_2
REMARK    2  A    between atoms: C_5  and  C_16
REMARK    3  A    between atoms: C_7  and  O_9
REMARK    4  A    between atoms: C_10  and  O_12
REMARK    5  A    between atoms: C_13  and  O_15
REMARK    6  A    between atoms: C_16  and  O_17
REMARK                            x       y       z     vdW  Elec       q    Type
REMARK                         _______ _______ _______ _____ _____    ______ ____
ROOT
ATOM      1  C   UNL     1       6.530  -5.356  25.988  0.00  0.00    +0.280 C 
ATOM      2  C   UNL     1       8.068  -5.334  25.778  0.00  0.00    +0.201 C 
ATOM      3  C   UNL     1       8.427  -4.234  24.764  0.00  0.00    +0.179 C 
ATOM      4  C   UNL     1       7.607  -4.406  23.472  0.00  0.00    +0.185 C 
ATOM      5  C   UNL     1       6.124  -4.396  23.860  0.00  0.00    +0.260 C 
ATOM      6  O   UNL     1       5.821  -5.473  24.760  0.00  0.00    -0.332 OA
ENDROOT
BRANCH   1   7
ATOM      7  O   UNL     1       6.122  -6.434  26.816  0.00  0.00    -0.365 OA
ATOM      8  H   UNL     1       5.780  -7.134  26.232  0.00  0.00    +0.213 HD
ENDBRANCH   1   7
BRANCH   2   9
ATOM      9  O   UNL     1       8.701  -5.134  27.053  0.00  0.00    -0.384 OA
ATOM     10  H   UNL     1       8.454  -4.252  27.382  0.00  0.00    +0.210 HD
ENDBRANCH   2   9
BRANCH   3  11
ATOM     11  O   UNL     1       9.840  -4.234  24.525  0.00  0.00    -0.386 OA
ATOM     12  H   UNL     1      10.101  -5.119  24.208  0.00  0.00    +0.210 HD
ENDBRANCH   3  11
BRANCH   4  13
ATOM     13  O   UNL     1       7.989  -5.649  22.862  0.00  0.00    -0.386 OA
ATOM     14  H   UNL     1       7.352  -5.857  22.151  0.00  0.00    +0.210 HD
ENDBRANCH   4  13
BRANCH   5  15
ATOM     15  C   UNL     1       5.252  -4.561  22.625  0.00  0.00    +0.337 C 
ATOM     16  O   UNL     1       4.163  -5.116  22.630  0.00  0.00    -0.248 OA
BRANCH  15  17
ATOM     17  O   UNL     1       5.812  -4.020  21.520  0.00  0.00    -0.479 OA
ATOM     18  H   UNL     1       6.683  -4.458  21.362  0.00  0.00    +0.295 HD
ENDBRANCH  15  17
ENDBRANCH   5  15
TORSDOF 6
ENDMDL
MODEL 6
REMARK VINA RESULT:      -4.7      3.900      5.945
REMARK  Name = 
REMARK  6 active torsions:
REMARK  status: ('A' for Active; 'I' for Inactive)
REMARK    1  A    between atoms: O_1  and  C_2
REMARK    2  A    between atoms: C_5  and  C_16
REMARK    3  A    between atoms: C_7  and  O_9
REMARK    4  A    between atoms: C_10  and  O_12
REMARK    5  A    between atoms: C_13  and  O_15
REMARK    6  A    between atoms: C_16  and  O_17
REMARK                            x       y       z     vdW  Elec       q    Type
REMARK                         _______ _______ _______ _____ _____    ______ ____
ROOT
ATOM      1  C   UNL     1       9.049   0.750  24.617  0.00  0.00    +0.280 C 
ATOM      2  C   UNL     1       8.704  -0.004  23.305  0.00  0.00    +0.201 C 
ATOM      3  C   UNL     1       9.863   0.158  22.305  0.00  0.00    +0.179 C 
ATOM      4  C   UNL     1      10.202   1.648  22.116  0.00  0.00    +0.185 C 
ATOM      5  C   UNL     1      10.523   2.228  23.498  0.00  0.00    +0.260 C 
ATOM      6  O   UNL     1       9.398   2.108  24.380  0.00  0.00    -0.332 OA
ENDROOT
BRANCH   1   7
ATOM      7  O   UNL     1       7.966   0.745  25.534  0.00  0.00    -0.365 OA
ATOM      8  H   UNL     1       7.803   1.669  25.794  0.00  0.00    +0.213 HD
ENDBRANCH   1   7
BRANCH   2   9
ATOM      9  O   UNL     1       8.443  -1.382  23.624  0.00  0.00    -0.384 OA
ATOM     10  H   UNL     1       8.138  -1.831  22.815  0.00  0.00    +0.210 HD
ENDBRANCH   2   9
BRANCH   3  11
ATOM     11  O   UNL     1       9.536  -0.494  21.071  0.00  0.00    -0.386 OA
ATOM     12  H   UNL     1      10.362  -0.805  20.656  0.00  0.00    +0.210 HD
ENDBRANCH   3  11
BRANCH   4  13
ATOM     13  O   UNL     1       9.067   2.294  21.519  0.00  0.00    -0.386 OA
ATOM     14  H   UNL     1       9.081   3.240  21.765  0.00  0.00    +0.210 HD
ENDBRANCH   4  13
BRANCH   5  15
ATOM     15  C   UNL     1      10.872   3.704  23.385  0.00  0.00    +0.337 C 
ATOM     16  O   UNL     1      12.017   4.133  23.362  0.00  0.00    -0.248 OA
BRANCH  15  17
ATOM     17  O   UNL     1       9.776   4.491  23.307  0.00  0.00    -0.479 OA
ATOM     18  H   UNL     1       9.826   5.019  22.474  0.00  0.00    +0.295 HD
ENDBRANCH  15  17
ENDBRANCH   5  15
TORSDOF 6
ENDMDL
MODEL 7
REMARK VINA RESULT:      -4.7      2.728      4.191
REMARK  Name = 
REMARK  6 active torsions:
REMARK  status: ('A' for Active; 'I' for Inactive)
REMARK    1  A    between atoms: O_1  and  C_2
REMARK    2  A    between atoms: C_5  and  C_16
REMARK    3  A    between atoms: C_7  and  O_9
REMARK    4  A    between atoms: C_10  and  O_12
REMARK    5  A    between atoms: C_13  and  O_15
REMARK    6  A    between atoms: C_16  and  O_17
REMARK                            x       y       z     vdW  Elec       q    Type
REMARK                         _______ _______ _______ _____ _____    ______ ____
ROOT
ATOM      1  C   UNL     1       9.611  -1.196  22.583  0.00  0.00    +0.280 C 
ATOM      2  C   UNL     1       9.621  -1.729  24.041  0.00  0.00    +0.201 C 
ATOM      3  C   UNL     1       8.872  -0.739  24.949  0.00  0.00    +0.179 C 
ATOM      4  C   UNL     1       9.445   0.681  24.783  0.00  0.00    +0.185 C 
ATOM      5  C   UNL     1       9.351   1.048  23.298  0.00  0.00    +0.260 C 
ATOM      6  O   UNL     1      10.110   0.134  22.493  0.00  0.00    -0.332 OA
ENDROOT
BRANCH   1   7
ATOM      7  O   UNL     1      10.396  -2.001  21.717  0.00  0.00    -0.365 OA
ATOM      8  H   UNL     1      10.180  -2.930  21.911  0.00  0.00    +0.213 HD
ENDBRANCH   1   7
BRANCH   2   9
ATOM      9  O   UNL     1       9.031  -3.040  24.052  0.00  0.00    -0.384 OA
ATOM     10  H   UNL     1       9.658  -3.662  23.641  0.00  0.00    +0.210 HD
ENDBRANCH   2   9
BRANCH   3  11
ATOM     11  O   UNL     1       8.914  -1.196  26.307  0.00  0.00    -0.386 OA
ATOM     12  H   UNL     1       9.785  -1.604  26.470  0.00  0.00    +0.210 HD
ENDBRANCH   3  11
BRANCH   4  13
ATOM     13  O   UNL     1      10.806   0.670  25.243  0.00  0.00    -0.386 OA
ATOM     14  H   UNL     1      11.248   1.483  24.929  0.00  0.00    +0.210 HD
ENDBRANCH   4  13
BRANCH   5  15
ATOM     15  C   UNL     1       9.900   2.446  23.062  0.00  0.00    +0.337 C 
ATOM     16  O   UNL     1       9.864   3.341  23.893  0.00  0.00    -0.248 OA
BRANCH  15  17
ATOM     17  O   UNL     1      10.441   2.588  21.831  0.00  0.00    -0.479 OA
ATOM     18  H   UNL     1      11.296   2.095  21.803  0.00  0.00    +0.295 HD
ENDBRANCH  15  17
ENDBRANCH   5  15
TORSDOF 6
ENDMDL
MODEL 8
REMARK VINA RESULT:      -4.7      3.969      6.415
REMARK  Name = 
REMARK  6 active torsions:
REMARK  status: ('A' for Active; 'I' for Inactive)
REMARK    1  A    between atoms: O_1  and  C_2
REMARK    2  A    between atoms: C_5  and  C_16
REMARK    3  A    between atoms: C_7  and  O_9
REMARK    4  A    between atoms: C_10  and  O_12
REMARK    5  A    between atoms: C_13  and  O_15
REMARK    6  A    between atoms: C_16  and  O_17
REMARK                            x       y       z     vdW  Elec       q    Type
REMARK                         _______ _______ _______ _____ _____    ______ ____
ROOT
ATOM      1  C   UNL     1       7.382   1.588  22.046  0.00  0.00    +0.280 C 
ATOM      2  C   UNL     1       8.394   2.602  22.644  0.00  0.00    +0.201 C 
ATOM      3  C   UNL     1       9.810   2.260  22.148  0.00  0.00    +0.179 C 
ATOM      4  C   UNL     1      10.137   0.784  22.438  0.00  0.00    +0.185 C 
ATOM      5  C   UNL     1       9.052  -0.070  21.772  0.00  0.00    +0.260 C 
ATOM      6  O   UNL     1       7.755   0.240  22.305  0.00  0.00    -0.332 OA
ENDROOT
BRANCH   1   7
ATOM      7  O   UNL     1       6.074   1.771  22.566  0.00  0.00    -0.365 OA
ATOM      8  H   UNL     1       6.012   1.247  23.384  0.00  0.00    +0.213 HD
ENDBRANCH   1   7
BRANCH   2   9
ATOM      9  O   UNL     1       7.986   3.929  22.270  0.00  0.00    -0.384 OA
ATOM     10  H   UNL     1       8.655   4.295  21.663  0.00  0.00    +0.210 HD
ENDBRANCH   2   9
BRANCH   3  11
ATOM     11  O   UNL     1      10.760   3.160  22.731  0.00  0.00    -0.386 OA
ATOM     12  H   UNL     1      10.278   3.919  23.109  0.00  0.00    +0.210 HD
ENDBRANCH   3  11
BRANCH   4  13
ATOM     13  O   UNL     1      10.159   0.601  23.862  0.00  0.00    -0.386 OA
ATOM     14  H   UNL     1      10.782   1.245  24.250  0.00  0.00    +0.210 HD
ENDBRANCH   4  13
BRANCH   5  15
ATOM     15  C   UNL     1       9.315  -1.548  22.017  0.00  0.00    +0.337 C 
ATOM     16  O   UNL     1       8.434  -2.384  22.150  0.00  0.00    -0.248 OA
BRANCH  15  17
ATOM     17  O   UNL     1      10.635  -1.837  22.065  0.00  0.00    -0.479 OA
ATOM     18  H   UNL     1      10.746  -2.816  21.999  0.00  0.00    +0.295 HD
ENDBRANCH  15  17
ENDBRANCH   5  15
TORSDOF 6
ENDMDL
MODEL 9
REMARK VINA RESULT:      -4.7      3.032      5.428
REMARK  Name = 
REMARK  6 active torsions:
REMARK  status: ('A' for Active; 'I' for Inactive)
REMARK    1  A    between atoms: O_1  and  C_2
REMARK    2  A    between atoms: C_5  and  C_16
REMARK    3  A    between atoms: C_7  and  O_9
REMARK    4  A    between atoms: C_10  and  O_12
REMARK    5  A    between atoms: C_13  and  O_15
REMARK    6  A    between atoms: C_16  and  O_17
REMARK                            x       y       z     vdW  Elec       q    Type
REMARK                         _______ _______ _______ _____ _____    ______ ____
ROOT
ATOM      1  C   UNL     1      10.181   1.603  22.715  0.00  0.00    +0.280 C 
ATOM      2  C   UNL     1       9.166   2.208  23.722  0.00  0.00    +0.201 C 
ATOM      3  C   UNL     1       9.120   1.332  24.986  0.00  0.00    +0.179 C 
ATOM      4  C   UNL     1       8.850  -0.137  24.610  0.00  0.00    +0.185 C 
ATOM      5  C   UNL     1       9.942  -0.571  23.625  0.00  0.00    +0.260 C 
ATOM      6  O   UNL     1       9.911   0.234  22.437  0.00  0.00    -0.332 OA
ENDROOT
BRANCH   1   7
ATOM      7  O   UNL     1      10.176   2.294  21.475  0.00  0.00    -0.365 OA
ATOM      8  H   UNL     1       9.446   2.938  21.506  0.00  0.00    +0.213 HD
ENDBRANCH   1   7
BRANCH   2   9
ATOM      9  O   UNL     1       9.556   3.563  24.006  0.00  0.00    -0.384 OA
ATOM     10  H   UNL     1      10.458   3.699  23.665  0.00  0.00    +0.210 HD
ENDBRANCH   2   9
BRANCH   3  11
ATOM     11  O   UNL     1       8.152   1.853  25.905  0.00  0.00    -0.386 OA
ATOM     12  H   UNL     1       8.543   2.616  26.370  0.00  0.00    +0.210 HD
ENDBRANCH   3  11
BRANCH   4  13
ATOM     13  O   UNL     1       7.542  -0.216  24.023  0.00  0.00    -0.386 OA
ATOM     14  H   UNL     1       7.616  -0.654  23.153  0.00  0.00    +0.210 HD
ENDBRANCH   4  13
BRANCH   5  15
ATOM     15  C   UNL     1       9.737  -2.020  23.212  0.00  0.00    +0.337 C 
ATOM     16  O   UNL     1      10.263  -2.969  23.776  0.00  0.00    -0.248 OA
BRANCH  15  17
ATOM     17  O   UNL     1       8.904  -2.144  22.155  0.00  0.00    -0.479 OA
ATOM     18  H   UNL     1       9.336  -2.719  21.479  0.00  0.00    +0.295 HD
ENDBRANCH  15  17
ENDBRANCH   5  15
TORSDOF 6
ENDMDL
