MODEL 1
REMARK VINA RESULT:      -4.7      0.000      0.000
REMARK  Name = 
REMARK  22 active torsions:
REMARK  status: ('A' for Active; 'I' for Inactive)
REMARK    1  A    between atoms: C_1  and  C_2
REMARK    2  A    between atoms: C_2  and  C_3
REMARK    3  A    between atoms: C_3  and  C_4
REMARK    4  A    between atoms: C_4  and  C_5
REMARK    5  A    between atoms: C_5  and  C_6
REMARK    6  A    between atoms: C_6  and  C_7
REMARK    7  A    between atoms: C_7  and  C_8
REMARK    8  A    between atoms: C_8  and  C_9
REMARK    9  A    between atoms: C_9  and  C_10
REMARK   10  A    between atoms: C_10  and  C_11
REMARK   11  A    between atoms: C_11  and  C_12
REMARK   12  A    between atoms: C_12  and  C_13
REMARK   13  A    between atoms: C_13  and  C_14
REMARK   14  A    between atoms: C_14  and  C_15
REMARK   15  A    between atoms: C_15  and  C_16
REMARK   16  A    between atoms: C_16  and  C_17
REMARK   17  A    between atoms: C_17  and  C_18
REMARK   18  A    between atoms: C_18  and  C_19
REMARK   19  A    between atoms: C_19  and  C_20
REMARK   20  A    between atoms: C_20  and  C_21
REMARK   21  A    between atoms: C_21  and  C_22
REMARK   22  A    between atoms: C_22  and  O_23
REMARK                            x       y       z     vdW  Elec       q    Type
REMARK                         _______ _______ _______ _____ _____    ______ ____
ROOT
ATOM      1  C   UNL     1      10.279   0.092  22.735  0.00  0.00    -0.000 C 
ENDROOT
BRANCH   1   2
ATOM      2  C   UNL     1       9.871   1.347  21.976  0.00  0.00    -0.000 C 
BRANCH   2   3
ATOM      3  C   UNL     1       8.504   1.158  21.331  0.00  0.00    -0.000 C 
BRANCH   3   4
ATOM      4  C   UNL     1       7.558   2.274  21.753  0.00  0.00    -0.000 C 
BRANCH   4   5
ATOM      5  C   UNL     1       7.996   2.872  23.083  0.00  0.00    -0.000 C 
BRANCH   5   6
ATOM      6  C   UNL     1       7.836   4.387  23.067  0.00  0.00    +0.000 C 
BRANCH   6   7
ATOM      7  C   UNL     1       9.144   5.068  23.455  0.00  0.00    +0.000 C 
BRANCH   7   8
ATOM      8  C   UNL     1      10.072   4.090  24.167  0.00  0.00    +0.000 C 
BRANCH   8   9
ATOM      9  C   UNL     1      11.465   4.115  23.544  0.00  0.00    +0.002 C 
BRANCH   9  10
ATOM     10  C   UNL     1      11.955   5.546  23.353  0.00  0.00    +0.028 C 
BRANCH  10  11
ATOM     11  C   UNL     1      13.163   5.597  22.430  0.00  0.00    +0.156 C 
BRANCH  11  12
ATOM     12  O   UNL     1      14.299   5.065  23.097  0.00  0.00    -0.395 OA
ATOM     13  H   UNL     1      14.742   4.459  22.480  0.00  0.00    +0.209 HD
ENDBRANCH  11  12
ENDBRANCH  10  11
ENDBRANCH   9  10
ENDBRANCH   8   9
ENDBRANCH   7   8
ENDBRANCH   6   7
ENDBRANCH   5   6
ENDBRANCH   4   5
ENDBRANCH   3   4
ENDBRANCH   2   3
ENDBRANCH   1   2
BRANCH   1  14
ATOM     14  C   UNL     1      10.816   0.455  24.113  0.00  0.00    -0.000 C 
BRANCH  14  15
ATOM     15  C   UNL     1       9.741   0.257  25.173  0.00  0.00    -0.000 C 
BRANCH  15  16
ATOM     16  C   UNL     1       8.705  -0.751  24.698  0.00  0.00    -0.000 C 
BRANCH  16  17
ATOM     17  C   UNL     1       7.300  -0.278  25.049  0.00  0.00    -0.000 C 
BRANCH  17  18
ATOM     18  C   UNL     1       6.288  -0.822  24.050  0.00  0.00    -0.000 C 
BRANCH  18  19
ATOM     19  C   UNL     1       6.978  -1.689  23.004  0.00  0.00    -0.000 C 
BRANCH  19  20
ATOM     20  C   UNL     1       5.988  -2.660  22.372  0.00  0.00    -0.000 C 
BRANCH  20  21
ATOM     21  C   UNL     1       5.868  -3.932  23.204  0.00  0.00    -0.000 C 
BRANCH  21  22
ATOM     22  C   UNL     1       7.192  -4.688  23.232  0.00  0.00    -0.000 C 
BRANCH  22  24
ATOM     23  C   UNL     1       5.966  -6.061  21.523  0.00  0.00    +0.004 C 
ATOM     24  C   UNL     1       7.327  -5.609  22.023  0.00  0.00    -0.003 C 
ENDBRANCH  22  24
ENDBRANCH  21  22
ENDBRANCH  20  21
ENDBRANCH  19  20
ENDBRANCH  18  19
ENDBRANCH  17  18
ENDBRANCH  16  17
ENDBRANCH  15  16
ENDBRANCH  14  15
ENDBRANCH   1  14
TORSDOF 21
ENDMDL
MODEL 2
REMARK VINA RESULT:      -4.7      3.070      7.979
REMARK  Name = 
REMARK  22 active torsions:
REMARK  status: ('A' for Active; 'I' for Inactive)
REMARK    1  A    between atoms: C_1  and  C_2
REMARK    2  A    between atoms: C_2  and  C_3
REMARK    3  A    between atoms: C_3  and  C_4
REMARK    4  A    between atoms: C_4  and  C_5
REMARK    5  A    between atoms: C_5  and  C_6
REMARK    6  A    between atoms: C_6  and  C_7
REMARK    7  A    between atoms: C_7  and  C_8
REMARK    8  A    between atoms: C_8  and  C_9
REMARK    9  A    between atoms: C_9  and  C_10
REMARK   10  A    between atoms: C_10  and  C_11
REMARK   11  A    between atoms: C_11  and  C_12
REMARK   12  A    between atoms: C_12  and  C_13
REMARK   13  A    between atoms: C_13  and  C_14
REMARK   14  A    between atoms: C_14  and  C_15
REMARK   15  A    between atoms: C_15  and  C_16
REMARK   16  A    between atoms: C_16  and  C_17
REMARK   17  A    between atoms: C_17  and  C_18
REMARK   18  A    between atoms: C_18  and  C_19
REMARK   19  A    between atoms: C_19  and  C_20
REMARK   20  A    between atoms: C_20  and  C_21
REMARK   21  A    between atoms: C_21  and  C_22
REMARK   22  A    between atoms: C_22  and  O_23
REMARK                            x       y       z     vdW  Elec       q    Type
REMARK                         _______ _______ _______ _____ _____    ______ ____
ROOT
ATOM      1  C   UNL     1       9.224  -1.320  25.217  0.00  0.00    -0.000 C 
ENDROOT
BRANCH   1   2
ATOM      2  C   UNL     1       7.804  -1.134  25.734  0.00  0.00    -0.000 C 
BRANCH   2   3
ATOM      3  C   UNL     1       7.136   0.046  25.041  0.00  0.00    -0.000 C 
BRANCH   3   4
ATOM      4  C   UNL     1       6.547  -0.385  23.705  0.00  0.00    -0.000 C 
BRANCH   4   5
ATOM      5  C   UNL     1       6.062  -1.827  23.774  0.00  0.00    -0.000 C 
BRANCH   5   6
ATOM      6  C   UNL     1       6.703  -2.662  22.673  0.00  0.00    +0.000 C 
BRANCH   6   7
ATOM      7  C   UNL     1       6.300  -4.125  22.806  0.00  0.00    +0.000 C 
BRANCH   7   8
ATOM      8  C   UNL     1       6.788  -4.703  24.130  0.00  0.00    +0.000 C 
BRANCH   8   9
ATOM      9  C   UNL     1       8.303  -4.891  24.113  0.00  0.00    +0.002 C 
BRANCH   9  10
ATOM     10  C   UNL     1       8.849  -5.076  25.524  0.00  0.00    +0.028 C 
BRANCH  10  11
ATOM     11  C   UNL     1       7.750  -4.922  26.565  0.00  0.00    +0.156 C 
BRANCH  11  12
ATOM     12  O   UNL     1       7.893  -5.921  27.565  0.00  0.00    -0.395 OA
ATOM     13  H   UNL     1       7.171  -5.800  28.204  0.00  0.00    +0.209 HD
ENDBRANCH  11  12
ENDBRANCH  10  11
ENDBRANCH   9  10
ENDBRANCH   8   9
ENDBRANCH   7   8
ENDBRANCH   6   7
ENDBRANCH   5   6
ENDBRANCH   4   5
ENDBRANCH   3   4
ENDBRANCH   2   3
ENDBRANCH   1   2
BRANCH   1  14
ATOM     14  C   UNL     1       9.948   0.019  25.160  0.00  0.00    -0.000 C 
BRANCH  14  15
ATOM     15  C   UNL     1      10.719   0.152  23.854  0.00  0.00    -0.000 C 
BRANCH  15  16
ATOM     16  C   UNL     1      10.137  -0.775  22.796  0.00  0.00    -0.000 C 
BRANCH  16  17
ATOM     17  C   UNL     1       9.581   0.030  21.629  0.00  0.00    -0.000 C 
BRANCH  17  18
ATOM     18  C   UNL     1       9.711   1.523  21.898  0.00  0.00    -0.000 C 
BRANCH  18  19
ATOM     19  C   UNL     1       8.353   2.208  21.796  0.00  0.00    -0.000 C 
BRANCH  19  20
ATOM     20  C   UNL     1       8.082   3.054  23.033  0.00  0.00    -0.000 C 
BRANCH  20  21
ATOM     21  C   UNL     1       9.387   3.475  23.700  0.00  0.00    -0.000 C 
BRANCH  21  22
ATOM     22  C   UNL     1       9.226   4.820  24.402  0.00  0.00    -0.000 C 
BRANCH  22  24
ATOM     23  C   UNL     1      11.486   5.722  23.777  0.00  0.00    +0.004 C 
ATOM     24  C   UNL     1       9.984   5.920  23.666  0.00  0.00    -0.003 C 
ENDBRANCH  22  24
ENDBRANCH  21  22
ENDBRANCH  20  21
ENDBRANCH  19  20
ENDBRANCH  18  19
ENDBRANCH  17  18
ENDBRANCH  16  17
ENDBRANCH  15  16
ENDBRANCH  14  15
ENDBRANCH   1  14
TORSDOF 21
ENDMDL
MODEL 3
REMARK VINA RESULT:      -4.7      1.463      3.060
REMARK  Name = 
REMARK  22 active torsions:
REMARK  status: ('A' for Active; 'I' for Inactive)
REMARK    1  A    between atoms: C_1  and  C_2
REMARK    2  A    between atoms: C_2  and  C_3
REMARK    3  A    between atoms: C_3  and  C_4
REMARK    4  A    between atoms: C_4  and  C_5
REMARK    5  A    between atoms: C_5  and  C_6
REMARK    6  A    between atoms: C_6  and  C_7
REMARK    7  A    between atoms: C_7  and  C_8
REMARK    8  A    between atoms: C_8  and  C_9
REMARK    9  A    between atoms: C_9  and  C_10
REMARK   10  A    between atoms: C_10  and  C_11
REMARK   11  A    between atoms: C_11  and  C_12
REMARK   12  A    between atoms: C_12  and  C_13
REMARK   13  A    between atoms: C_13  and  C_14
REMARK   14  A    between atoms: C_14  and  C_15
REMARK   15  A    between atoms: C_15  and  C_16
REMARK   16  A    between atoms: C_16  and  C_17
REMARK   17  A    between atoms: C_17  and  C_18
REMARK   18  A    between atoms: C_18  and  C_19
REMARK   19  A    between atoms: C_19  and  C_20
REMARK   20  A    between atoms: C_20  and  C_21
REMARK   21  A    between atoms: C_21  and  C_22
REMARK   22  A    between atoms: C_22  and  O_23
REMARK                            x       y       z     vdW  Elec       q    Type
REMARK                         _______ _______ _______ _____ _____    ______ ____
ROOT
ATOM      1  C   UNL     1       9.479  -0.169  25.163  0.00  0.00    -0.000 C 
ENDROOT
BRANCH   1   2
ATOM      2  C   UNL     1       9.388  -1.636  24.768  0.00  0.00    -0.000 C 
BRANCH   2   3
ATOM      3  C   UNL     1      10.196  -1.899  23.504  0.00  0.00    -0.000 C 
BRANCH   3   4
ATOM      4  C   UNL     1      10.373  -0.612  22.709  0.00  0.00    -0.000 C 
BRANCH   4   5
ATOM      5  C   UNL     1       9.435  -0.593  21.509  0.00  0.00    -0.000 C 
BRANCH   5   6
ATOM      6  C   UNL     1       8.854   0.800  21.305  0.00  0.00    +0.000 C 
BRANCH   6   7
ATOM      7  C   UNL     1       9.722   1.848  21.992  0.00  0.00    +0.000 C 
BRANCH   7   8
ATOM      8  C   UNL     1       8.864   2.821  22.792  0.00  0.00    +0.000 C 
BRANCH   8   9
ATOM      9  C   UNL     1       9.732   3.685  23.704  0.00  0.00    +0.002 C 
BRANCH   9  10
ATOM     10  C   UNL     1      11.213   3.389  23.492  0.00  0.00    +0.028 C 
BRANCH  10  11
ATOM     11  C   UNL     1      12.018   4.672  23.358  0.00  0.00    +0.156 C 
BRANCH  11  12
ATOM     12  O   UNL     1      11.195   5.702  22.826  0.00  0.00    -0.395 OA
ATOM     13  H   UNL     1      11.282   6.474  23.409  0.00  0.00    +0.209 HD
ENDBRANCH  11  12
ENDBRANCH  10  11
ENDBRANCH   9  10
ENDBRANCH   8   9
ENDBRANCH   7   8
ENDBRANCH   6   7
ENDBRANCH   5   6
ENDBRANCH   4   5
ENDBRANCH   3   4
ENDBRANCH   2   3
ENDBRANCH   1   2
BRANCH   1  14
ATOM     14  C   UNL     1       8.110   0.358  25.570  0.00  0.00    -0.000 C 
BRANCH  14  15
ATOM     15  C   UNL     1       7.098   0.126  24.457  0.00  0.00    -0.000 C 
BRANCH  15  16
ATOM     16  C   UNL     1       5.906  -0.665  24.977  0.00  0.00    -0.000 C 
BRANCH  16  17
ATOM     17  C   UNL     1       5.833  -2.027  24.300  0.00  0.00    -0.000 C 
BRANCH  17  18
ATOM     18  C   UNL     1       6.192  -1.912  22.825  0.00  0.00    -0.000 C 
BRANCH  18  19
ATOM     19  C   UNL     1       6.966  -3.141  22.363  0.00  0.00    -0.000 C 
BRANCH  19  20
ATOM     20  C   UNL     1       6.065  -4.368  22.342  0.00  0.00    -0.000 C 
BRANCH  20  21
ATOM     21  C   UNL     1       6.500  -5.380  23.398  0.00  0.00    -0.000 C 
BRANCH  21  22
ATOM     22  C   UNL     1       7.981  -5.218  23.725  0.00  0.00    -0.000 C 
BRANCH  22  24
ATOM     23  C   UNL     1       9.693  -5.105  25.559  0.00  0.00    +0.004 C 
ATOM     24  C   UNL     1       8.212  -5.194  25.233  0.00  0.00    -0.003 C 
ENDBRANCH  22  24
ENDBRANCH  21  22
ENDBRANCH  20  21
ENDBRANCH  19  20
ENDBRANCH  18  19
ENDBRANCH  17  18
ENDBRANCH  16  17
ENDBRANCH  15  16
ENDBRANCH  14  15
ENDBRANCH   1  14
TORSDOF 21
ENDMDL
MODEL 4
REMARK VINA RESULT:      -4.6      3.249      7.934
REMARK  Name = 
REMARK  22 active torsions:
REMARK  status: ('A' for Active; 'I' for Inactive)
REMARK    1  A    between atoms: C_1  and  C_2
REMARK    2  A    between atoms: C_2  and  C_3
REMARK    3  A    between atoms: C_3  and  C_4
REMARK    4  A    between atoms: C_4  and  C_5
REMARK    5  A    between atoms: C_5  and  C_6
REMARK    6  A    between atoms: C_6  and  C_7
REMARK    7  A    between atoms: C_7  and  C_8
REMARK    8  A    between atoms: C_8  and  C_9
REMARK    9  A    between atoms: C_9  and  C_10
REMARK   10  A    between atoms: C_10  and  C_11
REMARK   11  A    between atoms: C_11  and  C_12
REMARK   12  A    between atoms: C_12  and  C_13
REMARK   13  A    between atoms: C_13  and  C_14
REMARK   14  A    between atoms: C_14  and  C_15
REMARK   15  A    between atoms: C_15  and  C_16
REMARK   16  A    between atoms: C_16  and  C_17
REMARK   17  A    between atoms: C_17  and  C_18
REMARK   18  A    between atoms: C_18  and  C_19
REMARK   19  A    between atoms: C_19  and  C_20
REMARK   20  A    between atoms: C_20  and  C_21
REMARK   21  A    between atoms: C_21  and  C_22
REMARK   22  A    between atoms: C_22  and  O_23
REMARK                            x       y       z     vdW  Elec       q    Type
REMARK                         _______ _______ _______ _____ _____    ______ ____
ROOT
ATOM      1  C   UNL     1      10.410   1.971  23.774  0.00  0.00    -0.000 C 
ENDROOT
BRANCH   1   2
ATOM      2  C   UNL     1      10.758   0.536  24.143  0.00  0.00    -0.000 C 
BRANCH   2   3
ATOM      3  C   UNL     1       9.862   0.045  25.273  0.00  0.00    -0.000 C 
BRANCH   3   4
ATOM      4  C   UNL     1       9.089  -1.193  24.839  0.00  0.00    -0.000 C 
BRANCH   4   5
ATOM      5  C   UNL     1       9.837  -1.933  23.738  0.00  0.00    -0.000 C 
BRANCH   5   6
ATOM      6  C   UNL     1       8.904  -2.248  22.576  0.00  0.00    +0.000 C 
BRANCH   6   7
ATOM      7  C   UNL     1       7.563  -2.759  23.088  0.00  0.00    +0.000 C 
BRANCH   7   8
ATOM      8  C   UNL     1       7.372  -4.229  22.731  0.00  0.00    +0.000 C 
BRANCH   8   9
ATOM      9  C   UNL     1       7.936  -5.130  23.828  0.00  0.00    +0.002 C 
BRANCH   9  10
ATOM     10  C   UNL     1       7.357  -4.762  25.190  0.00  0.00    +0.028 C 
BRANCH  10  11
ATOM     11  C   UNL     1       8.409  -4.871  26.283  0.00  0.00    +0.156 C 
BRANCH  11  12
ATOM     12  O   UNL     1       8.072  -5.929  27.170  0.00  0.00    -0.395 OA
ATOM     13  H   UNL     1       7.676  -6.640  26.639  0.00  0.00    +0.209 HD
ENDBRANCH  11  12
ENDBRANCH  10  11
ENDBRANCH   9  10
ENDBRANCH   8   9
ENDBRANCH   7   8
ENDBRANCH   6   7
ENDBRANCH   5   6
ENDBRANCH   4   5
ENDBRANCH   3   4
ENDBRANCH   2   3
ENDBRANCH   1   2
BRANCH   1  14
ATOM     14  C   UNL     1      10.348   2.131  22.261  0.00  0.00    -0.000 C 
BRANCH  14  15
ATOM     15  C   UNL     1       9.334   1.165  21.665  0.00  0.00    -0.000 C 
BRANCH  15  16
ATOM     16  C   UNL     1       7.938   1.772  21.696  0.00  0.00    -0.000 C 
BRANCH  16  17
ATOM     17  C   UNL     1       7.004   0.917  22.542  0.00  0.00    -0.000 C 
BRANCH  17  18
ATOM     18  C   UNL     1       6.497   1.705  23.741  0.00  0.00    -0.000 C 
BRANCH  18  19
ATOM     19  C   UNL     1       6.970   3.153  23.672  0.00  0.00    -0.000 C 
BRANCH  19  20
ATOM     20  C   UNL     1       5.784   4.109  23.692  0.00  0.00    -0.000 C 
BRANCH  20  21
ATOM     21  C   UNL     1       6.031   5.302  22.775  0.00  0.00    -0.000 C 
BRANCH  21  22
ATOM     22  C   UNL     1       7.499   5.377  22.368  0.00  0.00    -0.000 C 
BRANCH  22  24
ATOM     23  C   UNL     1       9.593   6.238  23.456  0.00  0.00    +0.004 C 
ATOM     24  C   UNL     1       8.186   6.583  23.002  0.00  0.00    -0.003 C 
ENDBRANCH  22  24
ENDBRANCH  21  22
ENDBRANCH  20  21
ENDBRANCH  19  20
ENDBRANCH  18  19
ENDBRANCH  17  18
ENDBRANCH  16  17
ENDBRANCH  15  16
ENDBRANCH  14  15
ENDBRANCH   1  14
TORSDOF 21
ENDMDL
MODEL 5
REMARK VINA RESULT:      -4.6      3.203      7.906
REMARK  Name = 
REMARK  22 active torsions:
REMARK  status: ('A' for Active; 'I' for Inactive)
REMARK    1  A    between atoms: C_1  and  C_2
REMARK    2  A    between atoms: C_2  and  C_3
REMARK    3  A    between atoms: C_3  and  C_4
REMARK    4  A    between atoms: C_4  and  C_5
REMARK    5  A    between atoms: C_5  and  C_6
REMARK    6  A    between atoms: C_6  and  C_7
REMARK    7  A    between atoms: C_7  and  C_8
REMARK    8  A    between atoms: C_8  and  C_9
REMARK    9  A    between atoms: C_9  and  C_10
REMARK   10  A    between atoms: C_10  and  C_11
REMARK   11  A    between atoms: C_11  and  C_12
REMARK   12  A    between atoms: C_12  and  C_13
REMARK   13  A    between atoms: C_13  and  C_14
REMARK   14  A    between atoms: C_14  and  C_15
REMARK   15  A    between atoms: C_15  and  C_16
REMARK   16  A    between atoms: C_16  and  C_17
REMARK   17  A    between atoms: C_17  and  C_18
REMARK   18  A    between atoms: C_18  and  C_19
REMARK   19  A    between atoms: C_19  and  C_20
REMARK   20  A    between atoms: C_20  and  C_21
REMARK   21  A    between atoms: C_21  and  C_22
REMARK   22  A    between atoms: C_22  and  O_23
REMARK                            x       y       z     vdW  Elec       q    Type
REMARK                         _______ _______ _______ _____ _____    ______ ____
ROOT
ATOM      1  C   UNL     1       7.390  -3.775  22.633  0.00  0.00    -0.000 C 
ENDROOT
BRANCH   1   2
ATOM      2  C   UNL     1       6.972  -5.007  21.842  0.00  0.00    -0.000 C 
BRANCH   2   3
ATOM      3  C   UNL     1       6.227  -5.987  22.739  0.00  0.00    -0.000 C 
BRANCH   3   4
ATOM      4  C   UNL     1       4.725  -5.758  22.645  0.00  0.00    -0.000 C 
BRANCH   4   5
ATOM      5  C   UNL     1       4.160  -5.355  24.001  0.00  0.00    -0.000 C 
BRANCH   5   6
ATOM      6  C   UNL     1       5.087  -5.805  25.122  0.00  0.00    +0.000 C 
BRANCH   6   7
ATOM      7  C   UNL     1       5.030  -4.827  26.290  0.00  0.00    +0.000 C 
BRANCH   7   8
ATOM      8  C   UNL     1       6.401  -4.209  26.545  0.00  0.00    +0.000 C 
BRANCH   8   9
ATOM      9  C   UNL     1       7.513  -5.175  26.143  0.00  0.00    +0.002 C 
BRANCH   9  10
ATOM     10  C   UNL     1       8.883  -4.618  26.513  0.00  0.00    +0.028 C 
BRANCH  10  11
ATOM     11  C   UNL     1       9.835  -4.662  25.327  0.00  0.00    +0.156 C 
BRANCH  11  12
ATOM     12  O   UNL     1       9.541  -5.793  24.518  0.00  0.00    -0.395 OA
ATOM     13  H   UNL     1      10.175  -5.797  23.782  0.00  0.00    +0.209 HD
ENDBRANCH  11  12
ENDBRANCH  10  11
ENDBRANCH   9  10
ENDBRANCH   8   9
ENDBRANCH   7   8
ENDBRANCH   6   7
ENDBRANCH   5   6
ENDBRANCH   4   5
ENDBRANCH   3   4
ENDBRANCH   2   3
ENDBRANCH   1   2
BRANCH   1  14
ATOM     14  C   UNL     1       6.451  -2.612  22.340  0.00  0.00    -0.000 C 
BRANCH  14  15
ATOM     15  C   UNL     1       6.438  -1.633  23.505  0.00  0.00    -0.000 C 
BRANCH  15  16
ATOM     16  C   UNL     1       7.765  -1.673  24.250  0.00  0.00    -0.000 C 
BRANCH  16  17
ATOM     17  C   UNL     1       7.717  -0.769  25.475  0.00  0.00    -0.000 C 
BRANCH  17  18
ATOM     18  C   UNL     1       9.098  -0.209  25.781  0.00  0.00    -0.000 C 
BRANCH  18  19
ATOM     19  C   UNL     1      10.071  -0.532  24.653  0.00  0.00    -0.000 C 
BRANCH  19  20
ATOM     20  C   UNL     1      10.916   0.686  24.305  0.00  0.00    -0.000 C 
BRANCH  20  21
ATOM     21  C   UNL     1      10.059   1.783  23.683  0.00  0.00    -0.000 C 
BRANCH  21  22
ATOM     22  C   UNL     1      10.091   1.698  22.160  0.00  0.00    -0.000 C 
BRANCH  22  24
ATOM     23  C   UNL     1       7.603   1.752  21.821  0.00  0.00    +0.004 C 
ATOM     24  C   UNL     1       8.876   0.947  21.624  0.00  0.00    -0.003 C 
ENDBRANCH  22  24
ENDBRANCH  21  22
ENDBRANCH  20  21
ENDBRANCH  19  20
ENDBRANCH  18  19
ENDBRANCH  17  18
ENDBRANCH  16  17
ENDBRANCH  15  16
ENDBRANCH  14  15
ENDBRANCH   1  14
TORSDOF 21
ENDMDL
MODEL 6
REMARK VINA RESULT:      -4.5      3.251      8.245
REMARK  Name = 
REMARK  22 active torsions:
REMARK  status: ('A' for Active; 'I' for Inactive)
REMARK    1  A    between atoms: C_1  and  C_2
REMARK    2  A    between atoms: C_2  and  C_3
REMARK    3  A    between atoms: C_3  and  C_4
REMARK    4  A    between atoms: C_4  and  C_5
REMARK    5  A    between atoms: C_5  and  C_6
REMARK    6  A    between atoms: C_6  and  C_7
REMARK    7  A    between atoms: C_7  and  C_8
REMARK    8  A    between atoms: C_8  and  C_9
REMARK    9  A    between atoms: C_9  and  C_10
REMARK   10  A    between atoms: C_10  and  C_11
REMARK   11  A    between atoms: C_11  and  C_12
REMARK   12  A    between atoms: C_12  and  C_13
REMARK   13  A    between atoms: C_13  and  C_14
REMARK   14  A    between atoms: C_14  and  C_15
REMARK   15  A    between atoms: C_15  and  C_16
REMARK   16  A    between atoms: C_16  and  C_17
REMARK   17  A    between atoms: C_17  and  C_18
REMARK   18  A    between atoms: C_18  and  C_19
REMARK   19  A    between atoms: C_19  and  C_20
REMARK   20  A    between atoms: C_20  and  C_21
REMARK   21  A    between atoms: C_21  and  C_22
REMARK   22  A    between atoms: C_22  and  O_23
REMARK                            x       y       z     vdW  Elec       q    Type
REMARK                         _______ _______ _______ _____ _____    ______ ____
ROOT
ATOM      1  C   UNL     1      10.340   2.234  22.624  0.00  0.00    -0.000 C 
ENDROOT
BRANCH   1   2
ATOM      2  C   UNL     1      10.620   1.892  24.081  0.00  0.00    -0.000 C 
BRANCH   2   3
ATOM      3  C   UNL     1      10.790   0.388  24.251  0.00  0.00    -0.000 C 
BRANCH   3   4
ATOM      4  C   UNL     1       9.686  -0.175  25.137  0.00  0.00    -0.000 C 
BRANCH   4   5
ATOM      5  C   UNL     1       9.380  -1.618  24.756  0.00  0.00    -0.000 C 
BRANCH   5   6
ATOM      6  C   UNL     1       8.036  -1.711  24.046  0.00  0.00    +0.000 C 
BRANCH   6   7
ATOM      7  C   UNL     1       8.218  -2.203  22.615  0.00  0.00    +0.000 C 
BRANCH   7   8
ATOM      8  C   UNL     1       7.238  -3.328  22.302  0.00  0.00    +0.000 C 
BRANCH   8   9
ATOM      9  C   UNL     1       7.590  -4.587  23.091  0.00  0.00    +0.002 C 
BRANCH   9  10
ATOM     10  C   UNL     1       7.331  -5.842  22.266  0.00  0.00    +0.028 C 
BRANCH  10  11
ATOM     11  C   UNL     1       6.183  -5.633  21.289  0.00  0.00    +0.156 C 
BRANCH  11  12
ATOM     12  O   UNL     1       4.963  -6.049  21.886  0.00  0.00    -0.395 OA
ATOM     13  H   UNL     1       4.643  -5.317  22.438  0.00  0.00    +0.209 HD
ENDBRANCH  11  12
ENDBRANCH  10  11
ENDBRANCH   9  10
ENDBRANCH   8   9
ENDBRANCH   7   8
ENDBRANCH   6   7
ENDBRANCH   5   6
ENDBRANCH   4   5
ENDBRANCH   3   4
ENDBRANCH   2   3
ENDBRANCH   1   2
BRANCH   1  14
ATOM     14  C   UNL     1       9.814   1.012  21.883  0.00  0.00    -0.000 C 
BRANCH  14  15
ATOM     15  C   UNL     1       8.543   1.358  21.121  0.00  0.00    -0.000 C 
BRANCH  15  16
ATOM     16  C   UNL     1       7.688   2.328  21.924  0.00  0.00    -0.000 C 
BRANCH  16  17
ATOM     17  C   UNL     1       6.867   1.580  22.965  0.00  0.00    -0.000 C 
BRANCH  17  18
ATOM     18  C   UNL     1       6.983   2.255  24.324  0.00  0.00    -0.000 C 
BRANCH  18  19
ATOM     19  C   UNL     1       7.071   3.769  24.166  0.00  0.00    -0.000 C 
BRANCH  19  20
ATOM     20  C   UNL     1       8.170   4.340  25.052  0.00  0.00    -0.000 C 
BRANCH  20  21
ATOM     21  C   UNL     1       8.531   5.759  24.625  0.00  0.00    -0.000 C 
BRANCH  21  22
ATOM     22  C   UNL     1       9.660   5.746  23.600  0.00  0.00    -0.000 C 
BRANCH  22  24
ATOM     23  C   UNL     1      12.154   5.550  23.372  0.00  0.00    +0.004 C 
ATOM     24  C   UNL     1      11.010   5.999  24.265  0.00  0.00    -0.003 C 
ENDBRANCH  22  24
ENDBRANCH  21  22
ENDBRANCH  20  21
ENDBRANCH  19  20
ENDBRANCH  18  19
ENDBRANCH  17  18
ENDBRANCH  16  17
ENDBRANCH  15  16
ENDBRANCH  14  15
ENDBRANCH   1  14
TORSDOF 21
ENDMDL
MODEL 7
REMARK VINA RESULT:      -4.5      3.282      8.389
REMARK  Name = 
REMARK  22 active torsions:
REMARK  status: ('A' for Active; 'I' for Inactive)
REMARK    1  A    between atoms: C_1  and  C_2
REMARK    2  A    between atoms: C_2  and  C_3
REMARK    3  A    between atoms: C_3  and  C_4
REMARK    4  A    between atoms: C_4  and  C_5
REMARK    5  A    between atoms: C_5  and  C_6
REMARK    6  A    between atoms: C_6  and  C_7
REMARK    7  A    between atoms: C_7  and  C_8
REMARK    8  A    between atoms: C_8  and  C_9
REMARK    9  A    between atoms: C_9  and  C_10
REMARK   10  A    between atoms: C_10  and  C_11
REMARK   11  A    between atoms: C_11  and  C_12
REMARK   12  A    between atoms: C_12  and  C_13
REMARK   13  A    between atoms: C_13  and  C_14
REMARK   14  A    between atoms: C_14  and  C_15
REMARK   15  A    between atoms: C_15  and  C_16
REMARK   16  A    between atoms: C_16  and  C_17
REMARK   17  A    between atoms: C_17  and  C_18
REMARK   18  A    between atoms: C_18  and  C_19
REMARK   19  A    between atoms: C_19  and  C_20
REMARK   20  A    between atoms: C_20  and  C_21
REMARK   21  A    between atoms: C_21  and  C_22
REMARK   22  A    between atoms: C_22  and  O_23
REMARK                            x       y       z     vdW  Elec       q    Type
REMARK                         _______ _______ _______ _____ _____    ______ ____
ROOT
ATOM      1  C   UNL     1       6.040  -1.869  23.836  0.00  0.00    -0.000 C 
ENDROOT
BRANCH   1   2
ATOM      2  C   UNL     1       6.776  -2.447  22.635  0.00  0.00    -0.000 C 
BRANCH   2   3
ATOM      3  C   UNL     1       8.021  -3.199  23.085  0.00  0.00    -0.000 C 
BRANCH   3   4
ATOM      4  C   UNL     1       7.720  -4.683  23.240  0.00  0.00    -0.000 C 
BRANCH   4   5
ATOM      5  C   UNL     1       7.148  -5.250  21.947  0.00  0.00    -0.000 C 
BRANCH   5   6
ATOM      6  C   UNL     1       6.039  -6.250  22.246  0.00  0.00    +0.000 C 
BRANCH   6   7
ATOM      7  C   UNL     1       4.958  -5.611  23.109  0.00  0.00    +0.000 C 
BRANCH   7   8
ATOM      8  C   UNL     1       4.729  -6.423  24.379  0.00  0.00    +0.000 C 
BRANCH   8   9
ATOM      9  C   UNL     1       4.669  -5.510  25.602  0.00  0.00    +0.002 C 
BRANCH   9  10
ATOM     10  C   UNL     1       5.575  -6.025  26.715  0.00  0.00    +0.028 C 
BRANCH  10  11
ATOM     11  C   UNL     1       6.900  -5.278  26.737  0.00  0.00    +0.156 C 
BRANCH  11  12
ATOM     12  O   UNL     1       7.807  -5.937  27.609  0.00  0.00    -0.395 OA
ATOM     13  H   UNL     1       8.389  -5.259  27.991  0.00  0.00    +0.209 HD
ENDBRANCH  11  12
ENDBRANCH  10  11
ENDBRANCH   9  10
ENDBRANCH   8   9
ENDBRANCH   7   8
ENDBRANCH   6   7
ENDBRANCH   5   6
ENDBRANCH   4   5
ENDBRANCH   3   4
ENDBRANCH   2   3
ENDBRANCH   1   2
BRANCH   1  14
ATOM     14  C   UNL     1       6.522  -0.453  24.123  0.00  0.00    -0.000 C 
BRANCH  14  15
ATOM     15  C   UNL     1       7.091  -0.360  25.532  0.00  0.00    -0.000 C 
BRANCH  15  16
ATOM     16  C   UNL     1       8.304   0.559  25.557  0.00  0.00    -0.000 C 
BRANCH  16  17
ATOM     17  C   UNL     1       9.584  -0.242  25.354  0.00  0.00    -0.000 C 
BRANCH  17  18
ATOM     18  C   UNL     1      10.396   0.331  24.201  0.00  0.00    -0.000 C 
BRANCH  18  19
ATOM     19  C   UNL     1      10.442  -0.650  23.036  0.00  0.00    -0.000 C 
BRANCH  19  20
ATOM     20  C   UNL     1       9.711  -0.084  21.826  0.00  0.00    -0.000 C 
BRANCH  20  21
ATOM     21  C   UNL     1       9.624   1.437  21.905  0.00  0.00    -0.000 C 
BRANCH  21  22
ATOM     22  C   UNL     1       8.214   1.916  21.578  0.00  0.00    -0.000 C 
BRANCH  22  24
ATOM     23  C   UNL     1       8.705   3.626  23.352  0.00  0.00    +0.004 C 
ATOM     24  C   UNL     1       7.637   2.752  22.717  0.00  0.00    -0.003 C 
ENDBRANCH  22  24
ENDBRANCH  21  22
ENDBRANCH  20  21
ENDBRANCH  19  20
ENDBRANCH  18  19
ENDBRANCH  17  18
ENDBRANCH  16  17
ENDBRANCH  15  16
ENDBRANCH  14  15
ENDBRANCH   1  14
TORSDOF 21
ENDMDL
MODEL 8
REMARK VINA RESULT:      -4.5      3.053      7.733
REMARK  Name = 
REMARK  22 active torsions:
REMARK  status: ('A' for Active; 'I' for Inactive)
REMARK    1  A    between atoms: C_1  and  C_2
REMARK    2  A    between atoms: C_2  and  C_3
REMARK    3  A    between atoms: C_3  and  C_4
REMARK    4  A    between atoms: C_4  and  C_5
REMARK    5  A    between atoms: C_5  and  C_6
REMARK    6  A    between atoms: C_6  and  C_7
REMARK    7  A    between atoms: C_7  and  C_8
REMARK    8  A    between atoms: C_8  and  C_9
REMARK    9  A    between atoms: C_9  and  C_10
REMARK   10  A    between atoms: C_10  and  C_11
REMARK   11  A    between atoms: C_11  and  C_12
REMARK   12  A    between atoms: C_12  and  C_13
REMARK   13  A    between atoms: C_13  and  C_14
REMARK   14  A    between atoms: C_14  and  C_15
REMARK   15  A    between atoms: C_15  and  C_16
REMARK   16  A    between atoms: C_16  and  C_17
REMARK   17  A    between atoms: C_17  and  C_18
REMARK   18  A    between atoms: C_18  and  C_19
REMARK   19  A    between atoms: C_19  and  C_20
REMARK   20  A    between atoms: C_20  and  C_21
REMARK   21  A    between atoms: C_21  and  C_22
REMARK   22  A    between atoms: C_22  and  O_23
REMARK                            x       y       z     vdW  Elec       q    Type
REMARK                         _______ _______ _______ _____ _____    ______ ____
ROOT
ATOM      1  C   UNL     1       7.788  -2.023  22.514  0.00  0.00    -0.000 C 
ENDROOT
BRANCH   1   2
ATOM      2  C   UNL     1       6.671  -3.029  22.273  0.00  0.00    -0.000 C 
BRANCH   2   3
ATOM      3  C   UNL     1       7.227  -4.447  22.256  0.00  0.00    -0.000 C 
BRANCH   3   4
ATOM      4  C   UNL     1       6.156  -5.433  21.808  0.00  0.00    -0.000 C 
BRANCH   4   5
ATOM      5  C   UNL     1       4.946  -5.364  22.731  0.00  0.00    -0.000 C 
BRANCH   5   6
ATOM      6  C   UNL     1       5.211  -6.133  24.018  0.00  0.00    +0.000 C 
BRANCH   6   7
ATOM      7  C   UNL     1       5.215  -5.189  25.215  0.00  0.00    +0.000 C 
BRANCH   7   8
ATOM      8  C   UNL     1       6.399  -5.482  26.130  0.00  0.00    +0.000 C 
BRANCH   8   9
ATOM      9  C   UNL     1       7.182  -4.205  26.427  0.00  0.00    +0.002 C 
BRANCH   9  10
ATOM     10  C   UNL     1       8.674  -4.494  26.554  0.00  0.00    +0.028 C 
BRANCH  10  11
ATOM     11  C   UNL     1       9.139  -5.474  25.488  0.00  0.00    +0.156 C 
BRANCH  11  12
ATOM     12  O   UNL     1      10.559  -5.487  25.435  0.00  0.00    -0.395 OA
ATOM     13  H   UNL     1      10.817  -5.976  24.636  0.00  0.00    +0.209 HD
ENDBRANCH  11  12
ENDBRANCH  10  11
ENDBRANCH   9  10
ENDBRANCH   8   9
ENDBRANCH   7   8
ENDBRANCH   6   7
ENDBRANCH   5   6
ENDBRANCH   4   5
ENDBRANCH   3   4
ENDBRANCH   2   3
ENDBRANCH   1   2
BRANCH   1  14
ATOM     14  C   UNL     1       8.906  -2.657  23.331  0.00  0.00    -0.000 C 
BRANCH  14  15
ATOM     15  C   UNL     1       9.584  -1.611  24.205  0.00  0.00    -0.000 C 
BRANCH  15  16
ATOM     16  C   UNL     1      10.348  -0.613  23.347  0.00  0.00    -0.000 C 
BRANCH  16  17
ATOM     17  C   UNL     1      10.670   0.642  24.146  0.00  0.00    -0.000 C 
BRANCH  17  18
ATOM     18  C   UNL     1      10.220   1.886  23.394  0.00  0.00    -0.000 C 
BRANCH  18  19
ATOM     19  C   UNL     1       9.960   1.562  21.927  0.00  0.00    -0.000 C 
BRANCH  19  20
ATOM     20  C   UNL     1       8.473   1.654  21.610  0.00  0.00    -0.000 C 
BRANCH  20  21
ATOM     21  C   UNL     1       7.757   2.547  22.617  0.00  0.00    -0.000 C 
BRANCH  21  22
ATOM     22  C   UNL     1       6.352   2.026  22.900  0.00  0.00    -0.000 C 
BRANCH  22  24
ATOM     23  C   UNL     1       7.106   1.393  25.211  0.00  0.00    +0.004 C 
ATOM     24  C   UNL     1       6.374   0.931  23.963  0.00  0.00    -0.003 C 
ENDBRANCH  22  24
ENDBRANCH  21  22
ENDBRANCH  20  21
ENDBRANCH  19  20
ENDBRANCH  18  19
ENDBRANCH  17  18
ENDBRANCH  16  17
ENDBRANCH  15  16
ENDBRANCH  14  15
ENDBRANCH   1  14
TORSDOF 21
ENDMDL
MODEL 9
REMARK VINA RESULT:      -4.5      2.546      5.167
REMARK  Name = 
REMARK  22 active torsions:
REMARK  status: ('A' for Active; 'I' for Inactive)
REMARK    1  A    between atoms: C_1  and  C_2
REMARK    2  A    between atoms: C_2  and  C_3
REMARK    3  A    between atoms: C_3  and  C_4
REMARK    4  A    between atoms: C_4  and  C_5
REMARK    5  A    between atoms: C_5  and  C_6
REMARK    6  A    between atoms: C_6  and  C_7
REMARK    7  A    between atoms: C_7  and  C_8
REMARK    8  A    between atoms: C_8  and  C_9
REMARK    9  A    between atoms: C_9  and  C_10
REMARK   10  A    between atoms: C_10  and  C_11
REMARK   11  A    between atoms: C_11  and  C_12
REMARK   12  A    between atoms: C_12  and  C_13
REMARK   13  A    between atoms: C_13  and  C_14
REMARK   14  A    between atoms: C_14  and  C_15
REMARK   15  A    between atoms: C_15  and  C_16
REMARK   16  A    between atoms: C_16  and  C_17
REMARK   17  A    between atoms: C_17  and  C_18
REMARK   18  A    between atoms: C_18  and  C_19
REMARK   19  A    between atoms: C_19  and  C_20
REMARK   20  A    between atoms: C_20  and  C_21
REMARK   21  A    between atoms: C_21  and  C_22
REMARK   22  A    between atoms: C_22  and  O_23
REMARK                            x       y       z     vdW  Elec       q    Type
REMARK                         _______ _______ _______ _____ _____    ______ ____
ROOT
ATOM      1  C   UNL     1       6.487  -1.603  23.154  0.00  0.00    -0.000 C 
ENDROOT
BRANCH   1   2
ATOM      2  C   UNL     1       6.552  -2.148  24.574  0.00  0.00    -0.000 C 
BRANCH   2   3
ATOM      3  C   UNL     1       7.393  -1.234  25.456  0.00  0.00    -0.000 C 
BRANCH   3   4
ATOM      4  C   UNL     1       8.874  -1.426  25.161  0.00  0.00    -0.000 C 
BRANCH   4   5
ATOM      5  C   UNL     1       9.596  -0.085  25.154  0.00  0.00    -0.000 C 
BRANCH   5   6
ATOM      6  C   UNL     1      10.526   0.017  23.952  0.00  0.00    +0.000 C 
BRANCH   6   7
ATOM      7  C   UNL     1      10.193  -1.058  22.925  0.00  0.00    +0.000 C 
BRANCH   7   8
ATOM      8  C   UNL     1       9.663  -0.432  21.639  0.00  0.00    +0.000 C 
BRANCH   8   9
ATOM      9  C   UNL     1       9.635   1.090  21.751  0.00  0.00    +0.002 C 
BRANCH   9  10
ATOM     10  C   UNL     1       8.220   1.627  21.569  0.00  0.00    +0.028 C 
BRANCH  10  11
ATOM     11  C   UNL     1       7.873   2.645  22.645  0.00  0.00    +0.156 C 
BRANCH  11  12
ATOM     12  O   UNL     1       8.069   3.960  22.144  0.00  0.00    -0.395 OA
ATOM     13  H   UNL     1       8.966   3.999  21.771  0.00  0.00    +0.209 HD
ENDBRANCH  11  12
ENDBRANCH  10  11
ENDBRANCH   9  10
ENDBRANCH   8   9
ENDBRANCH   7   8
ENDBRANCH   6   7
ENDBRANCH   5   6
ENDBRANCH   4   5
ENDBRANCH   3   4
ENDBRANCH   2   3
ENDBRANCH   1   2
BRANCH   1  14
ATOM     14  C   UNL     1       6.568  -2.741  22.145  0.00  0.00    -0.000 C 
BRANCH  14  15
ATOM     15  C   UNL     1       7.607  -3.766  22.580  0.00  0.00    -0.000 C 
BRANCH  15  16
ATOM     16  C   UNL     1       7.213  -5.157  22.106  0.00  0.00    -0.000 C 
BRANCH  16  17
ATOM     17  C   UNL     1       5.698  -5.319  22.125  0.00  0.00    -0.000 C 
BRANCH  17  18
ATOM     18  C   UNL     1       5.269  -6.198  23.291  0.00  0.00    -0.000 C 
BRANCH  18  19
ATOM     19  C   UNL     1       4.726  -5.347  24.434  0.00  0.00    -0.000 C 
BRANCH  19  20
ATOM     20  C   UNL     1       4.337  -6.222  25.619  0.00  0.00    -0.000 C 
BRANCH  20  21
ATOM     21  C   UNL     1       5.462  -6.275  26.648  0.00  0.00    -0.000 C 
BRANCH  21  22
ATOM     22  C   UNL     1       6.271  -4.982  26.633  0.00  0.00    -0.000 C 
BRANCH  22  24
ATOM     23  C   UNL     1       8.592  -5.213  25.701  0.00  0.00    +0.004 C 
ATOM     24  C   UNL     1       7.738  -5.246  26.957  0.00  0.00    -0.003 C 
ENDBRANCH  22  24
ENDBRANCH  21  22
ENDBRANCH  20  21
ENDBRANCH  19  20
ENDBRANCH  18  19
ENDBRANCH  17  18
ENDBRANCH  16  17
ENDBRANCH  15  16
ENDBRANCH  14  15
ENDBRANCH   1  14
TORSDOF 21
ENDMDL
