MODEL 1
REMARK VINA RESULT:      -6.3      0.000      0.000
REMARK  Name = 
REMARK  14 active torsions:
REMARK  status: ('A' for Active; 'I' for Inactive)
REMARK    1  A    between atoms: C_2  and  C_3
REMARK    2  A    between atoms: C_2  and  N_11
REMARK    3  A    between atoms: C_2  and  C_24
REMARK    4  A    between atoms: C_3  and  C_4
REMARK    5  A    between atoms: C_12  and  C_14
REMARK    6  A    between atoms: C_14  and  C_15
REMARK    7  A    between atoms: C_15  and  C_16
REMARK    8  A    between atoms: C_16  and  C_17
REMARK    9  A    between atoms: C_17  and  C_18
REMARK   10  A    between atoms: C_18  and  C_19
REMARK   11  A    between atoms: C_19  and  C_20
REMARK   12  A    between atoms: N_22  and  O_23
REMARK   13  A    between atoms: C_24  and  O_26
REMARK   14  A    between atoms: O_26  and  C_27
REMARK                            x       y       z     vdW  Elec       q    Type
REMARK                         _______ _______ _______ _____ _____    ______ ____
ROOT
ATOM      1  N   UNL     1       7.718  -1.932  24.506  0.00  0.00    -0.302 N 
ATOM      2  H   UNL     1       7.830  -2.704  25.157  0.00  0.00    +0.150 HD
ATOM      3  C   UNL     1       6.498  -1.664  23.941  0.00  0.00    +0.214 C 
ATOM      4  O   UNL     1       6.348  -0.816  23.066  0.00  0.00    -0.276 OA
ENDROOT
BRANCH   1   5
ATOM      5  C   UNL     1       8.935  -1.259  24.043  0.00  0.00    +0.186 C 
BRANCH   5   6
ATOM      6  C   UNL     1       9.948  -2.304  23.563  0.00  0.00    +0.328 C 
ATOM      7  O   UNL     1      10.116  -3.396  24.096  0.00  0.00    -0.249 OA
BRANCH   6   8
ATOM      8  O   UNL     1      10.588  -1.876  22.437  0.00  0.00    -0.467 OA
ATOM      9  C   UNL     1       9.792  -1.056  21.581  0.00  0.00    +0.280 C 
ENDBRANCH   6   8
ENDBRANCH   5   6
BRANCH   5  10
ATOM     10  C   UNL     1       9.543  -0.306  25.088  0.00  0.00    +0.069 C 
BRANCH  10  11
ATOM     11  C   UNL     1       9.517   1.159  24.714  0.00  0.00    -0.045 A 
ATOM     12  C   UNL     1      10.547   1.719  23.943  0.00  0.00    +0.005 A 
ATOM     13  C   UNL     1      10.532   3.076  23.616  0.00  0.00    +0.015 A 
ATOM     14  C   UNL     1       9.482   3.881  24.058  0.00  0.00    +0.018 A 
ATOM     15 BR   UNL     1       9.466   5.722  23.639  0.00  0.00    -0.050 Br
ATOM     16  C   UNL     1       8.450   3.339  24.820  0.00  0.00    +0.015 A 
ATOM     17  C   UNL     1       8.468   1.982  25.147  0.00  0.00    +0.005 A 
ENDBRANCH  10  11
ENDBRANCH   5  10
ENDBRANCH   1   5
BRANCH   3  18
ATOM     18  C   UNL     1       5.349  -2.455  24.528  0.00  0.00    +0.096 C 
BRANCH  18  19
ATOM     19  C   UNL     1       4.990  -3.619  23.608  0.00  0.00    +0.009 C 
BRANCH  19  20
ATOM     20  C   UNL     1       5.665  -4.920  24.028  0.00  0.00    +0.000 C 
BRANCH  20  21
ATOM     21  C   UNL     1       4.995  -5.493  25.279  0.00  0.00    +0.000 C 
BRANCH  21  22
ATOM     22  C   UNL     1       6.035  -5.948  26.298  0.00  0.00    +0.009 C 
BRANCH  22  23
ATOM     23  C   UNL     1       6.666  -4.765  27.027  0.00  0.00    +0.098 C 
BRANCH  23  24
ATOM     24  C   UNL     1       8.144  -4.647  26.723  0.00  0.00    +0.235 C 
ATOM     25  N   UNL     1       8.673  -5.765  26.123  0.00  0.00    -0.197 N 
ATOM     26  H   UNL     1       8.117  -6.488  25.680  0.00  0.00    +0.182 HD
ATOM     27  O   UNL     1       8.834  -3.664  26.980  0.00  0.00    -0.274 OA
BRANCH  25  28
ATOM     28  O   UNL     1      10.028  -5.668  25.733  0.00  0.00    -0.295 OA
ATOM     29  H   UNL     1      10.047  -4.804  25.262  0.00  0.00    +0.241 HD
ENDBRANCH  25  28
ENDBRANCH  23  24
ENDBRANCH  22  23
ENDBRANCH  21  22
ENDBRANCH  20  21
ENDBRANCH  19  20
ENDBRANCH  18  19
ENDBRANCH   3  18
TORSDOF 13
ENDMDL
MODEL 2
REMARK VINA RESULT:      -5.9      3.241      7.405
REMARK  Name = 
REMARK  14 active torsions:
REMARK  status: ('A' for Active; 'I' for Inactive)
REMARK    1  A    between atoms: C_2  and  C_3
REMARK    2  A    between atoms: C_2  and  N_11
REMARK    3  A    between atoms: C_2  and  C_24
REMARK    4  A    between atoms: C_3  and  C_4
REMARK    5  A    between atoms: C_12  and  C_14
REMARK    6  A    between atoms: C_14  and  C_15
REMARK    7  A    between atoms: C_15  and  C_16
REMARK    8  A    between atoms: C_16  and  C_17
REMARK    9  A    between atoms: C_17  and  C_18
REMARK   10  A    between atoms: C_18  and  C_19
REMARK   11  A    between atoms: C_19  and  C_20
REMARK   12  A    between atoms: N_22  and  O_23
REMARK   13  A    between atoms: C_24  and  O_26
REMARK   14  A    between atoms: O_26  and  C_27
REMARK                            x       y       z     vdW  Elec       q    Type
REMARK                         _______ _______ _______ _____ _____    ______ ____
ROOT
ATOM      1  N   UNL     1       9.287  -3.043  23.872  0.00  0.00    -0.302 N 
ATOM      2  H   UNL     1      10.110  -3.339  23.355  0.00  0.00    +0.150 HD
ATOM      3  C   UNL     1       9.137  -1.738  24.262  0.00  0.00    +0.214 C 
ATOM      4  O   UNL     1       8.217  -1.368  24.985  0.00  0.00    -0.276 OA
ENDROOT
BRANCH   1   5
ATOM      5  C   UNL     1       8.386  -4.092  24.358  0.00  0.00    +0.186 C 
BRANCH   5   6
ATOM      6  C   UNL     1       9.164  -5.069  25.245  0.00  0.00    +0.328 C 
ATOM      7  O   UNL     1      10.387  -5.172  25.247  0.00  0.00    -0.249 OA
BRANCH   6   8
ATOM      8  O   UNL     1       8.320  -5.759  26.064  0.00  0.00    -0.467 OA
ATOM      9  C   UNL     1       7.548  -4.937  26.942  0.00  0.00    +0.280 C 
ENDBRANCH   6   8
ENDBRANCH   5   6
BRANCH   5  10
ATOM     10  C   UNL     1       7.627  -4.817  23.231  0.00  0.00    +0.069 C 
BRANCH  10  11
ATOM     11  C   UNL     1       6.122  -4.843  23.384  0.00  0.00    -0.045 A 
ATOM     12  C   UNL     1       5.453  -3.807  24.052  0.00  0.00    +0.005 A 
ATOM     13  C   UNL     1       4.067  -3.843  24.210  0.00  0.00    +0.015 A 
ATOM     14  C   UNL     1       3.341  -4.919  23.698  0.00  0.00    +0.018 A 
ATOM     15 BR   UNL     1       1.468  -4.987  23.927  0.00  0.00    -0.050 Br
ATOM     16  C   UNL     1       3.990  -5.953  23.028  0.00  0.00    +0.015 A 
ATOM     17  C   UNL     1       5.377  -5.915  22.872  0.00  0.00    +0.005 A 
ENDBRANCH  10  11
ENDBRANCH   5  10
ENDBRANCH   1   5
BRANCH   3  18
ATOM     18  C   UNL     1      10.160  -0.788  23.679  0.00  0.00    +0.096 C 
BRANCH  18  19
ATOM     19  C   UNL     1      10.458   0.334  24.670  0.00  0.00    +0.009 C 
BRANCH  19  20
ATOM     20  C   UNL     1      10.491   1.704  24.002  0.00  0.00    +0.000 C 
BRANCH  20  21
ATOM     21  C   UNL     1      10.103   1.592  22.526  0.00  0.00    +0.000 C 
BRANCH  21  22
ATOM     22  C   UNL     1       8.903   2.477  22.205  0.00  0.00    +0.009 C 
BRANCH  22  23
ATOM     23  C   UNL     1       7.697   1.653  21.758  0.00  0.00    +0.098 C 
BRANCH  23  24
ATOM     24  C   UNL     1       6.737   1.406  22.901  0.00  0.00    +0.235 C 
ATOM     25  N   UNL     1       6.436   0.078  23.089  0.00  0.00    -0.197 N 
ATOM     26  H   UNL     1       6.979  -0.687  22.704  0.00  0.00    +0.182 HD
ATOM     27  O   UNL     1       6.251   2.285  23.607  0.00  0.00    -0.274 OA
BRANCH  25  28
ATOM     28  O   UNL     1       5.617  -0.213  24.204  0.00  0.00    -0.295 OA
ATOM     29  H   UNL     1       4.716  -0.037  23.850  0.00  0.00    +0.241 HD
ENDBRANCH  25  28
ENDBRANCH  23  24
ENDBRANCH  22  23
ENDBRANCH  21  22
ENDBRANCH  20  21
ENDBRANCH  19  20
ENDBRANCH  18  19
ENDBRANCH   3  18
TORSDOF 13
ENDMDL
MODEL 3
REMARK VINA RESULT:      -5.9      3.568      6.966
REMARK  Name = 
REMARK  14 active torsions:
REMARK  status: ('A' for Active; 'I' for Inactive)
REMARK    1  A    between atoms: C_2  and  C_3
REMARK    2  A    between atoms: C_2  and  N_11
REMARK    3  A    between atoms: C_2  and  C_24
REMARK    4  A    between atoms: C_3  and  C_4
REMARK    5  A    between atoms: C_12  and  C_14
REMARK    6  A    between atoms: C_14  and  C_15
REMARK    7  A    between atoms: C_15  and  C_16
REMARK    8  A    between atoms: C_16  and  C_17
REMARK    9  A    between atoms: C_17  and  C_18
REMARK   10  A    between atoms: C_18  and  C_19
REMARK   11  A    between atoms: C_19  and  C_20
REMARK   12  A    between atoms: N_22  and  O_23
REMARK   13  A    between atoms: C_24  and  O_26
REMARK   14  A    between atoms: O_26  and  C_27
REMARK                            x       y       z     vdW  Elec       q    Type
REMARK                         _______ _______ _______ _____ _____    ______ ____
ROOT
ATOM      1  N   UNL     1       8.170  -1.811  22.292  0.00  0.00    -0.302 N 
ATOM      2  H   UNL     1       7.345  -1.377  21.886  0.00  0.00    +0.150 HD
ATOM      3  C   UNL     1       9.423  -1.329  22.016  0.00  0.00    +0.214 C 
ATOM      4  O   UNL     1      10.445  -1.895  22.393  0.00  0.00    -0.276 OA
ENDROOT
BRANCH   1   5
ATOM      5  C   UNL     1       7.981  -3.079  23.004  0.00  0.00    +0.186 C 
BRANCH   5   6
ATOM      6  C   UNL     1       6.737  -3.791  22.464  0.00  0.00    +0.328 C 
ATOM      7  O   UNL     1       5.693  -3.221  22.165  0.00  0.00    -0.249 OA
BRANCH   6   8
ATOM      8  O   UNL     1       6.971  -5.126  22.310  0.00  0.00    -0.467 OA
ATOM      9  C   UNL     1       6.446  -5.681  21.103  0.00  0.00    +0.280 C 
ENDBRANCH   6   8
ENDBRANCH   5   6
BRANCH   5  10
ATOM     10  C   UNL     1       7.935  -2.920  24.535  0.00  0.00    +0.069 C 
BRANCH  10  11
ATOM     11  C   UNL     1       7.692  -1.510  25.027  0.00  0.00    -0.045 A 
ATOM     12  C   UNL     1       8.752  -0.728  25.509  0.00  0.00    +0.005 A 
ATOM     13  C   UNL     1       8.522   0.565  25.982  0.00  0.00    +0.015 A 
ATOM     14  C   UNL     1       7.227   1.083  25.975  0.00  0.00    +0.018 A 
ATOM     15 BR   UNL     1       6.904   2.823  26.634  0.00  0.00    -0.050 Br
ATOM     16  C   UNL     1       6.165   0.321  25.494  0.00  0.00    +0.015 A 
ATOM     17  C   UNL     1       6.397  -0.973  25.023  0.00  0.00    +0.005 A 
ENDBRANCH  10  11
ENDBRANCH   5  10
ENDBRANCH   1   5
BRANCH   3  18
ATOM     18  C   UNL     1       9.437  -0.017  21.263  0.00  0.00    +0.096 C 
BRANCH  18  19
ATOM     19  C   UNL     1       9.863   1.116  22.193  0.00  0.00    +0.009 C 
BRANCH  19  20
ATOM     20  C   UNL     1       8.850   2.255  22.221  0.00  0.00    +0.000 C 
BRANCH  20  21
ATOM     21  C   UNL     1       9.089   3.158  23.433  0.00  0.00    +0.000 C 
BRANCH  21  22
ATOM     22  C   UNL     1      10.557   3.559  23.537  0.00  0.00    +0.009 C 
BRANCH  22  23
ATOM     23  C   UNL     1      10.717   5.064  23.739  0.00  0.00    +0.098 C 
BRANCH  23  24
ATOM     24  C   UNL     1      12.172   5.455  23.881  0.00  0.00    +0.235 C 
ATOM     25  N   UNL     1      13.014   4.751  23.055  0.00  0.00    -0.197 N 
ATOM     26  H   UNL     1      12.706   4.222  22.247  0.00  0.00    +0.182 HD
ATOM     27  O   UNL     1      12.592   6.311  24.656  0.00  0.00    -0.274 OA
BRANCH  25  28
ATOM     28  O   UNL     1      14.372   5.146  23.083  0.00  0.00    -0.295 OA
ATOM     29  H   UNL     1      14.410   5.698  23.896  0.00  0.00    +0.241 HD
ENDBRANCH  25  28
ENDBRANCH  23  24
ENDBRANCH  22  23
ENDBRANCH  21  22
ENDBRANCH  20  21
ENDBRANCH  19  20
ENDBRANCH  18  19
ENDBRANCH   3  18
TORSDOF 13
ENDMDL
MODEL 4
REMARK VINA RESULT:      -5.8      1.751      2.839
REMARK  Name = 
REMARK  14 active torsions:
REMARK  status: ('A' for Active; 'I' for Inactive)
REMARK    1  A    between atoms: C_2  and  C_3
REMARK    2  A    between atoms: C_2  and  N_11
REMARK    3  A    between atoms: C_2  and  C_24
REMARK    4  A    between atoms: C_3  and  C_4
REMARK    5  A    between atoms: C_12  and  C_14
REMARK    6  A    between atoms: C_14  and  C_15
REMARK    7  A    between atoms: C_15  and  C_16
REMARK    8  A    between atoms: C_16  and  C_17
REMARK    9  A    between atoms: C_17  and  C_18
REMARK   10  A    between atoms: C_18  and  C_19
REMARK   11  A    between atoms: C_19  and  C_20
REMARK   12  A    between atoms: N_22  and  O_23
REMARK   13  A    between atoms: C_24  and  O_26
REMARK   14  A    between atoms: O_26  and  C_27
REMARK                            x       y       z     vdW  Elec       q    Type
REMARK                         _______ _______ _______ _____ _____    ______ ____
ROOT
ATOM      1  N   UNL     1       7.368  -3.412  23.088  0.00  0.00    -0.302 N 
ATOM      2  H   UNL     1       6.468  -3.196  22.668  0.00  0.00    +0.150 HD
ATOM      3  C   UNL     1       7.733  -4.711  23.333  0.00  0.00    +0.214 C 
ATOM      4  O   UNL     1       8.757  -5.004  23.942  0.00  0.00    -0.276 OA
ENDROOT
BRANCH   1   5
ATOM      5  C   UNL     1       8.156  -2.289  23.606  0.00  0.00    +0.186 C 
BRANCH   5   6
ATOM      6  C   UNL     1       7.221  -1.139  23.989  0.00  0.00    +0.328 C 
ATOM      7  O   UNL     1       6.452  -0.587  23.208  0.00  0.00    -0.249 OA
BRANCH   6   8
ATOM      8  O   UNL     1       7.321  -0.855  25.319  0.00  0.00    -0.467 OA
ATOM      9  C   UNL     1       7.057   0.508  25.653  0.00  0.00    +0.280 C 
ENDBRANCH   6   8
ENDBRANCH   5   6
BRANCH   5  10
ATOM     10  C   UNL     1       9.270  -1.831  22.647  0.00  0.00    +0.069 C 
BRANCH  10  11
ATOM     11  C   UNL     1       9.747  -0.410  22.848  0.00  0.00    -0.045 A 
ATOM     12  C   UNL     1       9.550   0.559  21.852  0.00  0.00    +0.005 A 
ATOM     13  C   UNL     1      10.008   1.865  22.030  0.00  0.00    +0.015 A 
ATOM     14  C   UNL     1      10.667   2.210  23.211  0.00  0.00    +0.018 A 
ATOM     15 BR   UNL     1      11.310   3.969  23.452  0.00  0.00    -0.050 Br
ATOM     16  C   UNL     1      10.865   1.261  24.211  0.00  0.00    +0.015 A 
ATOM     17  C   UNL     1      10.407  -0.045  24.029  0.00  0.00    +0.005 A 
ENDBRANCH  10  11
ENDBRANCH   5  10
ENDBRANCH   1   5
BRANCH   3  18
ATOM     18  C   UNL     1       6.802  -5.745  22.738  0.00  0.00    +0.096 C 
BRANCH  18  19
ATOM     19  C   UNL     1       5.359  -5.252  22.807  0.00  0.00    +0.009 C 
BRANCH  19  20
ATOM     20  C   UNL     1       4.480  -6.151  23.670  0.00  0.00    +0.000 C 
BRANCH  20  21
ATOM     21  C   UNL     1       4.417  -5.623  25.105  0.00  0.00    +0.000 C 
BRANCH  21  22
ATOM     22  C   UNL     1       5.175  -6.539  26.060  0.00  0.00    +0.009 C 
BRANCH  22  23
ATOM     23  C   UNL     1       5.695  -5.778  27.278  0.00  0.00    +0.098 C 
BRANCH  23  24
ATOM     24  C   UNL     1       6.966  -5.021  26.961  0.00  0.00    +0.235 C 
ATOM     25  N   UNL     1       8.100  -5.793  27.039  0.00  0.00    -0.197 N 
ATOM     26  H   UNL     1       8.097  -6.807  27.041  0.00  0.00    +0.182 HD
ATOM     27  O   UNL     1       7.014  -3.830  26.664  0.00  0.00    -0.274 OA
BRANCH  25  28
ATOM     28  O   UNL     1       9.303  -5.155  26.660  0.00  0.00    -0.295 OA
ATOM     29  H   UNL     1       9.222  -5.125  25.679  0.00  0.00    +0.241 HD
ENDBRANCH  25  28
ENDBRANCH  23  24
ENDBRANCH  22  23
ENDBRANCH  21  22
ENDBRANCH  20  21
ENDBRANCH  19  20
ENDBRANCH  18  19
ENDBRANCH   3  18
TORSDOF 13
ENDMDL
MODEL 5
REMARK VINA RESULT:      -5.8      1.686      2.292
REMARK  Name = 
REMARK  14 active torsions:
REMARK  status: ('A' for Active; 'I' for Inactive)
REMARK    1  A    between atoms: C_2  and  C_3
REMARK    2  A    between atoms: C_2  and  N_11
REMARK    3  A    between atoms: C_2  and  C_24
REMARK    4  A    between atoms: C_3  and  C_4
REMARK    5  A    between atoms: C_12  and  C_14
REMARK    6  A    between atoms: C_14  and  C_15
REMARK    7  A    between atoms: C_15  and  C_16
REMARK    8  A    between atoms: C_16  and  C_17
REMARK    9  A    between atoms: C_17  and  C_18
REMARK   10  A    between atoms: C_18  and  C_19
REMARK   11  A    between atoms: C_19  and  C_20
REMARK   12  A    between atoms: N_22  and  O_23
REMARK   13  A    between atoms: C_24  and  O_26
REMARK   14  A    between atoms: O_26  and  C_27
REMARK                            x       y       z     vdW  Elec       q    Type
REMARK                         _______ _______ _______ _____ _____    ______ ____
ROOT
ATOM      1  N   UNL     1       7.562  -3.801  22.599  0.00  0.00    -0.302 N 
ATOM      2  H   UNL     1       8.224  -4.535  22.836  0.00  0.00    +0.150 HD
ATOM      3  C   UNL     1       6.442  -4.080  21.859  0.00  0.00    +0.214 C 
ATOM      4  O   UNL     1       5.683  -3.203  21.456  0.00  0.00    -0.276 OA
ENDROOT
BRANCH   1   5
ATOM      5  C   UNL     1       7.954  -2.420  22.896  0.00  0.00    +0.186 C 
BRANCH   5   6
ATOM      6  C   UNL     1       9.481  -2.304  22.880  0.00  0.00    +0.328 C 
ATOM      7  O   UNL     1      10.212  -2.727  23.770  0.00  0.00    -0.249 OA
BRANCH   6   8
ATOM      8  O   UNL     1       9.911  -1.723  21.724  0.00  0.00    -0.467 OA
ATOM      9  C   UNL     1       9.478  -0.374  21.546  0.00  0.00    +0.280 C 
ENDBRANCH   6   8
ENDBRANCH   5   6
BRANCH   5  10
ATOM     10  C   UNL     1       7.349  -1.881  24.206  0.00  0.00    +0.069 C 
BRANCH  10  11
ATOM     11  C   UNL     1       7.399  -0.378  24.366  0.00  0.00    -0.045 A 
ATOM     12  C   UNL     1       6.519   0.447  23.648  0.00  0.00    +0.005 A 
ATOM     13  C   UNL     1       6.580   1.835  23.781  0.00  0.00    +0.015 A 
ATOM     14  C   UNL     1       7.524   2.406  24.636  0.00  0.00    +0.018 A 
ATOM     15 BR   UNL     1       7.628   4.284  24.804  0.00  0.00    -0.050 Br
ATOM     16  C   UNL     1       8.400   1.600  25.359  0.00  0.00    +0.015 A 
ATOM     17  C   UNL     1       8.337   0.212  25.223  0.00  0.00    +0.005 A 
ENDBRANCH  10  11
ENDBRANCH   5  10
ENDBRANCH   1   5
BRANCH   3  18
ATOM     18  C   UNL     1       6.192  -5.555  21.634  0.00  0.00    +0.096 C 
BRANCH  18  19
ATOM     19  C   UNL     1       6.145  -6.289  22.971  0.00  0.00    +0.009 C 
BRANCH  19  20
ATOM     20  C   UNL     1       4.884  -5.966  23.765  0.00  0.00    +0.000 C 
BRANCH  20  21
ATOM     21  C   UNL     1       5.153  -6.076  25.268  0.00  0.00    +0.000 C 
BRANCH  21  22
ATOM     22  C   UNL     1       6.098  -4.975  25.739  0.00  0.00    +0.009 C 
BRANCH  22  23
ATOM     23  C   UNL     1       7.200  -5.525  26.640  0.00  0.00    +0.098 C 
BRANCH  23  24
ATOM     24  C   UNL     1       8.553  -4.955  26.276  0.00  0.00    +0.235 C 
ATOM     25  N   UNL     1       9.320  -5.803  25.514  0.00  0.00    -0.197 N 
ATOM     26  H   UNL     1       8.954  -6.605  25.014  0.00  0.00    +0.182 HD
ATOM     27  O   UNL     1       8.960  -3.847  26.618  0.00  0.00    -0.274 OA
BRANCH  25  28
ATOM     28  O   UNL     1      10.556  -5.280  25.069  0.00  0.00    -0.295 OA
ATOM     29  H   UNL     1      10.850  -5.963  24.425  0.00  0.00    +0.241 HD
ENDBRANCH  25  28
ENDBRANCH  23  24
ENDBRANCH  22  23
ENDBRANCH  21  22
ENDBRANCH  20  21
ENDBRANCH  19  20
ENDBRANCH  18  19
ENDBRANCH   3  18
TORSDOF 13
ENDMDL
MODEL 6
REMARK VINA RESULT:      -5.8      1.777      2.684
REMARK  Name = 
REMARK  14 active torsions:
REMARK  status: ('A' for Active; 'I' for Inactive)
REMARK    1  A    between atoms: C_2  and  C_3
REMARK    2  A    between atoms: C_2  and  N_11
REMARK    3  A    between atoms: C_2  and  C_24
REMARK    4  A    between atoms: C_3  and  C_4
REMARK    5  A    between atoms: C_12  and  C_14
REMARK    6  A    between atoms: C_14  and  C_15
REMARK    7  A    between atoms: C_15  and  C_16
REMARK    8  A    between atoms: C_16  and  C_17
REMARK    9  A    between atoms: C_17  and  C_18
REMARK   10  A    between atoms: C_18  and  C_19
REMARK   11  A    between atoms: C_19  and  C_20
REMARK   12  A    between atoms: N_22  and  O_23
REMARK   13  A    between atoms: C_24  and  O_26
REMARK   14  A    between atoms: O_26  and  C_27
REMARK                            x       y       z     vdW  Elec       q    Type
REMARK                         _______ _______ _______ _____ _____    ______ ____
ROOT
ATOM      1  N   UNL     1       7.532  -2.466  24.768  0.00  0.00    -0.302 N 
ATOM      2  H   UNL     1       7.955  -3.010  25.515  0.00  0.00    +0.150 HD
ATOM      3  C   UNL     1       6.418  -1.702  25.003  0.00  0.00    +0.214 C 
ATOM      4  O   UNL     1       5.813  -1.125  24.105  0.00  0.00    -0.276 OA
ENDROOT
BRANCH   1   5
ATOM      5  C   UNL     1       8.026  -2.693  23.407  0.00  0.00    +0.186 C 
BRANCH   5   6
ATOM      6  C   UNL     1       7.702  -4.127  22.975  0.00  0.00    +0.328 C 
ATOM      7  O   UNL     1       8.319  -5.116  23.356  0.00  0.00    -0.249 OA
BRANCH   6   8
ATOM      8  O   UNL     1       6.607  -4.153  22.163  0.00  0.00    -0.467 OA
ATOM      9  C   UNL     1       6.475  -5.347  21.390  0.00  0.00    +0.280 C 
ENDBRANCH   6   8
ENDBRANCH   5   6
BRANCH   5  10
ATOM     10  C   UNL     1       9.521  -2.364  23.236  0.00  0.00    +0.069 C 
BRANCH  10  11
ATOM     11  C   UNL     1       9.862  -0.891  23.275  0.00  0.00    -0.045 A 
ATOM     12  C   UNL     1      10.301  -0.290  24.465  0.00  0.00    +0.005 A 
ATOM     13  C   UNL     1      10.596   1.073  24.505  0.00  0.00    +0.015 A 
ATOM     14  C   UNL     1      10.454   1.845  23.351  0.00  0.00    +0.018 A 
ATOM     15 BR   UNL     1      10.829   3.695  23.401  0.00  0.00    -0.050 Br
ATOM     16  C   UNL     1      10.025   1.262  22.161  0.00  0.00    +0.015 A 
ATOM     17  C   UNL     1       9.729  -0.102  22.124  0.00  0.00    +0.005 A 
ENDBRANCH  10  11
ENDBRANCH   5  10
ENDBRANCH   1   5
BRANCH   3  18
ATOM     18  C   UNL     1       6.038  -1.582  26.463  0.00  0.00    +0.096 C 
BRANCH  18  19
ATOM     19  C   UNL     1       4.637  -2.144  26.688  0.00  0.00    +0.009 C 
BRANCH  19  20
ATOM     20  C   UNL     1       4.516  -2.889  28.012  0.00  0.00    +0.000 C 
BRANCH  20  21
ATOM     21  C   UNL     1       4.600  -4.400  27.787  0.00  0.00    +0.000 C 
BRANCH  21  22
ATOM     22  C   UNL     1       5.999  -4.924  28.100  0.00  0.00    +0.009 C 
BRANCH  22  23
ATOM     23  C   UNL     1       6.654  -5.550  26.872  0.00  0.00    +0.098 C 
BRANCH  23  24
ATOM     24  C   UNL     1       8.075  -5.064  26.690  0.00  0.00    +0.235 C 
ATOM     25  N   UNL     1       8.886  -5.963  26.040  0.00  0.00    -0.197 N 
ATOM     26  H   UNL     1       8.542  -6.748  25.497  0.00  0.00    +0.182 HD
ATOM     27  O   UNL     1       8.497  -3.978  27.080  0.00  0.00    -0.274 OA
BRANCH  25  28
ATOM     28  O   UNL     1      10.198  -5.517  25.762  0.00  0.00    -0.295 OA
ATOM     29  H   UNL     1      10.616  -5.534  26.653  0.00  0.00    +0.241 HD
ENDBRANCH  25  28
ENDBRANCH  23  24
ENDBRANCH  22  23
ENDBRANCH  21  22
ENDBRANCH  20  21
ENDBRANCH  19  20
ENDBRANCH  18  19
ENDBRANCH   3  18
TORSDOF 13
ENDMDL
MODEL 7
REMARK VINA RESULT:      -5.8      3.454      6.892
REMARK  Name = 
REMARK  14 active torsions:
REMARK  status: ('A' for Active; 'I' for Inactive)
REMARK    1  A    between atoms: C_2  and  C_3
REMARK    2  A    between atoms: C_2  and  N_11
REMARK    3  A    between atoms: C_2  and  C_24
REMARK    4  A    between atoms: C_3  and  C_4
REMARK    5  A    between atoms: C_12  and  C_14
REMARK    6  A    between atoms: C_14  and  C_15
REMARK    7  A    between atoms: C_15  and  C_16
REMARK    8  A    between atoms: C_16  and  C_17
REMARK    9  A    between atoms: C_17  and  C_18
REMARK   10  A    between atoms: C_18  and  C_19
REMARK   11  A    between atoms: C_19  and  C_20
REMARK   12  A    between atoms: N_22  and  O_23
REMARK   13  A    between atoms: C_24  and  O_26
REMARK   14  A    between atoms: O_26  and  C_27
REMARK                            x       y       z     vdW  Elec       q    Type
REMARK                         _______ _______ _______ _____ _____    ______ ____
ROOT
ATOM      1  N   UNL     1       5.183  -5.437  23.436  0.00  0.00    -0.302 N 
ATOM      2  H   UNL     1       4.561  -4.642  23.555  0.00  0.00    +0.150 HD
ATOM      3  C   UNL     1       6.050  -5.494  22.375  0.00  0.00    +0.214 C 
ATOM      4  O   UNL     1       6.733  -6.485  22.134  0.00  0.00    -0.276 OA
ENDROOT
BRANCH   1   5
ATOM      5  C   UNL     1       4.972  -6.594  24.310  0.00  0.00    +0.186 C 
BRANCH   5   6
ATOM      6  C   UNL     1       3.510  -7.042  24.225  0.00  0.00    +0.328 C 
ATOM      7  O   UNL     1       3.125  -8.183  24.459  0.00  0.00    -0.249 OA
BRANCH   6   8
ATOM      8  O   UNL     1       2.698  -5.992  23.913  0.00  0.00    -0.467 OA
ATOM      9  C   UNL     1       1.658  -6.306  22.986  0.00  0.00    +0.280 C 
ENDBRANCH   6   8
ENDBRANCH   5   6
BRANCH   5  10
ATOM     10  C   UNL     1       5.417  -6.352  25.764  0.00  0.00    +0.069 C 
BRANCH  10  11
ATOM     11  C   UNL     1       6.188  -5.071  25.995  0.00  0.00    -0.045 A 
ATOM     12  C   UNL     1       5.515  -3.870  26.268  0.00  0.00    +0.005 A 
ATOM     13  C   UNL     1       6.227  -2.685  26.460  0.00  0.00    +0.015 A 
ATOM     14  C   UNL     1       7.620  -2.696  26.381  0.00  0.00    +0.018 A 
ATOM     15 BR   UNL     1       8.589  -1.093  26.617  0.00  0.00    -0.050 Br
ATOM     16  C   UNL     1       8.302  -3.880  26.116  0.00  0.00    +0.015 A 
ATOM     17  C   UNL     1       7.588  -5.064  25.923  0.00  0.00    +0.005 A 
ENDBRANCH  10  11
ENDBRANCH   5  10
ENDBRANCH   1   5
BRANCH   3  18
ATOM     18  C   UNL     1       6.138  -4.217  21.569  0.00  0.00    +0.096 C 
BRANCH  18  19
ATOM     19  C   UNL     1       5.596  -3.044  22.383  0.00  0.00    +0.009 C 
BRANCH  19  20
ATOM     20  C   UNL     1       6.674  -2.019  22.712  0.00  0.00    +0.000 C 
BRANCH  20  21
ATOM     21  C   UNL     1       8.065  -2.648  22.605  0.00  0.00    +0.000 C 
BRANCH  21  22
ATOM     22  C   UNL     1       9.043  -1.703  21.914  0.00  0.00    +0.009 C 
BRANCH  22  23
ATOM     23  C   UNL     1      10.073  -1.143  22.892  0.00  0.00    +0.098 C 
BRANCH  23  24
ATOM     24  C   UNL     1      10.172   0.363  22.795  0.00  0.00    +0.235 C 
ATOM     25  N   UNL     1       9.762   0.865  21.583  0.00  0.00    -0.197 N 
ATOM     26  H   UNL     1       9.204   0.347  20.914  0.00  0.00    +0.182 HD
ATOM     27  O   UNL     1      10.581   1.096  23.693  0.00  0.00    -0.274 OA
BRANCH  25  28
ATOM     28  O   UNL     1       9.747   2.274  21.476  0.00  0.00    -0.295 OA
ATOM     29  H   UNL     1       9.336   2.543  22.329  0.00  0.00    +0.241 HD
ENDBRANCH  25  28
ENDBRANCH  23  24
ENDBRANCH  22  23
ENDBRANCH  21  22
ENDBRANCH  20  21
ENDBRANCH  19  20
ENDBRANCH  18  19
ENDBRANCH   3  18
TORSDOF 13
ENDMDL
MODEL 8
REMARK VINA RESULT:      -5.7      3.163      6.845
REMARK  Name = 
REMARK  14 active torsions:
REMARK  status: ('A' for Active; 'I' for Inactive)
REMARK    1  A    between atoms: C_2  and  C_3
REMARK    2  A    between atoms: C_2  and  N_11
REMARK    3  A    between atoms: C_2  and  C_24
REMARK    4  A    between atoms: C_3  and  C_4
REMARK    5  A    between atoms: C_12  and  C_14
REMARK    6  A    between atoms: C_14  and  C_15
REMARK    7  A    between atoms: C_15  and  C_16
REMARK    8  A    between atoms: C_16  and  C_17
REMARK    9  A    between atoms: C_17  and  C_18
REMARK   10  A    between atoms: C_18  and  C_19
REMARK   11  A    between atoms: C_19  and  C_20
REMARK   12  A    between atoms: N_22  and  O_23
REMARK   13  A    between atoms: C_24  and  O_26
REMARK   14  A    between atoms: O_26  and  C_27
REMARK                            x       y       z     vdW  Elec       q    Type
REMARK                         _______ _______ _______ _____ _____    ______ ____
ROOT
ATOM      1  N   UNL     1       9.047  -2.738  22.960  0.00  0.00    -0.302 N 
ATOM      2  H   UNL     1      10.039  -2.951  22.905  0.00  0.00    +0.150 HD
ATOM      3  C   UNL     1       8.545  -1.588  22.407  0.00  0.00    +0.214 C 
ATOM      4  O   UNL     1       7.377  -1.241  22.552  0.00  0.00    -0.276 OA
ENDROOT
BRANCH   1   5
ATOM      5  C   UNL     1       8.222  -3.590  23.823  0.00  0.00    +0.186 C 
BRANCH   5   6
ATOM      6  C   UNL     1       9.080  -4.151  24.961  0.00  0.00    +0.328 C 
ATOM      7  O   UNL     1      10.167  -4.695  24.800  0.00  0.00    -0.249 OA
BRANCH   6   8
ATOM      8  O   UNL     1       8.497  -3.911  26.171  0.00  0.00    -0.467 OA
ATOM      9  C   UNL     1       7.929  -5.066  26.790  0.00  0.00    +0.280 C 
ENDBRANCH   6   8
ENDBRANCH   5   6
BRANCH   5  10
ATOM     10  C   UNL     1       7.483  -4.702  23.056  0.00  0.00    +0.069 C 
BRANCH  10  11
ATOM     11  C   UNL     1       5.995  -4.783  23.319  0.00  0.00    -0.045 A 
ATOM     12  C   UNL     1       5.241  -5.861  22.832  0.00  0.00    +0.005 A 
ATOM     13  C   UNL     1       3.865  -5.924  23.057  0.00  0.00    +0.015 A 
ATOM     14  C   UNL     1       3.235  -4.906  23.774  0.00  0.00    +0.018 A 
ATOM     15 BR   UNL     1       1.371  -4.971  24.065  0.00  0.00    -0.050 Br
ATOM     16  C   UNL     1       3.972  -3.832  24.269  0.00  0.00    +0.015 A 
ATOM     17  C   UNL     1       5.348  -3.771  24.041  0.00  0.00    +0.005 A 
ENDBRANCH  10  11
ENDBRANCH   5  10
ENDBRANCH   1   5
BRANCH   3  18
ATOM     18  C   UNL     1       9.533  -0.821  21.555  0.00  0.00    +0.096 C 
BRANCH  18  19
ATOM     19  C   UNL     1       9.112   0.643  21.454  0.00  0.00    +0.009 C 
BRANCH  19  20
ATOM     20  C   UNL     1      10.059   1.572  22.205  0.00  0.00    +0.000 C 
BRANCH  20  21
ATOM     21  C   UNL     1       9.280   2.471  23.168  0.00  0.00    +0.000 C 
BRANCH  21  22
ATOM     22  C   UNL     1       8.527   1.641  24.204  0.00  0.00    +0.009 C 
BRANCH  22  23
ATOM     23  C   UNL     1       9.478   0.796  25.048  0.00  0.00    +0.098 C 
BRANCH  23  24
ATOM     24  C   UNL     1       8.727  -0.207  25.896  0.00  0.00    +0.235 C 
ATOM     25  N   UNL     1       7.430  -0.409  25.491  0.00  0.00    -0.197 N 
ATOM     26  H   UNL     1       7.071  -0.141  24.581  0.00  0.00    +0.182 HD
ATOM     27  O   UNL     1       9.201  -0.797  26.864  0.00  0.00    -0.274 OA
BRANCH  25  28
ATOM     28  O   UNL     1       6.716  -1.406  26.193  0.00  0.00    -0.295 OA
ATOM     29  H   UNL     1       6.338  -1.945  25.461  0.00  0.00    +0.241 HD
ENDBRANCH  25  28
ENDBRANCH  23  24
ENDBRANCH  22  23
ENDBRANCH  21  22
ENDBRANCH  20  21
ENDBRANCH  19  20
ENDBRANCH  18  19
ENDBRANCH   3  18
TORSDOF 13
ENDMDL
MODEL 9
REMARK VINA RESULT:      -5.7      3.563      7.023
REMARK  Name = 
REMARK  14 active torsions:
REMARK  status: ('A' for Active; 'I' for Inactive)
REMARK    1  A    between atoms: C_2  and  C_3
REMARK    2  A    between atoms: C_2  and  N_11
REMARK    3  A    between atoms: C_2  and  C_24
REMARK    4  A    between atoms: C_3  and  C_4
REMARK    5  A    between atoms: C_12  and  C_14
REMARK    6  A    between atoms: C_14  and  C_15
REMARK    7  A    between atoms: C_15  and  C_16
REMARK    8  A    between atoms: C_16  and  C_17
REMARK    9  A    between atoms: C_17  and  C_18
REMARK   10  A    between atoms: C_18  and  C_19
REMARK   11  A    between atoms: C_19  and  C_20
REMARK   12  A    between atoms: N_22  and  O_23
REMARK   13  A    between atoms: C_24  and  O_26
REMARK   14  A    between atoms: O_26  and  C_27
REMARK                            x       y       z     vdW  Elec       q    Type
REMARK                         _______ _______ _______ _____ _____    ______ ____
ROOT
ATOM      1  N   UNL     1       8.082  -2.037  22.303  0.00  0.00    -0.302 N 
ATOM      2  H   UNL     1       7.395  -1.513  21.768  0.00  0.00    +0.150 HD
ATOM      3  C   UNL     1       9.412  -1.711  22.245  0.00  0.00    +0.214 C 
ATOM      4  O   UNL     1      10.282  -2.389  22.784  0.00  0.00    -0.276 OA
ENDROOT
BRANCH   1   5
ATOM      5  C   UNL     1       7.627  -3.264  22.963  0.00  0.00    +0.186 C 
BRANCH   5   6
ATOM      6  C   UNL     1       6.561  -3.947  22.101  0.00  0.00    +0.328 C 
ATOM      7  O   UNL     1       5.563  -3.382  21.665  0.00  0.00    -0.249 OA
BRANCH   6   8
ATOM      8  O   UNL     1       6.903  -5.241  21.842  0.00  0.00    -0.467 OA
ATOM      9  C   UNL     1       6.197  -5.830  20.749  0.00  0.00    +0.280 C 
ENDBRANCH   6   8
ENDBRANCH   5   6
BRANCH   5  10
ATOM     10  C   UNL     1       7.142  -3.038  24.407  0.00  0.00    +0.069 C 
BRANCH  10  11
ATOM     11  C   UNL     1       7.114  -1.594  24.857  0.00  0.00    -0.045 A 
ATOM     12  C   UNL     1       8.164  -1.062  25.621  0.00  0.00    +0.005 A 
ATOM     13  C   UNL     1       8.126   0.264  26.052  0.00  0.00    +0.015 A 
ATOM     14  C   UNL     1       7.035   1.068  25.721  0.00  0.00    +0.018 A 
ATOM     15 BR   UNL     1       6.966   2.857  26.320  0.00  0.00    -0.050 Br
ATOM     16  C   UNL     1       5.988   0.556  24.959  0.00  0.00    +0.015 A 
ATOM     17  C   UNL     1       6.027  -0.772  24.529  0.00  0.00    +0.005 A 
ENDBRANCH  10  11
ENDBRANCH   5  10
ENDBRANCH   1   5
BRANCH   3  18
ATOM     18  C   UNL     1       9.709  -0.419  21.515  0.00  0.00    +0.096 C 
BRANCH  18  19
ATOM     19  C   UNL     1      10.081   0.674  22.514  0.00  0.00    +0.009 C 
BRANCH  19  20
ATOM     20  C   UNL     1       9.438   2.013  22.175  0.00  0.00    +0.000 C 
BRANCH  20  21
ATOM     21  C   UNL     1       7.938   1.843  21.929  0.00  0.00    +0.000 C 
BRANCH  21  22
ATOM     22  C   UNL     1       7.201   3.169  22.089  0.00  0.00    +0.009 C 
BRANCH  22  23
ATOM     23  C   UNL     1       7.946   4.119  23.024  0.00  0.00    +0.098 C 
BRANCH  23  24
ATOM     24  C   UNL     1       7.887   5.547  22.530  0.00  0.00    +0.235 C 
ATOM     25  N   UNL     1       6.923   5.759  21.574  0.00  0.00    -0.197 N 
ATOM     26  H   UNL     1       6.152   5.125  21.395  0.00  0.00    +0.182 HD
ATOM     27  O   UNL     1       8.619   6.453  22.921  0.00  0.00    -0.274 OA
BRANCH  25  28
ATOM     28  O   UNL     1       6.765   7.098  21.149  0.00  0.00    -0.295 OA
ATOM     29  H   UNL     1       6.709   7.000  20.171  0.00  0.00    +0.241 HD
ENDBRANCH  25  28
ENDBRANCH  23  24
ENDBRANCH  22  23
ENDBRANCH  21  22
ENDBRANCH  20  21
ENDBRANCH  19  20
ENDBRANCH  18  19
ENDBRANCH   3  18
TORSDOF 13
ENDMDL
