MODEL 1
REMARK VINA RESULT:      -9.1      0.000      0.000
REMARK  Name = 
REMARK  7 active torsions:
REMARK  status: ('A' for Active; 'I' for Inactive)
REMARK    1  A    between atoms: C_1  and  C_2
REMARK    2  A    between atoms: C_2  and  C_3
REMARK    3  A    between atoms: C_2  and  N_4
REMARK    4  A    between atoms: C_2  and  C_31
REMARK    5  A    between atoms: C_5  and  C_7
REMARK    6  A    between atoms: C_24  and  C_25
REMARK    7  A    between atoms: C_31  and  O_32
REMARK                            x       y       z     vdW  Elec       q    Type
REMARK                         _______ _______ _______ _____ _____    ______ ____
ROOT
ATOM      1  C   UNL     1       6.792  -0.414  24.020  0.00  0.00    +0.039 A 
ATOM      2  C   UNL     1       6.495   0.950  23.556  0.00  0.00    +0.039 A 
ATOM      3  C   UNL     1       7.119   2.116  24.274  0.00  0.00    +0.051 A 
ATOM      4  N   UNL     1       7.543   3.471  24.061  0.00  0.00    -0.336 N 
ATOM      5  C   UNL     1       8.936   3.502  24.216  0.00  0.00    +0.057 A 
ATOM      6  C   UNL     1       9.202   2.150  24.406  0.00  0.00    -0.011 A 
ATOM      7  C   UNL     1       9.865   4.663  24.139  0.00  0.00    +0.040 A 
ATOM      8  C   UNL     1      11.125   4.558  23.489  0.00  0.00    +0.013 A 
ATOM      9  C   UNL     1      12.178   5.458  23.643  0.00  0.00    +0.001 A 
ATOM     10  C   UNL     1      12.014   6.512  24.500  0.00  0.00    +0.004 A 
ATOM     11  C   UNL     1      10.768   6.697  25.111  0.00  0.00    +0.046 A 
ATOM     12  C   UNL     1       9.675   5.813  24.896  0.00  0.00    +0.130 A 
ATOM     13  O   UNL     1       8.538   6.213  25.523  0.00  0.00    -0.490 OA
ATOM     14  C   UNL     1       7.257   5.583  25.397  0.00  0.00    +0.250 C 
ATOM     15  C   UNL     1       6.849   4.749  24.153  0.00  0.00    +0.163 C 
ATOM     16  C   UNL     1       8.093   1.757  25.223  0.00  0.00    +0.004 A 
ATOM     17  C   UNL     1       7.717   0.651  26.003  0.00  0.00    +0.011 A 
ATOM     18  C   UNL     1       7.381  -0.494  25.285  0.00  0.00    +0.014 A 
ENDROOT
BRANCH   6  19
ATOM     19  C   UNL     1      10.384   1.491  23.780  0.00  0.00    +0.022 C 
ATOM     20  C   UNL     1      10.285   1.706  22.235  0.00  0.00    +0.008 C 
ATOM     21  C   UNL     1       9.252   0.849  21.558  0.00  0.00    +0.001 C 
ATOM     22  C   UNL     1       9.567  -0.604  21.767  0.00  0.00    +0.000 C 
ATOM     23  C   UNL     1      10.038  -1.008  23.165  0.00  0.00    +0.001 C 
ATOM     24  C   UNL     1      10.676   0.036  24.079  0.00  0.00    +0.008 C 
ENDBRANCH   6  19
BRANCH   1  27
ATOM     25  N   UNL     1       6.637  -3.016  24.149  0.00  0.00    -0.296 N 
ATOM     26  H   UNL     1       6.611  -2.916  25.156  0.00  0.00    +0.150 HD
ATOM     27  C   UNL     1       6.663  -1.886  23.396  0.00  0.00    +0.245 C 
ATOM     28  O   UNL     1       6.420  -2.017  22.195  0.00  0.00    -0.270 OA
BRANCH  25  30
ATOM     29  C   UNL     1       7.514  -5.269  23.092  0.00  0.00    +0.043 C 
ATOM     30  C   UNL     1       6.310  -4.487  23.671  0.00  0.00    +0.126 C 
ATOM     31  C   UNL     1       5.827  -5.262  24.909  0.00  0.00    +0.043 C 
BRANCH  30  32
ATOM     32  C   UNL     1       5.173  -4.640  22.607  0.00  0.00    +0.328 C 
ATOM     33  O   UNL     1       3.973  -4.841  22.868  0.00  0.00    -0.249 OA
BRANCH  32  34
ATOM     34  O   UNL     1       5.624  -4.707  21.336  0.00  0.00    -0.479 OA
ATOM     35  H   UNL     1       6.348  -5.347  21.244  0.00  0.00    +0.295 HD
ENDBRANCH  32  34
ENDBRANCH  30  32
ENDBRANCH  25  30
ENDBRANCH   1  27
TORSDOF 5
ENDMDL
MODEL 2
REMARK VINA RESULT:      -8.5      1.286      1.644
REMARK  Name = 
REMARK  7 active torsions:
REMARK  status: ('A' for Active; 'I' for Inactive)
REMARK    1  A    between atoms: C_1  and  C_2
REMARK    2  A    between atoms: C_2  and  C_3
REMARK    3  A    between atoms: C_2  and  N_4
REMARK    4  A    between atoms: C_2  and  C_31
REMARK    5  A    between atoms: C_5  and  C_7
REMARK    6  A    between atoms: C_24  and  C_25
REMARK    7  A    between atoms: C_31  and  O_32
REMARK                            x       y       z     vdW  Elec       q    Type
REMARK                         _______ _______ _______ _____ _____    ______ ____
ROOT
ATOM      1  C   UNL     1       6.226  -0.250  24.693  0.00  0.00    +0.039 A 
ATOM      2  C   UNL     1       6.152   0.966  23.868  0.00  0.00    +0.039 A 
ATOM      3  C   UNL     1       6.890   2.198  24.320  0.00  0.00    +0.051 A 
ATOM      4  N   UNL     1       7.511   3.386  23.808  0.00  0.00    -0.336 N 
ATOM      5  C   UNL     1       8.883   3.290  24.081  0.00  0.00    +0.057 A 
ATOM      6  C   UNL     1       8.945   2.016  24.636  0.00  0.00    -0.011 A 
ATOM      7  C   UNL     1       9.969   4.268  23.798  0.00  0.00    +0.040 A 
ATOM      8  C   UNL     1      11.239   3.844  23.319  0.00  0.00    +0.013 A 
ATOM      9  C   UNL     1      12.396   4.620  23.336  0.00  0.00    +0.001 A 
ATOM     10  C   UNL     1      12.330   5.876  23.876  0.00  0.00    +0.004 A 
ATOM     11  C   UNL     1      11.089   6.365  24.297  0.00  0.00    +0.046 A 
ATOM     12  C   UNL     1       9.897   5.593  24.214  0.00  0.00    +0.130 A 
ATOM     13  O   UNL     1       8.792   6.279  24.606  0.00  0.00    -0.490 OA
ATOM     14  C   UNL     1       7.445   5.796  24.525  0.00  0.00    +0.250 C 
ATOM     15  C   UNL     1       6.999   4.716  23.504  0.00  0.00    +0.163 C 
ATOM     16  C   UNL     1       7.744   1.991  25.417  0.00  0.00    +0.004 A 
ATOM     17  C   UNL     1       7.171   1.185  26.415  0.00  0.00    +0.011 A 
ATOM     18  C   UNL     1       6.721  -0.061  25.986  0.00  0.00    +0.014 A 
ENDROOT
BRANCH   6  19
ATOM     19  C   UNL     1      10.058   1.077  24.315  0.00  0.00    +0.022 C 
ATOM     20  C   UNL     1      10.132   0.943  22.760  0.00  0.00    +0.008 C 
ATOM     21  C   UNL     1       9.040   0.101  22.160  0.00  0.00    +0.001 C 
ATOM     22  C   UNL     1       9.101  -1.294  22.712  0.00  0.00    +0.000 C 
ATOM     23  C   UNL     1       9.375  -1.426  24.211  0.00  0.00    +0.001 C 
ATOM     24  C   UNL     1      10.088  -0.296  24.951  0.00  0.00    +0.008 C 
ENDBRANCH   6  19
BRANCH   1  27
ATOM     25  N   UNL     1       5.958  -2.397  23.233  0.00  0.00    -0.296 N 
ATOM     26  H   UNL     1       6.266  -1.841  22.445  0.00  0.00    +0.150 HD
ATOM     27  C   UNL     1       5.930  -1.809  24.457  0.00  0.00    +0.245 C 
ATOM     28  O   UNL     1       5.821  -2.560  25.428  0.00  0.00    -0.270 OA
BRANCH  25  30
ATOM     29  C   UNL     1       4.521  -4.610  23.183  0.00  0.00    +0.043 C 
ATOM     30  C   UNL     1       5.889  -3.941  22.903  0.00  0.00    +0.126 C 
ATOM     31  C   UNL     1       6.159  -4.088  21.395  0.00  0.00    +0.043 C 
BRANCH  30  32
ATOM     32  C   UNL     1       6.944  -4.856  23.610  0.00  0.00    +0.328 C 
ATOM     33  O   UNL     1       8.035  -5.199  23.121  0.00  0.00    -0.249 OA
BRANCH  32  34
ATOM     34  O   UNL     1       6.501  -5.404  24.763  0.00  0.00    -0.479 OA
ATOM     35  H   UNL     1       6.530  -4.769  25.497  0.00  0.00    +0.295 HD
ENDBRANCH  32  34
ENDBRANCH  30  32
ENDBRANCH  25  30
ENDBRANCH   1  27
TORSDOF 5
ENDMDL
MODEL 3
REMARK VINA RESULT:      -7.8      1.957      8.823
REMARK  Name = 
REMARK  7 active torsions:
REMARK  status: ('A' for Active; 'I' for Inactive)
REMARK    1  A    between atoms: C_1  and  C_2
REMARK    2  A    between atoms: C_2  and  C_3
REMARK    3  A    between atoms: C_2  and  N_4
REMARK    4  A    between atoms: C_2  and  C_31
REMARK    5  A    between atoms: C_5  and  C_7
REMARK    6  A    between atoms: C_24  and  C_25
REMARK    7  A    between atoms: C_31  and  O_32
REMARK                            x       y       z     vdW  Elec       q    Type
REMARK                         _______ _______ _______ _____ _____    ______ ____
ROOT
ATOM      1  C   UNL     1       9.044  -0.083  23.318  0.00  0.00    +0.039 A 
ATOM      2  C   UNL     1       8.009  -0.725  22.493  0.00  0.00    +0.039 A 
ATOM      3  C   UNL     1       7.718  -2.188  22.697  0.00  0.00    +0.051 A 
ATOM      4  N   UNL     1       6.664  -3.153  22.563  0.00  0.00    -0.336 N 
ATOM      5  C   UNL     1       6.346  -3.605  23.852  0.00  0.00    +0.057 A 
ATOM      6  C   UNL     1       7.172  -2.792  24.619  0.00  0.00    -0.011 A 
ATOM      7  C   UNL     1       5.354  -4.634  24.268  0.00  0.00    +0.040 A 
ATOM      8  C   UNL     1       4.531  -4.445  25.413  0.00  0.00    +0.013 A 
ATOM      9  C   UNL     1       3.826  -5.457  26.062  0.00  0.00    +0.001 A 
ATOM     10  C   UNL     1       3.943  -6.737  25.593  0.00  0.00    +0.004 A 
ATOM     11  C   UNL     1       4.685  -6.963  24.428  0.00  0.00    +0.046 A 
ATOM     12  C   UNL     1       5.347  -5.915  23.729  0.00  0.00    +0.130 A 
ATOM     13  O   UNL     1       5.947  -6.336  22.586  0.00  0.00    -0.490 OA
ATOM     14  C   UNL     1       6.591  -5.487  21.628  0.00  0.00    +0.250 C 
ATOM     15  C   UNL     1       6.226  -3.989  21.452  0.00  0.00    +0.163 C 
ATOM     16  C   UNL     1       8.357  -2.755  23.814  0.00  0.00    +0.004 A 
ATOM     17  C   UNL     1       9.693  -2.342  23.950  0.00  0.00    +0.011 A 
ATOM     18  C   UNL     1       9.885  -0.964  24.005  0.00  0.00    +0.014 A 
ENDROOT
BRANCH   6  19
ATOM     19  C   UNL     1       6.705  -2.191  25.901  0.00  0.00    +0.022 C 
ATOM     20  C   UNL     1       5.443  -1.323  25.587  0.00  0.00    +0.008 C 
ATOM     21  C   UNL     1       5.747  -0.018  24.905  0.00  0.00    +0.001 C 
ATOM     22  C   UNL     1       6.638   0.824  25.771  0.00  0.00    +0.000 C 
ATOM     23  C   UNL     1       7.779   0.099  26.486  0.00  0.00    +0.001 C 
ATOM     24  C   UNL     1       7.672  -1.400  26.756  0.00  0.00    +0.008 C 
ENDBRANCH   6  19
BRANCH   1  27
ATOM     25  N   UNL     1       8.724   2.506  23.267  0.00  0.00    -0.296 N 
ATOM     26  H   UNL     1       7.864   2.341  22.760  0.00  0.00    +0.150 HD
ATOM     27  C   UNL     1       9.430   1.428  23.694  0.00  0.00    +0.245 C 
ATOM     28  O   UNL     1      10.309   1.639  24.531  0.00  0.00    -0.270 OA
BRANCH  25  30
ATOM     29  C   UNL     1       7.991   5.025  22.976  0.00  0.00    +0.043 C 
ATOM     30  C   UNL     1       8.880   4.009  23.734  0.00  0.00    +0.126 C 
ATOM     31  C   UNL     1       8.461   4.063  25.213  0.00  0.00    +0.043 C 
BRANCH  30  32
ATOM     32  C   UNL     1      10.324   4.610  23.683  0.00  0.00    +0.328 C 
ATOM     33  O   UNL     1      10.669   5.686  24.204  0.00  0.00    -0.249 OA
BRANCH  32  34
ATOM     34  O   UNL     1      11.163   3.940  22.864  0.00  0.00    -0.479 OA
ATOM     35  H   UNL     1      12.062   3.893  23.228  0.00  0.00    +0.295 HD
ENDBRANCH  32  34
ENDBRANCH  30  32
ENDBRANCH  25  30
ENDBRANCH   1  27
TORSDOF 5
ENDMDL
MODEL 4
REMARK VINA RESULT:      -7.5      3.002      9.379
REMARK  Name = 
REMARK  7 active torsions:
REMARK  status: ('A' for Active; 'I' for Inactive)
REMARK    1  A    between atoms: C_1  and  C_2
REMARK    2  A    between atoms: C_2  and  C_3
REMARK    3  A    between atoms: C_2  and  N_4
REMARK    4  A    between atoms: C_2  and  C_31
REMARK    5  A    between atoms: C_5  and  C_7
REMARK    6  A    between atoms: C_24  and  C_25
REMARK    7  A    between atoms: C_31  and  O_32
REMARK                            x       y       z     vdW  Elec       q    Type
REMARK                         _______ _______ _______ _____ _____    ______ ____
ROOT
ATOM      1  C   UNL     1       7.572  -1.768  25.607  0.00  0.00    +0.039 A 
ATOM      2  C   UNL     1       7.551  -2.989  26.427  0.00  0.00    +0.039 A 
ATOM      3  C   UNL     1       6.225  -3.615  26.767  0.00  0.00    +0.051 A 
ATOM      4  N   UNL     1       5.630  -4.881  27.087  0.00  0.00    -0.336 N 
ATOM      5  C   UNL     1       4.747  -5.202  26.046  0.00  0.00    +0.057 A 
ATOM      6  C   UNL     1       4.984  -4.145  25.175  0.00  0.00    -0.011 A 
ATOM      7  C   UNL     1       3.851  -6.383  25.904  0.00  0.00    +0.040 A 
ATOM      8  C   UNL     1       3.694  -7.044  24.655  0.00  0.00    +0.013 A 
ATOM      9  C   UNL     1       2.659  -7.925  24.345  0.00  0.00    +0.001 A 
ATOM     10  C   UNL     1       1.700  -8.163  25.292  0.00  0.00    +0.004 A 
ATOM     11  C   UNL     1       1.849  -7.591  26.560  0.00  0.00    +0.046 A 
ATOM     12  C   UNL     1       2.944  -6.746  26.893  0.00  0.00    +0.130 A 
ATOM     13  O   UNL     1       2.938  -6.356  28.194  0.00  0.00    -0.490 OA
ATOM     14  C   UNL     1       3.970  -5.598  28.836  0.00  0.00    +0.250 C 
ATOM     15  C   UNL     1       5.442  -5.595  28.344  0.00  0.00    +0.163 C 
ATOM     16  C   UNL     1       5.128  -3.053  26.090  0.00  0.00    +0.004 A 
ATOM     17  C   UNL     1       5.180  -1.650  26.033  0.00  0.00    +0.011 A 
ATOM     18  C   UNL     1       6.340  -1.120  25.476  0.00  0.00    +0.014 A 
ENDROOT
BRANCH   6  19
ATOM     19  C   UNL     1       5.066  -4.352  23.700  0.00  0.00    +0.022 C 
ATOM     20  C   UNL     1       6.183  -5.410  23.429  0.00  0.00    +0.008 C 
ATOM     21  C   UNL     1       7.583  -4.885  23.591  0.00  0.00    +0.001 C 
ATOM     22  C   UNL     1       7.826  -3.755  22.633  0.00  0.00    +0.000 C 
ATOM     23  C   UNL     1       6.689  -2.746  22.464  0.00  0.00    +0.001 C 
ATOM     24  C   UNL     1       5.255  -3.160  22.785  0.00  0.00    +0.008 C 
ENDBRANCH   6  19
BRANCH   1  27
ATOM     25  N   UNL     1       8.582   0.320  24.410  0.00  0.00    -0.296 N 
ATOM     26  H   UNL     1       7.819   0.855  24.806  0.00  0.00    +0.150 HD
ATOM     27  C   UNL     1       8.678  -0.994  24.739  0.00  0.00    +0.245 C 
ATOM     28  O   UNL     1       9.744  -1.552  24.479  0.00  0.00    -0.270 OA
BRANCH  25  30
ATOM     29  C   UNL     1       9.521   2.751  23.995  0.00  0.00    +0.043 C 
ATOM     30  C   UNL     1       9.690   1.232  23.747  0.00  0.00    +0.126 C 
ATOM     31  C   UNL     1      11.036   0.824  24.371  0.00  0.00    +0.043 C 
BRANCH  30  32
ATOM     32  C   UNL     1       9.881   1.088  22.201  0.00  0.00    +0.328 C 
ATOM     33  O   UNL     1       9.850   0.014  21.574  0.00  0.00    -0.249 OA
BRANCH  32  34
ATOM     34  O   UNL     1      10.260   2.233  21.592  0.00  0.00    -0.479 OA
ATOM     35  H   UNL     1      10.699   2.840  22.208  0.00  0.00    +0.295 HD
ENDBRANCH  32  34
ENDBRANCH  30  32
ENDBRANCH  25  30
ENDBRANCH   1  27
TORSDOF 5
ENDMDL
MODEL 5
REMARK VINA RESULT:      -7.3      3.389      9.994
REMARK  Name = 
REMARK  7 active torsions:
REMARK  status: ('A' for Active; 'I' for Inactive)
REMARK    1  A    between atoms: C_1  and  C_2
REMARK    2  A    between atoms: C_2  and  C_3
REMARK    3  A    between atoms: C_2  and  N_4
REMARK    4  A    between atoms: C_2  and  C_31
REMARK    5  A    between atoms: C_5  and  C_7
REMARK    6  A    between atoms: C_24  and  C_25
REMARK    7  A    between atoms: C_31  and  O_32
REMARK                            x       y       z     vdW  Elec       q    Type
REMARK                         _______ _______ _______ _____ _____    ______ ____
ROOT
ATOM      1  C   UNL     1       6.580  -3.675  22.804  0.00  0.00    +0.039 A 
ATOM      2  C   UNL     1       5.115  -3.541  22.849  0.00  0.00    +0.039 A 
ATOM      3  C   UNL     1       4.283  -4.751  23.180  0.00  0.00    +0.051 A 
ATOM      4  N   UNL     1       3.024  -5.124  23.757  0.00  0.00    -0.336 N 
ATOM      5  C   UNL     1       3.298  -5.831  24.937  0.00  0.00    +0.057 A 
ATOM      6  C   UNL     1       4.683  -5.717  24.986  0.00  0.00    -0.011 A 
ATOM      7  C   UNL     1       2.351  -6.471  25.891  0.00  0.00    +0.040 A 
ATOM      8  C   UNL     1       2.548  -6.385  27.296  0.00  0.00    +0.013 A 
ATOM      9  C   UNL     1       1.926  -7.202  28.239  0.00  0.00    +0.001 A 
ATOM     10  C   UNL     1       1.080  -8.182  27.795  0.00  0.00    +0.004 A 
ATOM     11  C   UNL     1       0.800  -8.261  26.427  0.00  0.00    +0.046 A 
ATOM     12  C   UNL     1       1.385  -7.381  25.475  0.00  0.00    +0.130 A 
ATOM     13  O   UNL     1       0.924  -7.580  24.214  0.00  0.00    -0.490 OA
ATOM     14  C   UNL     1       1.251  -6.773  23.075  0.00  0.00    +0.250 C 
ATOM     15  C   UNL     1       1.689  -5.289  23.194  0.00  0.00    +0.163 C 
ATOM     16  C   UNL     1       5.027  -5.867  23.604  0.00  0.00    +0.004 A 
ATOM     17  C   UNL     1       6.187  -6.076  22.839  0.00  0.00    +0.011 A 
ATOM     18  C   UNL     1       7.054  -4.989  22.767  0.00  0.00    +0.014 A 
ENDROOT
BRANCH   6  19
ATOM     19  C   UNL     1       5.400  -5.462  26.268  0.00  0.00    +0.022 C 
ATOM     20  C   UNL     1       4.849  -4.127  26.864  0.00  0.00    +0.008 C 
ATOM     21  C   UNL     1       5.339  -2.890  26.163  0.00  0.00    +0.001 C 
ATOM     22  C   UNL     1       6.835  -2.807  26.245  0.00  0.00    +0.000 C 
ATOM     23  C   UNL     1       7.605  -4.111  26.032  0.00  0.00    +0.001 C 
ATOM     24  C   UNL     1       6.914  -5.448  26.291  0.00  0.00    +0.008 C 
ENDBRANCH   6  19
BRANCH   1  27
ATOM     25  N   UNL     1       7.684  -1.323  23.048  0.00  0.00    -0.296 N 
ATOM     26  H   UNL     1       6.761  -0.965  23.261  0.00  0.00    +0.150 HD
ATOM     27  C   UNL     1       7.821  -2.660  22.851  0.00  0.00    +0.245 C 
ATOM     28  O   UNL     1       8.969  -3.105  22.866  0.00  0.00    -0.270 OA
BRANCH  25  30
ATOM     29  C   UNL     1       8.345   1.084  23.905  0.00  0.00    +0.043 C 
ATOM     30  C   UNL     1       8.827  -0.265  23.318  0.00  0.00    +0.126 C 
ATOM     31  C   UNL     1       9.779  -0.890  24.353  0.00  0.00    +0.043 C 
BRANCH  30  32
ATOM     32  C   UNL     1       9.727   0.119  22.096  0.00  0.00    +0.328 C 
ATOM     33  O   UNL     1      10.135   1.267  21.842  0.00  0.00    -0.249 OA
BRANCH  32  34
ATOM     34  O   UNL     1       9.900  -0.887  21.212  0.00  0.00    -0.479 OA
ATOM     35  H   UNL     1      10.816  -1.209  21.208  0.00  0.00    +0.295 HD
ENDBRANCH  32  34
ENDBRANCH  30  32
ENDBRANCH  25  30
ENDBRANCH   1  27
TORSDOF 5
ENDMDL
MODEL 6
REMARK VINA RESULT:      -7.1      2.232      8.465
REMARK  Name = 
REMARK  7 active torsions:
REMARK  status: ('A' for Active; 'I' for Inactive)
REMARK    1  A    between atoms: C_1  and  C_2
REMARK    2  A    between atoms: C_2  and  C_3
REMARK    3  A    between atoms: C_2  and  N_4
REMARK    4  A    between atoms: C_2  and  C_31
REMARK    5  A    between atoms: C_5  and  C_7
REMARK    6  A    between atoms: C_24  and  C_25
REMARK    7  A    between atoms: C_31  and  O_32
REMARK                            x       y       z     vdW  Elec       q    Type
REMARK                         _______ _______ _______ _____ _____    ______ ____
ROOT
ATOM      1  C   UNL     1       8.762   1.495  23.739  0.00  0.00    +0.039 A 
ATOM      2  C   UNL     1       8.160   0.268  23.194  0.00  0.00    +0.039 A 
ATOM      3  C   UNL     1       8.330  -1.024  23.948  0.00  0.00    +0.051 A 
ATOM      4  N   UNL     1       7.692  -2.291  24.164  0.00  0.00    -0.336 N 
ATOM      5  C   UNL     1       7.310  -2.341  25.513  0.00  0.00    +0.057 A 
ATOM      6  C   UNL     1       7.672  -1.065  25.928  0.00  0.00    -0.011 A 
ATOM      7  C   UNL     1       6.650  -3.445  26.262  0.00  0.00    +0.040 A 
ATOM      8  C   UNL     1       5.617  -3.184  27.204  0.00  0.00    +0.013 A 
ATOM      9  C   UNL     1       5.175  -4.085  28.171  0.00  0.00    +0.001 A 
ATOM     10  C   UNL     1       5.787  -5.306  28.252  0.00  0.00    +0.004 A 
ATOM     11  C   UNL     1       6.760  -5.637  27.302  0.00  0.00    +0.046 A 
ATOM     12  C   UNL     1       7.159  -4.739  26.274  0.00  0.00    +0.130 A 
ATOM     13  O   UNL     1       8.061  -5.281  25.416  0.00  0.00    -0.490 OA
ATOM     14  C   UNL     1       8.556  -4.652  24.227  0.00  0.00    +0.250 C 
ATOM     15  C   UNL     1       7.760  -3.564  23.458  0.00  0.00    +0.163 C 
ATOM     16  C   UNL     1       8.905  -0.878  25.224  0.00  0.00    +0.004 A 
ATOM     17  C   UNL     1       9.985   0.021  25.239  0.00  0.00    +0.011 A 
ATOM     18  C   UNL     1       9.704   1.295  24.752  0.00  0.00    +0.014 A 
ENDROOT
BRANCH   6  19
ATOM     19  C   UNL     1       6.809  -0.269  26.848  0.00  0.00    +0.022 C 
ATOM     20  C   UNL     1       5.432  -0.055  26.141  0.00  0.00    +0.008 C 
ATOM     21  C   UNL     1       5.458   0.962  25.033  0.00  0.00    +0.001 C 
ATOM     22  C   UNL     1       5.874   2.301  25.570  0.00  0.00    +0.000 C 
ATOM     23  C   UNL     1       7.020   2.305  26.583  0.00  0.00    +0.001 C 
ATOM     24  C   UNL     1       7.314   1.048  27.398  0.00  0.00    +0.008 C 
ENDBRANCH   6  19
BRANCH   1  27
ATOM     25  N   UNL     1       9.020   4.017  24.358  0.00  0.00    -0.296 N 
ATOM     26  H   UNL     1       9.594   3.718  25.136  0.00  0.00    +0.150 HD
ATOM     27  C   UNL     1       8.558   3.069  23.502  0.00  0.00    +0.245 C 
ATOM     28  O   UNL     1       8.103   3.467  22.429  0.00  0.00    -0.270 OA
BRANCH  25  30
ATOM     29  C   UNL     1       9.079   6.429  25.427  0.00  0.00    +0.043 C 
ATOM     30  C   UNL     1       9.063   5.582  24.132  0.00  0.00    +0.126 C 
ATOM     31  C   UNL     1      10.370   5.889  23.379  0.00  0.00    +0.043 C 
BRANCH  30  32
ATOM     32  C   UNL     1       7.919   6.194  23.256  0.00  0.00    +0.328 C 
ATOM     33  O   UNL     1       6.759   6.414  23.649  0.00  0.00    -0.249 OA
BRANCH  32  34
ATOM     34  O   UNL     1       8.241   6.317  21.951  0.00  0.00    -0.479 OA
ATOM     35  H   UNL     1       7.674   6.963  21.499  0.00  0.00    +0.295 HD
ENDBRANCH  32  34
ENDBRANCH  30  32
ENDBRANCH  25  30
ENDBRANCH   1  27
TORSDOF 5
ENDMDL
MODEL 7
REMARK VINA RESULT:      -6.8      1.894      8.157
REMARK  Name = 
REMARK  7 active torsions:
REMARK  status: ('A' for Active; 'I' for Inactive)
REMARK    1  A    between atoms: C_1  and  C_2
REMARK    2  A    between atoms: C_2  and  C_3
REMARK    3  A    between atoms: C_2  and  N_4
REMARK    4  A    between atoms: C_2  and  C_31
REMARK    5  A    between atoms: C_5  and  C_7
REMARK    6  A    between atoms: C_24  and  C_25
REMARK    7  A    between atoms: C_31  and  O_32
REMARK                            x       y       z     vdW  Elec       q    Type
REMARK                         _______ _______ _______ _____ _____    ______ ____
ROOT
ATOM      1  C   UNL     1       7.423   2.709  25.337  0.00  0.00    +0.039 A 
ATOM      2  C   UNL     1       7.943   1.485  25.969  0.00  0.00    +0.039 A 
ATOM      3  C   UNL     1       7.195   0.193  25.778  0.00  0.00    +0.051 A 
ATOM      4  N   UNL     1       7.397  -1.227  25.744  0.00  0.00    -0.336 N 
ATOM      5  C   UNL     1       7.114  -1.658  24.440  0.00  0.00    +0.057 A 
ATOM      6  C   UNL     1       6.870  -0.440  23.816  0.00  0.00    -0.011 A 
ATOM      7  C   UNL     1       7.129  -3.038  23.882  0.00  0.00    +0.040 A 
ATOM      8  C   UNL     1       7.656  -3.306  22.589  0.00  0.00    +0.013 A 
ATOM      9  C   UNL     1       7.424  -4.471  21.860  0.00  0.00    +0.001 A 
ATOM     10  C   UNL     1       6.609  -5.427  22.402  0.00  0.00    +0.004 A 
ATOM     11  C   UNL     1       6.122  -5.241  23.700  0.00  0.00    +0.046 A 
ATOM     12  C   UNL     1       6.418  -4.080  24.467  0.00  0.00    +0.130 A 
ATOM     13  O   UNL     1       5.909  -4.131  25.725  0.00  0.00    -0.490 OA
ATOM     14  C   UNL     1       6.141  -3.159  26.752  0.00  0.00    +0.250 C 
ATOM     15  C   UNL     1       7.398  -2.250  26.782  0.00  0.00    +0.163 C 
ATOM     16  C   UNL     1       6.151   0.261  24.838  0.00  0.00    +0.004 A 
ATOM     17  C   UNL     1       5.386   1.434  24.952  0.00  0.00    +0.011 A 
ATOM     18  C   UNL     1       6.107   2.623  24.873  0.00  0.00    +0.014 A 
ENDROOT
BRANCH   6  19
ATOM     19  C   UNL     1       7.368  -0.154  22.440  0.00  0.00    +0.022 C 
ATOM     20  C   UNL     1       8.875  -0.565  22.385  0.00  0.00    +0.008 C 
ATOM     21  C   UNL     1       9.801   0.389  23.088  0.00  0.00    +0.001 C 
ATOM     22  C   UNL     1       9.709   1.752  22.466  0.00  0.00    +0.000 C 
ATOM     23  C   UNL     1       8.307   2.243  22.099  0.00  0.00    +0.001 C 
ATOM     24  C   UNL     1       7.192   1.230  21.851  0.00  0.00    +0.008 C 
ENDBRANCH   6  19
BRANCH   1  27
ATOM     25  N   UNL     1       9.347   4.376  24.763  0.00  0.00    -0.296 N 
ATOM     26  H   UNL     1       9.969   3.577  24.746  0.00  0.00    +0.150 HD
ATOM     27  C   UNL     1       8.024   4.151  24.976  0.00  0.00    +0.245 C 
ATOM     28  O   UNL     1       7.258   5.082  24.723  0.00  0.00    -0.270 OA
BRANCH  25  30
ATOM     29  C   UNL     1       9.281   6.358  23.022  0.00  0.00    +0.043 C 
ATOM     30  C   UNL     1      10.024   5.691  24.205  0.00  0.00    +0.126 C 
ATOM     31  C   UNL     1      10.038   6.710  25.357  0.00  0.00    +0.043 C 
BRANCH  30  32
ATOM     32  C   UNL     1      11.512   5.566  23.735  0.00  0.00    +0.328 C 
ATOM     33  O   UNL     1      12.443   6.304  24.107  0.00  0.00    -0.249 OA
BRANCH  32  34
ATOM     34  O   UNL     1      11.693   4.676  22.736  0.00  0.00    -0.479 OA
ATOM     35  H   UNL     1      11.924   3.796  23.075  0.00  0.00    +0.295 HD
ENDBRANCH  32  34
ENDBRANCH  30  32
ENDBRANCH  25  30
ENDBRANCH   1  27
TORSDOF 5
ENDMDL
MODEL 8
REMARK VINA RESULT:      -6.8      2.058      8.036
REMARK  Name = 
REMARK  7 active torsions:
REMARK  status: ('A' for Active; 'I' for Inactive)
REMARK    1  A    between atoms: C_1  and  C_2
REMARK    2  A    between atoms: C_2  and  C_3
REMARK    3  A    between atoms: C_2  and  N_4
REMARK    4  A    between atoms: C_2  and  C_31
REMARK    5  A    between atoms: C_5  and  C_7
REMARK    6  A    between atoms: C_24  and  C_25
REMARK    7  A    between atoms: C_31  and  O_32
REMARK                            x       y       z     vdW  Elec       q    Type
REMARK                         _______ _______ _______ _____ _____    ______ ____
ROOT
ATOM      1  C   UNL     1       7.323   2.655  24.248  0.00  0.00    +0.039 A 
ATOM      2  C   UNL     1       7.199   1.839  25.467  0.00  0.00    +0.039 A 
ATOM      3  C   UNL     1       6.818   0.389  25.337  0.00  0.00    +0.051 A 
ATOM      4  N   UNL     1       6.965  -0.875  26.000  0.00  0.00    -0.336 N 
ATOM      5  C   UNL     1       7.725  -1.701  25.160  0.00  0.00    +0.057 A 
ATOM      6  C   UNL     1       8.031  -0.812  24.136  0.00  0.00    -0.011 A 
ATOM      7  C   UNL     1       8.130  -3.121  25.353  0.00  0.00    +0.040 A 
ATOM      8  C   UNL     1       9.435  -3.570  25.010  0.00  0.00    +0.013 A 
ATOM      9  C   UNL     1       9.800  -4.904  24.846  0.00  0.00    +0.001 A 
ATOM     10  C   UNL     1       8.839  -5.867  24.997  0.00  0.00    +0.004 A 
ATOM     11  C   UNL     1       7.556  -5.480  25.403  0.00  0.00    +0.046 A 
ATOM     12  C   UNL     1       7.207  -4.121  25.636  0.00  0.00    +0.130 A 
ATOM     13  O   UNL     1       5.937  -3.971  26.093  0.00  0.00    -0.490 OA
ATOM     14  C   UNL     1       5.350  -2.733  26.516  0.00  0.00    +0.250 C 
ATOM     15  C   UNL     1       6.191  -1.540  27.041  0.00  0.00    +0.163 C 
ATOM     16  C   UNL     1       6.800  -0.089  24.014  0.00  0.00    +0.004 A 
ATOM     17  C   UNL     1       6.210   0.813  23.112  0.00  0.00    +0.011 A 
ATOM     18  C   UNL     1       6.770   2.088  23.096  0.00  0.00    +0.014 A 
ENDROOT
BRANCH   6  19
ATOM     19  C   UNL     1       9.383  -0.780  23.507  0.00  0.00    +0.022 C 
ATOM     20  C   UNL     1      10.397  -0.278  24.585  0.00  0.00    +0.008 C 
ATOM     21  C   UNL     1      10.319   1.198  24.864  0.00  0.00    +0.001 C 
ATOM     22  C   UNL     1      10.607   1.977  23.614  0.00  0.00    +0.000 C 
ATOM     23  C   UNL     1       9.980   1.452  22.322  0.00  0.00    +0.001 C 
ATOM     24  C   UNL     1       9.591  -0.021  22.214  0.00  0.00    +0.008 C 
ENDBRANCH   6  19
BRANCH   1  27
ATOM     25  N   UNL     1       8.653   4.835  24.786  0.00  0.00    -0.296 N 
ATOM     26  H   UNL     1       8.774   4.472  25.723  0.00  0.00    +0.150 HD
ATOM     27  C   UNL     1       8.012   4.055  23.877  0.00  0.00    +0.245 C 
ATOM     28  O   UNL     1       8.114   4.387  22.695  0.00  0.00    -0.270 OA
BRANCH  25  30
ATOM     29  C   UNL     1       8.943   7.108  23.476  0.00  0.00    +0.043 C 
ATOM     30  C   UNL     1       9.537   6.116  24.506  0.00  0.00    +0.126 C 
ATOM     31  C   UNL     1       9.660   6.874  25.839  0.00  0.00    +0.043 C 
BRANCH  30  32
ATOM     32  C   UNL     1      11.005   5.861  24.028  0.00  0.00    +0.328 C 
ATOM     33  O   UNL     1      12.025   6.300  24.589  0.00  0.00    -0.249 OA
BRANCH  32  34
ATOM     34  O   UNL     1      11.087   5.248  22.827  0.00  0.00    -0.479 OA
ATOM     35  H   UNL     1      10.771   4.332  22.868  0.00  0.00    +0.295 HD
ENDBRANCH  32  34
ENDBRANCH  30  32
ENDBRANCH  25  30
ENDBRANCH   1  27
TORSDOF 5
ENDMDL
MODEL 9
REMARK VINA RESULT:      -6.5      2.437      4.274
REMARK  Name = 
REMARK  7 active torsions:
REMARK  status: ('A' for Active; 'I' for Inactive)
REMARK    1  A    between atoms: C_1  and  C_2
REMARK    2  A    between atoms: C_2  and  C_3
REMARK    3  A    between atoms: C_2  and  N_4
REMARK    4  A    between atoms: C_2  and  C_31
REMARK    5  A    between atoms: C_5  and  C_7
REMARK    6  A    between atoms: C_24  and  C_25
REMARK    7  A    between atoms: C_31  and  O_32
REMARK                            x       y       z     vdW  Elec       q    Type
REMARK                         _______ _______ _______ _____ _____    ______ ____
ROOT
ATOM      1  C   UNL     1       6.974  -2.350  25.192  0.00  0.00    +0.039 A 
ATOM      2  C   UNL     1       8.259  -1.680  25.450  0.00  0.00    +0.039 A 
ATOM      3  C   UNL     1       8.593  -0.427  24.687  0.00  0.00    +0.051 A 
ATOM      4  N   UNL     1       9.360   0.782  24.792  0.00  0.00    -0.336 N 
ATOM      5  C   UNL     1       8.452   1.851  24.817  0.00  0.00    +0.057 A 
ATOM      6  C   UNL     1       7.245   1.161  24.823  0.00  0.00    -0.011 A 
ATOM      7  C   UNL     1       8.724   3.313  24.877  0.00  0.00    +0.040 A 
ATOM      8  C   UNL     1       7.943   4.177  25.694  0.00  0.00    +0.013 A 
ATOM      9  C   UNL     1       7.901   5.564  25.573  0.00  0.00    +0.001 A 
ATOM     10  C   UNL     1       8.639   6.155  24.583  0.00  0.00    +0.004 A 
ATOM     11  C   UNL     1       9.477   5.355  23.799  0.00  0.00    +0.046 A 
ATOM     12  C   UNL     1       9.568   3.946  23.971  0.00  0.00    +0.130 A 
ATOM     13  O   UNL     1      10.492   3.370  23.160  0.00  0.00    -0.490 OA
ATOM     14  C   UNL     1      10.878   1.990  23.191  0.00  0.00    +0.250 C 
ATOM     15  C   UNL     1      10.741   1.108  24.460  0.00  0.00    +0.163 C 
ATOM     16  C   UNL     1       7.531   0.086  23.921  0.00  0.00    +0.004 A 
ATOM     17  C   UNL     1       6.818  -0.912  23.235  0.00  0.00    +0.011 A 
ATOM     18  C   UNL     1       6.312  -1.935  24.033  0.00  0.00    +0.014 A 
ENDROOT
BRANCH   6  19
ATOM     19  C   UNL     1       6.099   1.599  25.671  0.00  0.00    +0.022 C 
ATOM     20  C   UNL     1       6.607   1.690  27.146  0.00  0.00    +0.008 C 
ATOM     21  C   UNL     1       6.796   0.358  27.817  0.00  0.00    +0.001 C 
ATOM     22  C   UNL     1       5.495  -0.390  27.860  0.00  0.00    +0.000 C 
ATOM     23  C   UNL     1       4.631  -0.331  26.600  0.00  0.00    +0.001 C 
ATOM     24  C   UNL     1       4.795   0.832  25.624  0.00  0.00    +0.008 C 
ENDBRANCH   6  19
BRANCH   1  27
ATOM     25  N   UNL     1       4.918  -3.934  25.460  0.00  0.00    -0.296 N 
ATOM     26  H   UNL     1       4.658  -3.677  24.516  0.00  0.00    +0.150 HD
ATOM     27  C   UNL     1       6.075  -3.432  25.963  0.00  0.00    +0.245 C 
ATOM     28  O   UNL     1       6.509  -3.962  26.987  0.00  0.00    -0.270 OA
BRANCH  25  30
ATOM     29  C   UNL     1       3.616  -4.992  27.497  0.00  0.00    +0.043 C 
ATOM     30  C   UNL     1       4.065  -5.140  26.023  0.00  0.00    +0.126 C 
ATOM     31  C   UNL     1       2.786  -5.219  25.171  0.00  0.00    +0.043 C 
BRANCH  30  32
ATOM     32  C   UNL     1       4.718  -6.560  25.935  0.00  0.00    +0.328 C 
ATOM     33  O   UNL     1       4.308  -7.492  25.219  0.00  0.00    -0.249 OA
BRANCH  32  34
ATOM     34  O   UNL     1       5.693  -6.767  26.846  0.00  0.00    -0.479 OA
ATOM     35  H   UNL     1       5.571  -7.605  27.319  0.00  0.00    +0.295 HD
ENDBRANCH  32  34
ENDBRANCH  30  32
ENDBRANCH  25  30
ENDBRANCH   1  27
TORSDOF 5
ENDMDL
