MODEL 1
REMARK VINA RESULT:      -8.6      0.000      0.000
REMARK  Name = 
REMARK  4 active torsions:
REMARK  status: ('A' for Active; 'I' for Inactive)
REMARK    1  A    between atoms: O_1  and  N_2
REMARK    2  A    between atoms: N_6  and  C_7
REMARK    3  A    between atoms: C_7  and  C_8
REMARK    4  A    between atoms: C_23  and  C_25
REMARK                            x       y       z     vdW  Elec       q    Type
REMARK                         _______ _______ _______ _____ _____    ______ ____
ROOT
ATOM      1  N   UNL     1       8.107   1.131  25.941  0.00  0.00    -0.082 NA
ATOM      2  C   UNL     1       8.293   0.059  25.242  0.00  0.00    +0.174 C 
ATOM      3  C   UNL     1       8.760   0.014  23.844  0.00  0.00    +0.038 A 
ATOM      4  C   UNL     1       9.008  -1.348  23.583  0.00  0.00    +0.047 A 
ATOM      5  C   UNL     1       9.533  -1.763  22.373  0.00  0.00    +0.024 A 
ATOM      6  C   UNL     1       9.791  -0.794  21.408  0.00  0.00    +0.002 A 
ATOM      7  C   UNL     1       9.514   0.565  21.660  0.00  0.00    +0.009 A 
ATOM      8  N   UNL     1       8.659  -2.156  24.677  0.00  0.00    -0.261 N 
ATOM      9  C   UNL     1       8.988   1.020  22.893  0.00  0.00    -0.007 A 
ATOM     10  C   UNL     1       8.151  -1.399  25.710  0.00  0.00    +0.273 C 
ATOM     11  O   UNL     1       7.696  -1.787  26.766  0.00  0.00    -0.268 OA
ENDROOT
BRANCH   9  12
ATOM     12  C   UNL     1       8.718   2.470  23.089  0.00  0.00    -0.017 A 
ATOM     13  C   UNL     1       7.526   3.068  22.635  0.00  0.00    +0.008 A 
ATOM     14  C   UNL     1       7.288   4.441  22.782  0.00  0.00    +0.001 A 
ATOM     15  C   UNL     1       8.252   5.258  23.361  0.00  0.00    +0.000 A 
ATOM     16  C   UNL     1       9.425   4.695  23.844  0.00  0.00    +0.001 A 
ATOM     17  C   UNL     1       9.627   3.312  23.749  0.00  0.00    +0.008 A 
ENDBRANCH   9  12
BRANCH   1  18
ATOM     18  O   UNL     1       7.657   0.857  27.232  0.00  0.00    -0.409 OA
ATOM     19  H   UNL     1       6.951   0.202  27.075  0.00  0.00    +0.328 HD
ENDBRANCH   1  18
BRANCH   8  20
ATOM     20  C   UNL     1       8.901  -3.576  24.791  0.00  0.00    +0.153 C 
BRANCH  20  21
ATOM     21  C   UNL     1       7.724  -4.462  24.460  0.00  0.00    +0.015 A 
ATOM     22  C   UNL     1       7.013  -5.131  25.471  0.00  0.00    +0.134 A 
ATOM     23  O   UNL     1       7.504  -5.054  26.749  0.00  0.00    -0.465 OA
ATOM     24  C   UNL     1       6.562  -5.459  27.742  0.00  0.00    +0.394 C 
ATOM     25  O   UNL     1       5.903  -6.679  27.436  0.00  0.00    -0.339 OA
ATOM     26  C   UNL     1       5.076  -6.503  26.293  0.00  0.00    +0.202 C 
ATOM     27  C   UNL     1       5.843  -5.853  25.184  0.00  0.00    +0.023 A 
ATOM     28  C   UNL     1       5.367  -5.893  23.869  0.00  0.00    +0.047 A 
ATOM     29  C   UNL     1       6.067  -5.237  22.865  0.00  0.00    +0.124 A 
ATOM     30  F   UNL     1       5.594  -5.263  21.612  0.00  0.00    -0.205 F 
ATOM     31  C   UNL     1       7.229  -4.524  23.145  0.00  0.00    +0.047 A 
ENDBRANCH  20  21
ENDBRANCH   8  20
TORSDOF 4
ENDMDL
MODEL 2
REMARK VINA RESULT:      -8.2      1.745      2.577
REMARK  Name = 
REMARK  4 active torsions:
REMARK  status: ('A' for Active; 'I' for Inactive)
REMARK    1  A    between atoms: O_1  and  N_2
REMARK    2  A    between atoms: N_6  and  C_7
REMARK    3  A    between atoms: C_7  and  C_8
REMARK    4  A    between atoms: C_23  and  C_25
REMARK                            x       y       z     vdW  Elec       q    Type
REMARK                         _______ _______ _______ _____ _____    ______ ____
ROOT
ATOM      1  N   UNL     1       9.142   0.237  22.315  0.00  0.00    -0.082 NA
ATOM      2  C   UNL     1       9.060  -0.550  23.338  0.00  0.00    +0.174 C 
ATOM      3  C   UNL     1       8.410  -0.228  24.622  0.00  0.00    +0.038 A 
ATOM      4  C   UNL     1       8.387  -1.442  25.336  0.00  0.00    +0.047 A 
ATOM      5  C   UNL     1       7.778  -1.534  26.575  0.00  0.00    +0.024 A 
ATOM      6  C   UNL     1       7.202  -0.383  27.105  0.00  0.00    +0.002 A 
ATOM      7  C   UNL     1       7.253   0.837  26.402  0.00  0.00    +0.009 A 
ATOM      8  N   UNL     1       9.039  -2.469  24.634  0.00  0.00    -0.261 N 
ATOM      9  C   UNL     1       7.859   0.959  25.128  0.00  0.00    -0.007 A 
ATOM     10  C   UNL     1       9.542  -2.008  23.437  0.00  0.00    +0.273 C 
ATOM     11  O   UNL     1      10.211  -2.614  22.627  0.00  0.00    -0.268 OA
ENDROOT
BRANCH   9  12
ATOM     12  C   UNL     1       7.877   2.279  24.443  0.00  0.00    -0.017 A 
ATOM     13  C   UNL     1       6.791   2.721  23.662  0.00  0.00    +0.008 A 
ATOM     14  C   UNL     1       6.823   3.947  22.983  0.00  0.00    +0.001 A 
ATOM     15  C   UNL     1       7.956   4.749  23.043  0.00  0.00    +0.000 A 
ATOM     16  C   UNL     1       9.032   4.355  23.827  0.00  0.00    +0.001 A 
ATOM     17  C   UNL     1       8.967   3.158  24.552  0.00  0.00    +0.008 A 
ENDBRANCH   9  12
BRANCH   1  18
ATOM     18  O   UNL     1       9.820  -0.345  21.245  0.00  0.00    -0.409 OA
ATOM     19  H   UNL     1      10.618  -0.708  21.672  0.00  0.00    +0.328 HD
ENDBRANCH   1  18
BRANCH   8  20
ATOM     20  C   UNL     1       9.087  -3.860  25.023  0.00  0.00    +0.153 C 
BRANCH  20  21
ATOM     21  C   UNL     1       7.861  -4.670  24.677  0.00  0.00    +0.015 A 
ATOM     22  C   UNL     1       7.080  -5.268  25.681  0.00  0.00    +0.134 A 
ATOM     23  O   UNL     1       7.540  -5.196  26.971  0.00  0.00    -0.465 OA
ATOM     24  C   UNL     1       6.547  -5.514  27.945  0.00  0.00    +0.394 C 
ATOM     25  O   UNL     1       5.814  -6.693  27.645  0.00  0.00    -0.339 OA
ATOM     26  C   UNL     1       5.032  -6.487  26.476  0.00  0.00    +0.202 C 
ATOM     27  C   UNL     1       5.871  -5.915  25.375  0.00  0.00    +0.023 A 
ATOM     28  C   UNL     1       5.429  -5.951  24.049  0.00  0.00    +0.047 A 
ATOM     29  C   UNL     1       6.198  -5.366  23.052  0.00  0.00    +0.124 A 
ATOM     30  F   UNL     1       5.758  -5.388  21.787  0.00  0.00    -0.205 F 
ATOM     31  C   UNL     1       7.399  -4.728  23.351  0.00  0.00    +0.047 A 
ENDBRANCH  20  21
ENDBRANCH   8  20
TORSDOF 4
ENDMDL
MODEL 3
REMARK VINA RESULT:      -8.2      1.767      2.384
REMARK  Name = 
REMARK  4 active torsions:
REMARK  status: ('A' for Active; 'I' for Inactive)
REMARK    1  A    between atoms: O_1  and  N_2
REMARK    2  A    between atoms: N_6  and  C_7
REMARK    3  A    between atoms: C_7  and  C_8
REMARK    4  A    between atoms: C_23  and  C_25
REMARK                            x       y       z     vdW  Elec       q    Type
REMARK                         _______ _______ _______ _____ _____    ______ ____
ROOT
ATOM      1  N   UNL     1       8.012   1.456  25.806  0.00  0.00    -0.082 NA
ATOM      2  C   UNL     1       8.230   0.359  25.157  0.00  0.00    +0.174 C 
ATOM      3  C   UNL     1       8.701   0.264  23.762  0.00  0.00    +0.038 A 
ATOM      4  C   UNL     1       8.988  -1.101  23.564  0.00  0.00    +0.047 A 
ATOM      5  C   UNL     1       9.527  -1.556  22.374  0.00  0.00    +0.024 A 
ATOM      6  C   UNL     1       9.760  -0.624  21.367  0.00  0.00    +0.002 A 
ATOM      7  C   UNL     1       9.443   0.736  21.556  0.00  0.00    +0.009 A 
ATOM      8  N   UNL     1       8.661  -1.868  24.694  0.00  0.00    -0.261 N 
ATOM      9  C   UNL     1       8.902   1.232  22.767  0.00  0.00    -0.007 A 
ATOM     10  C   UNL     1       8.129  -1.080  25.691  0.00  0.00    +0.273 C 
ATOM     11  O   UNL     1       7.684  -1.432  26.762  0.00  0.00    -0.268 OA
ENDROOT
BRANCH   9  12
ATOM     12  C   UNL     1       8.590   2.681  22.896  0.00  0.00    -0.017 A 
ATOM     13  C   UNL     1       7.465   3.253  22.270  0.00  0.00    +0.008 A 
ATOM     14  C   UNL     1       7.193   4.626  22.357  0.00  0.00    +0.001 A 
ATOM     15  C   UNL     1       8.057   5.466  23.048  0.00  0.00    +0.000 A 
ATOM     16  C   UNL     1       9.158   4.928  23.700  0.00  0.00    +0.001 A 
ATOM     17  C   UNL     1       9.389   3.547  23.659  0.00  0.00    +0.008 A 
ENDBRANCH   9  12
BRANCH   1  18
ATOM     18  O   UNL     1       7.568   1.228  27.107  0.00  0.00    -0.409 OA
ATOM     19  H   UNL     1       7.900   0.329  27.290  0.00  0.00    +0.328 HD
ENDBRANCH   1  18
BRANCH   8  20
ATOM     20  C   UNL     1       8.944  -3.274  24.872  0.00  0.00    +0.153 C 
BRANCH  20  21
ATOM     21  C   UNL     1       7.735  -4.156  25.073  0.00  0.00    +0.015 A 
ATOM     22  C   UNL     1       6.967  -4.596  23.980  0.00  0.00    +0.134 A 
ATOM     23  O   UNL     1       7.278  -4.093  22.743  0.00  0.00    -0.465 OA
ATOM     24  C   UNL     1       6.696  -4.831  21.670  0.00  0.00    +0.394 C 
ATOM     25  O   UNL     1       5.318  -5.119  21.860  0.00  0.00    -0.339 OA
ATOM     26  C   UNL     1       5.163  -6.011  22.956  0.00  0.00    +0.202 C 
ATOM     27  C   UNL     1       5.920  -5.516  24.149  0.00  0.00    +0.023 A 
ATOM     28  C   UNL     1       5.646  -6.017  25.426  0.00  0.00    +0.047 A 
ATOM     29  C   UNL     1       6.398  -5.584  26.510  0.00  0.00    +0.124 A 
ATOM     30  F   UNL     1       6.143  -6.084  27.727  0.00  0.00    -0.205 F 
ATOM     31  C   UNL     1       7.434  -4.669  26.347  0.00  0.00    +0.047 A 
ENDBRANCH  20  21
ENDBRANCH   8  20
TORSDOF 4
ENDMDL
MODEL 4
REMARK VINA RESULT:      -8.2      2.757      7.953
REMARK  Name = 
REMARK  4 active torsions:
REMARK  status: ('A' for Active; 'I' for Inactive)
REMARK    1  A    between atoms: O_1  and  N_2
REMARK    2  A    between atoms: N_6  and  C_7
REMARK    3  A    between atoms: C_7  and  C_8
REMARK    4  A    between atoms: C_23  and  C_25
REMARK                            x       y       z     vdW  Elec       q    Type
REMARK                         _______ _______ _______ _____ _____    ______ ____
ROOT
ATOM      1  N   UNL     1       6.501  -5.876  26.905  0.00  0.00    -0.082 NA
ATOM      2  C   UNL     1       6.984  -5.173  25.933  0.00  0.00    +0.174 C 
ATOM      3  C   UNL     1       6.229  -4.692  24.761  0.00  0.00    +0.038 A 
ATOM      4  C   UNL     1       7.105  -3.811  24.097  0.00  0.00    +0.047 A 
ATOM      5  C   UNL     1       6.702  -3.108  22.975  0.00  0.00    +0.024 A 
ATOM      6  C   UNL     1       5.406  -3.313  22.509  0.00  0.00    +0.002 A 
ATOM      7  C   UNL     1       4.542  -4.218  23.157  0.00  0.00    +0.009 A 
ATOM      8  N   UNL     1       8.364  -3.766  24.716  0.00  0.00    -0.261 N 
ATOM      9  C   UNL     1       4.924  -4.942  24.313  0.00  0.00    -0.007 A 
ATOM     10  C   UNL     1       8.411  -4.613  25.803  0.00  0.00    +0.273 C 
ATOM     11  O   UNL     1       9.362  -4.862  26.513  0.00  0.00    -0.268 OA
ENDROOT
BRANCH   9  12
ATOM     12  C   UNL     1       3.960  -5.882  24.945  0.00  0.00    -0.017 A 
ATOM     13  C   UNL     1       3.764  -7.185  24.446  0.00  0.00    +0.008 A 
ATOM     14  C   UNL     1       2.826  -8.059  25.015  0.00  0.00    +0.001 A 
ATOM     15  C   UNL     1       2.038  -7.639  26.080  0.00  0.00    +0.000 A 
ATOM     16  C   UNL     1       2.228  -6.371  26.613  0.00  0.00    +0.001 A 
ATOM     17  C   UNL     1       3.210  -5.528  26.077  0.00  0.00    +0.008 A 
ENDBRANCH   9  12
BRANCH   1  18
ATOM     18  O   UNL     1       7.459  -6.184  27.870  0.00  0.00    -0.409 OA
ATOM     19  H   UNL     1       7.384  -5.434  28.489  0.00  0.00    +0.328 HD
ENDBRANCH   1  18
BRANCH   8  20
ATOM     20  C   UNL     1       9.447  -2.875  24.368  0.00  0.00    +0.153 C 
BRANCH  20  21
ATOM     21  C   UNL     1       9.204  -1.415  24.667  0.00  0.00    +0.015 A 
ATOM     22  C   UNL     1       9.354  -0.436  23.670  0.00  0.00    +0.134 A 
ATOM     23  O   UNL     1       9.850  -0.837  22.456  0.00  0.00    -0.465 OA
ATOM     24  C   UNL     1       9.650   0.122  21.418  0.00  0.00    +0.394 C 
ATOM     25  O   UNL     1      10.005   1.445  21.792  0.00  0.00    -0.339 OA
ATOM     26  C   UNL     1       9.121   1.910  22.804  0.00  0.00    +0.202 C 
ATOM     27  C   UNL     1       9.008   0.904  23.907  0.00  0.00    +0.023 A 
ATOM     28  C   UNL     1       8.490   1.268  25.155  0.00  0.00    +0.047 A 
ATOM     29  C   UNL     1       8.343   0.307  26.145  0.00  0.00    +0.124 A 
ATOM     30  F   UNL     1       7.828   0.660  27.330  0.00  0.00    -0.205 F 
ATOM     31  C   UNL     1       8.689  -1.022  25.915  0.00  0.00    +0.047 A 
ENDBRANCH  20  21
ENDBRANCH   8  20
TORSDOF 4
ENDMDL
MODEL 5
REMARK VINA RESULT:      -8.0      2.448      7.385
REMARK  Name = 
REMARK  4 active torsions:
REMARK  status: ('A' for Active; 'I' for Inactive)
REMARK    1  A    between atoms: O_1  and  N_2
REMARK    2  A    between atoms: N_6  and  C_7
REMARK    3  A    between atoms: C_7  and  C_8
REMARK    4  A    between atoms: C_23  and  C_25
REMARK                            x       y       z     vdW  Elec       q    Type
REMARK                         _______ _______ _______ _____ _____    ______ ____
ROOT
ATOM      1  N   UNL     1       6.721  -5.703  26.669  0.00  0.00    -0.082 NA
ATOM      2  C   UNL     1       7.239  -5.048  25.682  0.00  0.00    +0.174 C 
ATOM      3  C   UNL     1       6.513  -4.570  24.491  0.00  0.00    +0.038 A 
ATOM      4  C   UNL     1       7.429  -3.745  23.809  0.00  0.00    +0.047 A 
ATOM      5  C   UNL     1       7.063  -3.059  22.665  0.00  0.00    +0.024 A 
ATOM      6  C   UNL     1       5.763  -3.222  22.195  0.00  0.00    +0.002 A 
ATOM      7  C   UNL     1       4.858  -4.072  22.861  0.00  0.00    +0.009 A 
ATOM      8  N   UNL     1       8.685  -3.736  24.437  0.00  0.00    -0.261 N 
ATOM      9  C   UNL     1       5.201  -4.778  24.040  0.00  0.00    -0.007 A 
ATOM     10  C   UNL     1       8.689  -4.553  25.547  0.00  0.00    +0.273 C 
ATOM     11  O   UNL     1       9.624  -4.821  26.271  0.00  0.00    -0.268 OA
ENDROOT
BRANCH   9  12
ATOM     12  C   UNL     1       4.194  -5.658  24.691  0.00  0.00    -0.017 A 
ATOM     13  C   UNL     1       4.118  -7.035  24.400  0.00  0.00    +0.008 A 
ATOM     14  C   UNL     1       3.144  -7.858  24.982  0.00  0.00    +0.001 A 
ATOM     15  C   UNL     1       2.200  -7.318  25.847  0.00  0.00    +0.000 A 
ATOM     16  C   UNL     1       2.266  -5.971  26.176  0.00  0.00    +0.001 A 
ATOM     17  C   UNL     1       3.280  -5.169  25.638  0.00  0.00    +0.008 A 
ENDBRANCH   9  12
BRANCH   1  18
ATOM     18  O   UNL     1       7.658  -6.023  27.650  0.00  0.00    -0.409 OA
ATOM     19  H   UNL     1       8.016  -5.149  27.895  0.00  0.00    +0.328 HD
ENDBRANCH   1  18
BRANCH   8  20
ATOM     20  C   UNL     1       9.807  -2.902  24.072  0.00  0.00    +0.153 C 
BRANCH  20  21
ATOM     21  C   UNL     1       9.485  -1.442  23.862  0.00  0.00    +0.015 A 
ATOM     22  C   UNL     1       8.875  -0.680  24.875  0.00  0.00    +0.134 A 
ATOM     23  O   UNL     1       8.469  -1.339  26.006  0.00  0.00    -0.465 OA
ATOM     24  C   UNL     1       8.184  -0.465  27.098  0.00  0.00    +0.394 C 
ATOM     25  O   UNL     1       7.374   0.645  26.740  0.00  0.00    -0.339 OA
ATOM     26  C   UNL     1       8.093   1.495  25.855  0.00  0.00    +0.202 C 
ATOM     27  C   UNL     1       8.689   0.704  24.733  0.00  0.00    +0.023 A 
ATOM     28  C   UNL     1       9.133   1.341  23.569  0.00  0.00    +0.047 A 
ATOM     29  C   UNL     1       9.732   0.594  22.564  0.00  0.00    +0.124 A 
ATOM     30  F   UNL     1      10.173   1.214  21.460  0.00  0.00    -0.205 F 
ATOM     31  C   UNL     1       9.915  -0.780  22.699  0.00  0.00    +0.047 A 
ENDBRANCH  20  21
ENDBRANCH   8  20
TORSDOF 4
ENDMDL
MODEL 6
REMARK VINA RESULT:      -8.0      2.502      3.487
REMARK  Name = 
REMARK  4 active torsions:
REMARK  status: ('A' for Active; 'I' for Inactive)
REMARK    1  A    between atoms: O_1  and  N_2
REMARK    2  A    between atoms: N_6  and  C_7
REMARK    3  A    between atoms: C_7  and  C_8
REMARK    4  A    between atoms: C_23  and  C_25
REMARK                            x       y       z     vdW  Elec       q    Type
REMARK                         _______ _______ _______ _____ _____    ______ ____
ROOT
ATOM      1  N   UNL     1       9.150   0.310  22.315  0.00  0.00    -0.082 NA
ATOM      2  C   UNL     1       9.093  -0.473  23.343  0.00  0.00    +0.174 C 
ATOM      3  C   UNL     1       8.470  -0.147  24.640  0.00  0.00    +0.038 A 
ATOM      4  C   UNL     1       8.467  -1.358  25.360  0.00  0.00    +0.047 A 
ATOM      5  C   UNL     1       7.886  -1.447  26.612  0.00  0.00    +0.024 A 
ATOM      6  C   UNL     1       7.317  -0.296  27.149  0.00  0.00    +0.002 A 
ATOM      7  C   UNL     1       7.348   0.921  26.440  0.00  0.00    +0.009 A 
ATOM      8  N   UNL     1       9.107  -2.386  24.648  0.00  0.00    -0.261 N 
ATOM      9  C   UNL     1       7.926   1.040  25.153  0.00  0.00    -0.007 A 
ATOM     10  C   UNL     1       9.582  -1.928  23.438  0.00  0.00    +0.273 C 
ATOM     11  O   UNL     1      10.235  -2.535  22.616  0.00  0.00    -0.268 OA
ENDROOT
BRANCH   9  12
ATOM     12  C   UNL     1       7.924   2.357  24.462  0.00  0.00    -0.017 A 
ATOM     13  C   UNL     1       6.827   2.783  23.687  0.00  0.00    +0.008 A 
ATOM     14  C   UNL     1       6.840   4.007  23.002  0.00  0.00    +0.001 A 
ATOM     15  C   UNL     1       7.965   4.821  23.050  0.00  0.00    +0.000 A 
ATOM     16  C   UNL     1       9.051   4.443  23.828  0.00  0.00    +0.001 A 
ATOM     17  C   UNL     1       9.005   3.248  24.559  0.00  0.00    +0.008 A 
ENDBRANCH   9  12
BRANCH   1  18
ATOM     18  O   UNL     1       9.806  -0.274  21.233  0.00  0.00    -0.409 OA
ATOM     19  H   UNL     1      10.573  -0.702  21.657  0.00  0.00    +0.328 HD
ENDBRANCH   1  18
BRANCH   8  20
ATOM     20  C   UNL     1       9.169  -3.775  25.041  0.00  0.00    +0.153 C 
BRANCH  20  21
ATOM     21  C   UNL     1       7.834  -4.459  25.210  0.00  0.00    +0.015 A 
ATOM     22  C   UNL     1       7.036  -4.779  24.098  0.00  0.00    +0.134 A 
ATOM     23  O   UNL     1       7.453  -4.336  22.869  0.00  0.00    -0.465 OA
ATOM     24  C   UNL     1       6.792  -4.980  21.781  0.00  0.00    +0.394 C 
ATOM     25  O   UNL     1       5.382  -5.051  21.935  0.00  0.00    -0.339 OA
ATOM     26  C   UNL     1       5.062  -5.903  23.027  0.00  0.00    +0.202 C 
ATOM     27  C   UNL     1       5.855  -5.526  24.239  0.00  0.00    +0.023 A 
ATOM     28  C   UNL     1       5.474  -5.974  25.509  0.00  0.00    +0.047 A 
ATOM     29  C   UNL     1       6.255  -5.657  26.612  0.00  0.00    +0.124 A 
ATOM     30  F   UNL     1       5.894  -6.106  27.821  0.00  0.00    -0.205 F 
ATOM     31  C   UNL     1       7.424  -4.913  26.476  0.00  0.00    +0.047 A 
ENDBRANCH  20  21
ENDBRANCH   8  20
TORSDOF 4
ENDMDL
MODEL 7
REMARK VINA RESULT:      -7.9      3.295      8.356
REMARK  Name = 
REMARK  4 active torsions:
REMARK  status: ('A' for Active; 'I' for Inactive)
REMARK    1  A    between atoms: O_1  and  N_2
REMARK    2  A    between atoms: N_6  and  C_7
REMARK    3  A    between atoms: C_7  and  C_8
REMARK    4  A    between atoms: C_23  and  C_25
REMARK                            x       y       z     vdW  Elec       q    Type
REMARK                         _______ _______ _______ _____ _____    ______ ____
ROOT
ATOM      1  N   UNL     1       5.118  -5.625  21.943  0.00  0.00    -0.082 NA
ATOM      2  C   UNL     1       5.757  -5.220  22.992  0.00  0.00    +0.174 C 
ATOM      3  C   UNL     1       5.352  -5.454  24.390  0.00  0.00    +0.038 A 
ATOM      4  C   UNL     1       6.445  -5.020  25.166  0.00  0.00    +0.047 A 
ATOM      5  C   UNL     1       6.447  -5.156  26.543  0.00  0.00    +0.024 A 
ATOM      6  C   UNL     1       5.325  -5.720  27.143  0.00  0.00    +0.002 A 
ATOM      7  C   UNL     1       4.220  -6.126  26.368  0.00  0.00    +0.009 A 
ATOM      8  N   UNL     1       7.459  -4.465  24.369  0.00  0.00    -0.261 N 
ATOM      9  C   UNL     1       4.195  -6.009  24.957  0.00  0.00    -0.007 A 
ATOM     10  C   UNL     1       7.105  -4.479  23.037  0.00  0.00    +0.273 C 
ATOM     11  O   UNL     1       7.718  -4.019  22.097  0.00  0.00    -0.268 OA
ENDROOT
BRANCH   9  12
ATOM     12  C   UNL     1       2.994  -6.457  24.201  0.00  0.00    -0.017 A 
ATOM     13  C   UNL     1       2.637  -7.817  24.121  0.00  0.00    +0.008 A 
ATOM     14  C   UNL     1       1.530  -8.245  23.375  0.00  0.00    +0.001 A 
ATOM     15  C   UNL     1       0.768  -7.325  22.666  0.00  0.00    +0.000 A 
ATOM     16  C   UNL     1       1.077  -5.974  22.748  0.00  0.00    +0.001 A 
ATOM     17  C   UNL     1       2.148  -5.549  23.545  0.00  0.00    +0.008 A 
ENDBRANCH   9  12
BRANCH   1  18
ATOM     18  O   UNL     1       5.743  -5.248  20.756  0.00  0.00    -0.409 OA
ATOM     19  H   UNL     1       5.107  -4.617  20.372  0.00  0.00    +0.328 HD
ENDBRANCH   1  18
BRANCH   8  20
ATOM     20  C   UNL     1       8.761  -4.041  24.830  0.00  0.00    +0.153 C 
BRANCH  20  21
ATOM     21  C   UNL     1       8.880  -2.576  25.173  0.00  0.00    +0.015 A 
ATOM     22  C   UNL     1       9.319  -1.641  24.220  0.00  0.00    +0.134 A 
ATOM     23  O   UNL     1       9.756  -2.122  23.013  0.00  0.00    -0.465 OA
ATOM     24  C   UNL     1       9.854  -1.117  22.005  0.00  0.00    +0.394 C 
ATOM     25  O   UNL     1      10.513   0.063  22.442  0.00  0.00    -0.339 OA
ATOM     26  C   UNL     1       9.728   0.710  23.435  0.00  0.00    +0.202 C 
ATOM     27  C   UNL     1       9.312  -0.263  24.494  0.00  0.00    +0.023 A 
ATOM     28  C   UNL     1       8.843   0.188  25.733  0.00  0.00    +0.047 A 
ATOM     29  C   UNL     1       8.412  -0.731  26.679  0.00  0.00    +0.124 A 
ATOM     30  F   UNL     1       7.945  -0.290  27.856  0.00  0.00    -0.205 F 
ATOM     31  C   UNL     1       8.422  -2.098  26.413  0.00  0.00    +0.047 A 
ENDBRANCH  20  21
ENDBRANCH   8  20
TORSDOF 4
ENDMDL
MODEL 8
REMARK VINA RESULT:      -7.6      3.003      7.898
REMARK  Name = 
REMARK  4 active torsions:
REMARK  status: ('A' for Active; 'I' for Inactive)
REMARK    1  A    between atoms: O_1  and  N_2
REMARK    2  A    between atoms: N_6  and  C_7
REMARK    3  A    between atoms: C_7  and  C_8
REMARK    4  A    between atoms: C_23  and  C_25
REMARK                            x       y       z     vdW  Elec       q    Type
REMARK                         _______ _______ _______ _____ _____    ______ ____
ROOT
ATOM      1  N   UNL     1       4.416  -5.587  26.630  0.00  0.00    -0.082 NA
ATOM      2  C   UNL     1       5.517  -5.384  25.983  0.00  0.00    +0.174 C 
ATOM      3  C   UNL     1       5.675  -5.430  24.517  0.00  0.00    +0.038 A 
ATOM      4  C   UNL     1       6.976  -4.946  24.273  0.00  0.00    +0.047 A 
ATOM      5  C   UNL     1       7.450  -4.781  22.984  0.00  0.00    +0.024 A 
ATOM      6  C   UNL     1       6.607  -5.126  21.931  0.00  0.00    +0.002 A 
ATOM      7  C   UNL     1       5.318  -5.639  22.178  0.00  0.00    +0.009 A 
ATOM      8  N   UNL     1       7.662  -4.679  25.468  0.00  0.00    -0.261 N 
ATOM      9  C   UNL     1       4.802  -5.808  23.486  0.00  0.00    -0.007 A 
ATOM     10  C   UNL     1       6.882  -4.978  26.564  0.00  0.00    +0.273 C 
ATOM     11  O   UNL     1       7.192  -4.927  27.736  0.00  0.00    -0.268 OA
ENDROOT
BRANCH   9  12
ATOM     12  C   UNL     1       3.432  -6.355  23.673  0.00  0.00    -0.017 A 
ATOM     13  C   UNL     1       3.217  -7.649  24.188  0.00  0.00    +0.008 A 
ATOM     14  C   UNL     1       1.928  -8.183  24.326  0.00  0.00    +0.001 A 
ATOM     15  C   UNL     1       0.821  -7.445  23.924  0.00  0.00    +0.000 A 
ATOM     16  C   UNL     1       0.997  -6.156  23.440  0.00  0.00    +0.001 A 
ATOM     17  C   UNL     1       2.285  -5.608  23.363  0.00  0.00    +0.008 A 
ENDBRANCH   9  12
BRANCH   1  18
ATOM     18  O   UNL     1       4.579  -5.480  28.010  0.00  0.00    -0.409 OA
ATOM     19  H   UNL     1       5.508  -5.750  28.135  0.00  0.00    +0.328 HD
ENDBRANCH   1  18
BRANCH   8  20
ATOM     20  C   UNL     1       8.962  -4.057  25.576  0.00  0.00    +0.153 C 
BRANCH  20  21
ATOM     21  C   UNL     1       8.955  -2.548  25.626  0.00  0.00    +0.015 A 
ATOM     22  C   UNL     1       9.385  -1.784  24.527  0.00  0.00    +0.134 A 
ATOM     23  O   UNL     1       9.930  -2.455  23.462  0.00  0.00    -0.465 OA
ATOM     24  C   UNL     1      10.019  -1.661  22.280  0.00  0.00    +0.394 C 
ATOM     25  O   UNL     1      10.564  -0.369  22.503  0.00  0.00    -0.339 OA
ATOM     26  C   UNL     1       9.674   0.393  23.308  0.00  0.00    +0.202 C 
ATOM     27  C   UNL     1       9.263  -0.385  24.520  0.00  0.00    +0.023 A 
ATOM     28  C   UNL     1       8.686   0.259  25.620  0.00  0.00    +0.047 A 
ATOM     29  C   UNL     1       8.263  -0.490  26.709  0.00  0.00    +0.124 A 
ATOM     30  F   UNL     1       7.694   0.132  27.751  0.00  0.00    -0.205 F 
ATOM     31  C   UNL     1       8.387  -1.877  26.722  0.00  0.00    +0.047 A 
ENDBRANCH  20  21
ENDBRANCH   8  20
TORSDOF 4
ENDMDL
MODEL 9
REMARK VINA RESULT:      -7.6      3.529      8.390
REMARK  Name = 
REMARK  4 active torsions:
REMARK  status: ('A' for Active; 'I' for Inactive)
REMARK    1  A    between atoms: O_1  and  N_2
REMARK    2  A    between atoms: N_6  and  C_7
REMARK    3  A    between atoms: C_7  and  C_8
REMARK    4  A    between atoms: C_23  and  C_25
REMARK                            x       y       z     vdW  Elec       q    Type
REMARK                         _______ _______ _______ _____ _____    ______ ____
ROOT
ATOM      1  N   UNL     1       9.131  -1.947  22.144  0.00  0.00    -0.082 NA
ATOM      2  C   UNL     1       8.486  -1.098  22.877  0.00  0.00    +0.174 C 
ATOM      3  C   UNL     1       7.288  -1.395  23.685  0.00  0.00    +0.038 A 
ATOM      4  C   UNL     1       7.071  -0.237  24.458  0.00  0.00    +0.047 A 
ATOM      5  C   UNL     1       6.059  -0.181  25.399  0.00  0.00    +0.024 A 
ATOM      6  C   UNL     1       5.245  -1.301  25.547  0.00  0.00    +0.002 A 
ATOM      7  C   UNL     1       5.445  -2.447  24.751  0.00  0.00    +0.009 A 
ATOM      8  N   UNL     1       7.987   0.779  24.138  0.00  0.00    -0.261 N 
ATOM      9  C   UNL     1       6.480  -2.537  23.789  0.00  0.00    -0.007 A 
ATOM     10  C   UNL     1       8.845   0.375  23.138  0.00  0.00    +0.273 C 
ATOM     11  O   UNL     1       9.705   1.027  22.586  0.00  0.00    -0.268 OA
ENDROOT
BRANCH   9  12
ATOM     12  C   UNL     1       6.632  -3.778  22.983  0.00  0.00    -0.017 A 
ATOM     13  C   UNL     1       5.975  -3.942  21.748  0.00  0.00    +0.008 A 
ATOM     14  C   UNL     1       6.085  -5.127  21.007  0.00  0.00    +0.001 A 
ATOM     15  C   UNL     1       6.831  -6.191  21.499  0.00  0.00    +0.000 A 
ATOM     16  C   UNL     1       7.514  -6.050  22.699  0.00  0.00    +0.001 A 
ATOM     17  C   UNL     1       7.448  -4.840  23.403  0.00  0.00    +0.008 A 
ENDBRANCH   9  12
BRANCH   1  18
ATOM     18  O   UNL     1      10.221  -1.371  21.493  0.00  0.00    -0.409 OA
ATOM     19  H   UNL     1      10.979  -1.725  21.996  0.00  0.00    +0.328 HD
ENDBRANCH   1  18
BRANCH   8  20
ATOM     20  C   UNL     1       8.123   2.042  24.826  0.00  0.00    +0.153 C 
BRANCH  20  21
ATOM     21  C   UNL     1       7.457   3.219  24.154  0.00  0.00    +0.015 A 
ATOM     22  C   UNL     1       8.160   4.412  23.917  0.00  0.00    +0.134 A 
ATOM     23  O   UNL     1       9.428   4.514  24.430  0.00  0.00    -0.465 OA
ATOM     24  C   UNL     1      10.182   5.587  23.865  0.00  0.00    +0.394 C 
ATOM     25  O   UNL     1       9.468   6.814  23.808  0.00  0.00    -0.339 OA
ATOM     26  C   UNL     1       8.386   6.695  22.894  0.00  0.00    +0.202 C 
ATOM     27  C   UNL     1       7.587   5.462  23.182  0.00  0.00    +0.023 A 
ATOM     28  C   UNL     1       6.297   5.311  22.661  0.00  0.00    +0.047 A 
ATOM     29  C   UNL     1       5.595   4.136  22.896  0.00  0.00    +0.124 A 
ATOM     30  F   UNL     1       4.368   3.991  22.378  0.00  0.00    -0.205 F 
ATOM     31  C   UNL     1       6.159   3.095  23.628  0.00  0.00    +0.047 A 
ENDBRANCH  20  21
ENDBRANCH   8  20
TORSDOF 4
ENDMDL
