MODEL 1
REMARK VINA RESULT:      -5.0      0.000      0.000
REMARK  Name = 
REMARK  6 active torsions:
REMARK  status: ('A' for Active; 'I' for Inactive)
REMARK    1  A    between atoms: C_1  and  N_2
REMARK    2  A    between atoms: N_2  and  C_3
REMARK    3  A    between atoms: C_3  and  C_5
REMARK    4  A    between atoms: C_3  and  C_6
REMARK    5  A    between atoms: C_6  and  O_8
REMARK    6  A    between atoms: C_6  and  C_9
REMARK                            x       y       z     vdW  Elec       q    Type
REMARK                         _______ _______ _______ _____ _____    ______ ____
ROOT
ATOM      1  C   UNL     1      10.229   2.096  22.260  0.00  0.00    +0.161 C 
ENDROOT
BRANCH   1   2
ATOM      2  C   UNL     1      10.018   0.629  22.601  0.00  0.00    -0.018 A 
ATOM      3  C   UNL     1      10.204   0.143  23.904  0.00  0.00    +0.006 A 
ATOM      4  C   UNL     1       9.971  -1.200  24.211  0.00  0.00    +0.000 A 
ATOM      5  C   UNL     1       9.543  -2.077  23.219  0.00  0.00    +0.000 A 
ATOM      6  C   UNL     1       9.350  -1.612  21.920  0.00  0.00    +0.000 A 
ATOM      7  C   UNL     1       9.588  -0.269  21.611  0.00  0.00    +0.006 A 
ENDBRANCH   1   2
BRANCH   1   8
ATOM      8  C   UNL     1      10.566   3.072  23.439  0.00  0.00    +0.083 C 
ATOM      9  C   UNL     1       9.290   3.693  24.012  0.00  0.00    +0.027 C 
BRANCH   8  11
ATOM     10  C   UNL     1      11.333   5.401  23.619  0.00  0.00    +0.101 C 
ATOM     11  N   UNL     1      11.575   4.085  23.050  0.00  0.00    -0.314 NA
ATOM     12  H   UNL     1      12.477   3.737  23.388  0.00  0.00    +0.122 HD
ENDBRANCH   8  11
ENDBRANCH   1   8
BRANCH   1  13
ATOM     13  O   UNL     1       9.071   2.586  21.562  0.00  0.00    -0.386 OA
ATOM     14  H   UNL     1       9.106   2.201  20.668  0.00  0.00    +0.210 HD
ENDBRANCH   1  13
TORSDOF 4
ENDMDL
MODEL 2
REMARK VINA RESULT:      -4.8      1.554      2.456
REMARK  Name = 
REMARK  6 active torsions:
REMARK  status: ('A' for Active; 'I' for Inactive)
REMARK    1  A    between atoms: C_1  and  N_2
REMARK    2  A    between atoms: N_2  and  C_3
REMARK    3  A    between atoms: C_3  and  C_5
REMARK    4  A    between atoms: C_3  and  C_6
REMARK    5  A    between atoms: C_6  and  O_8
REMARK    6  A    between atoms: C_6  and  C_9
REMARK                            x       y       z     vdW  Elec       q    Type
REMARK                         _______ _______ _______ _____ _____    ______ ____
ROOT
ATOM      1  C   UNL     1      10.538   3.077  23.624  0.00  0.00    +0.161 C 
ENDROOT
BRANCH   1   2
ATOM      2  C   UNL     1      10.237   1.676  23.116  0.00  0.00    -0.018 A 
ATOM      3  C   UNL     1       9.669   1.458  21.851  0.00  0.00    +0.006 A 
ATOM      4  C   UNL     1       9.431   0.164  21.383  0.00  0.00    +0.000 A 
ATOM      5  C   UNL     1       9.763  -0.935  22.171  0.00  0.00    +0.000 A 
ATOM      6  C   UNL     1      10.330  -0.738  23.428  0.00  0.00    +0.000 A 
ATOM      7  C   UNL     1      10.564   0.558  23.899  0.00  0.00    +0.006 A 
ENDBRANCH   1   2
BRANCH   1   8
ATOM      8  C   UNL     1       9.323   3.960  24.075  0.00  0.00    +0.083 C 
ATOM      9  C   UNL     1       8.282   3.116  24.813  0.00  0.00    +0.027 C 
BRANCH   8  11
ATOM     10  C   UNL     1       7.405   4.307  22.577  0.00  0.00    +0.101 C 
ATOM     11  N   UNL     1       8.747   4.728  22.946  0.00  0.00    -0.314 NA
ATOM     12  H   UNL     1       8.717   5.706  23.249  0.00  0.00    +0.122 HD
ENDBRANCH   8  11
ENDBRANCH   1   8
BRANCH   1  13
ATOM     13  O   UNL     1      11.287   3.788  22.621  0.00  0.00    -0.386 OA
ATOM     14  H   UNL     1      11.796   4.471  23.093  0.00  0.00    +0.210 HD
ENDBRANCH   1  13
TORSDOF 4
ENDMDL
MODEL 3
REMARK VINA RESULT:      -4.8      3.407      5.439
REMARK  Name = 
REMARK  6 active torsions:
REMARK  status: ('A' for Active; 'I' for Inactive)
REMARK    1  A    between atoms: C_1  and  N_2
REMARK    2  A    between atoms: N_2  and  C_3
REMARK    3  A    between atoms: C_3  and  C_5
REMARK    4  A    between atoms: C_3  and  C_6
REMARK    5  A    between atoms: C_6  and  O_8
REMARK    6  A    between atoms: C_6  and  C_9
REMARK                            x       y       z     vdW  Elec       q    Type
REMARK                         _______ _______ _______ _____ _____    ______ ____
ROOT
ATOM      1  C   UNL     1       9.485  -1.942  22.561  0.00  0.00    +0.161 C 
ENDROOT
BRANCH   1   2
ATOM      2  C   UNL     1       9.824  -0.484  22.833  0.00  0.00    -0.018 A 
ATOM      3  C   UNL     1      10.319  -0.064  24.077  0.00  0.00    +0.006 A 
ATOM      4  C   UNL     1      10.659   1.272  24.301  0.00  0.00    +0.000 A 
ATOM      5  C   UNL     1      10.515   2.209  23.282  0.00  0.00    +0.000 A 
ATOM      6  C   UNL     1      10.027   1.810  22.039  0.00  0.00    +0.000 A 
ATOM      7  C   UNL     1       9.682   0.473  21.816  0.00  0.00    +0.006 A 
ENDBRANCH   1   2
BRANCH   1   8
ATOM      8  C   UNL     1       7.972  -2.314  22.389  0.00  0.00    +0.083 C 
ATOM      9  C   UNL     1       7.092  -1.447  23.292  0.00  0.00    +0.027 C 
BRANCH   8  11
ATOM     10  C   UNL     1       6.518  -4.243  21.935  0.00  0.00    +0.101 C 
ATOM     11  N   UNL     1       7.733  -3.764  22.573  0.00  0.00    -0.314 NA
ATOM     12  H   UNL     1       8.538  -4.243  22.157  0.00  0.00    +0.122 HD
ENDBRANCH   8  11
ENDBRANCH   1   8
BRANCH   1  13
ATOM     13  O   UNL     1      10.052  -2.756  23.603  0.00  0.00    -0.386 OA
ATOM     14  H   UNL     1       9.967  -2.245  24.427  0.00  0.00    +0.210 HD
ENDBRANCH   1  13
TORSDOF 4
ENDMDL
MODEL 4
REMARK VINA RESULT:      -4.6      2.763      3.948
REMARK  Name = 
REMARK  6 active torsions:
REMARK  status: ('A' for Active; 'I' for Inactive)
REMARK    1  A    between atoms: C_1  and  N_2
REMARK    2  A    between atoms: N_2  and  C_3
REMARK    3  A    between atoms: C_3  and  C_5
REMARK    4  A    between atoms: C_3  and  C_6
REMARK    5  A    between atoms: C_6  and  O_8
REMARK    6  A    between atoms: C_6  and  C_9
REMARK                            x       y       z     vdW  Elec       q    Type
REMARK                         _______ _______ _______ _____ _____    ______ ____
ROOT
ATOM      1  C   UNL     1       9.877  -1.311  22.821  0.00  0.00    +0.161 C 
ENDROOT
BRANCH   1   2
ATOM      2  C   UNL     1       9.085  -2.532  23.261  0.00  0.00    -0.018 A 
ATOM      3  C   UNL     1       7.938  -2.953  22.570  0.00  0.00    +0.006 A 
ATOM      4  C   UNL     1       7.241  -4.098  22.964  0.00  0.00    +0.000 A 
ATOM      5  C   UNL     1       7.684  -4.843  24.053  0.00  0.00    +0.000 A 
ATOM      6  C   UNL     1       8.822  -4.443  24.749  0.00  0.00    +0.000 A 
ATOM      7  C   UNL     1       9.518  -3.294  24.358  0.00  0.00    +0.006 A 
ENDBRANCH   1   2
BRANCH   1   8
ATOM      8  C   UNL     1       9.171   0.085  22.923  0.00  0.00    +0.083 C 
ATOM      9  C   UNL     1       9.536   0.968  21.728  0.00  0.00    +0.027 C 
BRANCH   8  11
ATOM     10  C   UNL     1      10.764   0.501  24.749  0.00  0.00    +0.101 C 
ATOM     11  N   UNL     1       9.429   0.743  24.225  0.00  0.00    -0.314 NA
ATOM     12  H   UNL     1       9.311   1.748  24.068  0.00  0.00    +0.122 HD
ENDBRANCH   8  11
ENDBRANCH   1   8
BRANCH   1  13
ATOM     13  O   UNL     1      10.331  -1.509  21.470  0.00  0.00    -0.386 OA
ATOM     14  H   UNL     1      11.226  -1.887  21.535  0.00  0.00    +0.210 HD
ENDBRANCH   1  13
TORSDOF 4
ENDMDL
MODEL 5
REMARK VINA RESULT:      -4.5      4.987      6.774
REMARK  Name = 
REMARK  6 active torsions:
REMARK  status: ('A' for Active; 'I' for Inactive)
REMARK    1  A    between atoms: C_1  and  N_2
REMARK    2  A    between atoms: N_2  and  C_3
REMARK    3  A    between atoms: C_3  and  C_5
REMARK    4  A    between atoms: C_3  and  C_6
REMARK    5  A    between atoms: C_6  and  O_8
REMARK    6  A    between atoms: C_6  and  C_9
REMARK                            x       y       z     vdW  Elec       q    Type
REMARK                         _______ _______ _______ _____ _____    ______ ____
ROOT
ATOM      1  C   UNL     1       8.631  -4.743  24.989  0.00  0.00    +0.161 C 
ENDROOT
BRANCH   1   2
ATOM      2  C   UNL     1       7.432  -5.184  24.163  0.00  0.00    -0.018 A 
ATOM      3  C   UNL     1       6.163  -5.350  24.740  0.00  0.00    +0.006 A 
ATOM      4  C   UNL     1       5.063  -5.721  23.963  0.00  0.00    +0.000 A 
ATOM      5  C   UNL     1       5.215  -5.928  22.595  0.00  0.00    +0.000 A 
ATOM      6  C   UNL     1       6.466  -5.766  22.004  0.00  0.00    +0.000 A 
ATOM      7  C   UNL     1       7.569  -5.399  22.783  0.00  0.00    +0.006 A 
ENDBRANCH   1   2
BRANCH   1   8
ATOM      8  C   UNL     1       9.081  -3.246  24.867  0.00  0.00    +0.083 C 
ATOM      9  C   UNL     1       7.875  -2.332  24.640  0.00  0.00    +0.027 C 
BRANCH   8  11
ATOM     10  C   UNL     1      10.032  -1.821  23.104  0.00  0.00    +0.101 C 
ATOM     11  N   UNL     1      10.140  -3.067  23.847  0.00  0.00    -0.314 NA
ATOM     12  H   UNL     1      11.031  -3.076  24.352  0.00  0.00    +0.122 HD
ENDBRANCH   8  11
ENDBRANCH   1   8
BRANCH   1  13
ATOM     13  O   UNL     1       9.750  -5.594  24.683  0.00  0.00    -0.386 OA
ATOM     14  H   UNL     1      10.310  -5.607  25.479  0.00  0.00    +0.210 HD
ENDBRANCH   1  13
TORSDOF 4
ENDMDL
MODEL 6
REMARK VINA RESULT:      -4.5      3.792      5.344
REMARK  Name = 
REMARK  6 active torsions:
REMARK  status: ('A' for Active; 'I' for Inactive)
REMARK    1  A    between atoms: C_1  and  N_2
REMARK    2  A    between atoms: N_2  and  C_3
REMARK    3  A    between atoms: C_3  and  C_5
REMARK    4  A    between atoms: C_3  and  C_6
REMARK    5  A    between atoms: C_6  and  O_8
REMARK    6  A    between atoms: C_6  and  C_9
REMARK                            x       y       z     vdW  Elec       q    Type
REMARK                         _______ _______ _______ _____ _____    ______ ____
ROOT
ATOM      1  C   UNL     1       8.805  -3.023  24.188  0.00  0.00    +0.161 C 
ENDROOT
BRANCH   1   2
ATOM      2  C   UNL     1       7.855  -3.767  23.263  0.00  0.00    -0.018 A 
ATOM      3  C   UNL     1       7.831  -5.169  23.205  0.00  0.00    +0.006 A 
ATOM      4  C   UNL     1       6.929  -5.840  22.377  0.00  0.00    +0.000 A 
ATOM      5  C   UNL     1       6.030  -5.117  21.597  0.00  0.00    +0.000 A 
ATOM      6  C   UNL     1       6.037  -3.725  21.642  0.00  0.00    +0.000 A 
ATOM      7  C   UNL     1       6.944  -3.053  22.468  0.00  0.00    +0.006 A 
ENDBRANCH   1   2
BRANCH   1   8
ATOM      8  C   UNL     1       9.232  -1.572  23.773  0.00  0.00    +0.083 C 
ATOM      9  C   UNL     1      10.327  -1.612  22.705  0.00  0.00    +0.027 C 
BRANCH   8  11
ATOM     10  C   UNL     1      10.550   0.312  24.642  0.00  0.00    +0.101 C 
ATOM     11  N   UNL     1       9.601  -0.746  24.947  0.00  0.00    -0.314 NA
ATOM     12  H   UNL     1       8.732  -0.325  25.288  0.00  0.00    +0.122 HD
ENDBRANCH   8  11
ENDBRANCH   1   8
BRANCH   1  13
ATOM     13  O   UNL     1       9.986  -3.820  24.386  0.00  0.00    -0.386 OA
ATOM     14  H   UNL     1      10.145  -4.287  23.547  0.00  0.00    +0.210 HD
ENDBRANCH   1  13
TORSDOF 4
ENDMDL
MODEL 7
REMARK VINA RESULT:      -4.5      3.282      5.711
REMARK  Name = 
REMARK  6 active torsions:
REMARK  status: ('A' for Active; 'I' for Inactive)
REMARK    1  A    between atoms: C_1  and  N_2
REMARK    2  A    between atoms: N_2  and  C_3
REMARK    3  A    between atoms: C_3  and  C_5
REMARK    4  A    between atoms: C_3  and  C_6
REMARK    5  A    between atoms: C_6  and  O_8
REMARK    6  A    between atoms: C_6  and  C_9
REMARK                            x       y       z     vdW  Elec       q    Type
REMARK                         _______ _______ _______ _____ _____    ______ ____
ROOT
ATOM      1  C   UNL     1       9.174  -1.636  24.650  0.00  0.00    +0.161 C 
ENDROOT
BRANCH   1   2
ATOM      2  C   UNL     1       9.561  -0.396  23.859  0.00  0.00    -0.018 A 
ATOM      3  C   UNL     1       9.286  -0.283  22.487  0.00  0.00    +0.006 A 
ATOM      4  C   UNL     1       9.615   0.876  21.781  0.00  0.00    +0.000 A 
ATOM      5  C   UNL     1      10.219   1.945  22.437  0.00  0.00    +0.000 A 
ATOM      6  C   UNL     1      10.497   1.852  23.799  0.00  0.00    +0.000 A 
ATOM      7  C   UNL     1      10.173   0.690  24.506  0.00  0.00    +0.006 A 
ENDBRANCH   1   2
BRANCH   1   8
ATOM      8  C   UNL     1       9.125  -3.000  23.879  0.00  0.00    +0.083 C 
ATOM      9  C   UNL     1       7.679  -3.420  23.607  0.00  0.00    +0.027 C 
BRANCH   8  11
ATOM     10  C   UNL     1       9.099  -4.978  25.338  0.00  0.00    +0.101 C 
ATOM     11  N   UNL     1       9.911  -4.052  24.566  0.00  0.00    -0.314 NA
ATOM     12  H   UNL     1      10.399  -4.572  23.830  0.00  0.00    +0.122 HD
ENDBRANCH   8  11
ENDBRANCH   1   8
BRANCH   1  13
ATOM     13  O   UNL     1       7.902  -1.409  25.283  0.00  0.00    -0.386 OA
ATOM     14  H   UNL     1       7.780  -0.444  25.315  0.00  0.00    +0.210 HD
ENDBRANCH   1  13
TORSDOF 4
ENDMDL
MODEL 8
REMARK VINA RESULT:      -4.4      3.305      5.562
REMARK  Name = 
REMARK  6 active torsions:
REMARK  status: ('A' for Active; 'I' for Inactive)
REMARK    1  A    between atoms: C_1  and  N_2
REMARK    2  A    between atoms: N_2  and  C_3
REMARK    3  A    between atoms: C_3  and  C_5
REMARK    4  A    between atoms: C_3  and  C_6
REMARK    5  A    between atoms: C_6  and  O_8
REMARK    6  A    between atoms: C_6  and  C_9
REMARK                            x       y       z     vdW  Elec       q    Type
REMARK                         _______ _______ _______ _____ _____    ______ ____
ROOT
ATOM      1  C   UNL     1       9.029  -1.673  24.649  0.00  0.00    +0.161 C 
ENDROOT
BRANCH   1   2
ATOM      2  C   UNL     1       9.379  -0.465  23.794  0.00  0.00    -0.018 A 
ATOM      3  C   UNL     1       9.961   0.686  24.349  0.00  0.00    +0.006 A 
ATOM      4  C   UNL     1      10.310   1.774  23.547  0.00  0.00    +0.000 A 
ATOM      5  C   UNL     1      10.088   1.727  22.174  0.00  0.00    +0.000 A 
ATOM      6  C   UNL     1       9.513   0.593  21.604  0.00  0.00    +0.000 A 
ATOM      7  C   UNL     1       9.159  -0.496  22.408  0.00  0.00    +0.006 A 
ENDBRANCH   1   2
BRANCH   1   8
ATOM      8  C   UNL     1       8.939  -3.065  23.932  0.00  0.00    +0.083 C 
ATOM      9  C   UNL     1       7.507  -3.604  23.970  0.00  0.00    +0.027 C 
BRANCH   8  11
ATOM     10  C   UNL     1       9.358  -5.033  25.345  0.00  0.00    +0.101 C 
ATOM     11  N   UNL     1       9.931  -4.027  24.465  0.00  0.00    -0.314 NA
ATOM     12  H   UNL     1      10.344  -4.494  23.651  0.00  0.00    +0.122 HD
ENDBRANCH   8  11
ENDBRANCH   1   8
BRANCH   1  13
ATOM     13  O   UNL     1       7.791  -1.418  25.336  0.00  0.00    -0.386 OA
ATOM     14  H   UNL     1       7.815  -0.483  25.604  0.00  0.00    +0.210 HD
ENDBRANCH   1  13
TORSDOF 4
ENDMDL
MODEL 9
REMARK VINA RESULT:      -4.4      2.271      5.093
REMARK  Name = 
REMARK  6 active torsions:
REMARK  status: ('A' for Active; 'I' for Inactive)
REMARK    1  A    between atoms: C_1  and  N_2
REMARK    2  A    between atoms: N_2  and  C_3
REMARK    3  A    between atoms: C_3  and  C_5
REMARK    4  A    between atoms: C_3  and  C_6
REMARK    5  A    between atoms: C_6  and  O_8
REMARK    6  A    between atoms: C_6  and  C_9
REMARK                            x       y       z     vdW  Elec       q    Type
REMARK                         _______ _______ _______ _____ _____    ______ ____
ROOT
ATOM      1  C   UNL     1       9.452   2.153  23.751  0.00  0.00    +0.161 C 
ENDROOT
BRANCH   1   2
ATOM      2  C   UNL     1      10.156   3.501  23.715  0.00  0.00    -0.018 A 
ATOM      3  C   UNL     1       9.503   4.683  24.095  0.00  0.00    +0.006 A 
ATOM      4  C   UNL     1      10.173   5.909  24.091  0.00  0.00    +0.000 A 
ATOM      5  C   UNL     1      11.511   5.970  23.712  0.00  0.00    +0.000 A 
ATOM      6  C   UNL     1      12.177   4.807  23.334  0.00  0.00    +0.000 A 
ATOM      7  C   UNL     1      11.505   3.580  23.333  0.00  0.00    +0.006 A 
ENDBRANCH   1   2
BRANCH   1   8
ATOM      8  C   UNL     1       8.355   1.881  22.665  0.00  0.00    +0.083 C 
ATOM      9  C   UNL     1       7.298   0.907  23.191  0.00  0.00    +0.027 C 
BRANCH   8  11
ATOM     10  C   UNL     1       9.413   0.072  21.380  0.00  0.00    +0.101 C 
ATOM     11  N   UNL     1       8.946   1.449  21.377  0.00  0.00    -0.314 NA
ATOM     12  H   UNL     1       8.207   1.548  20.674  0.00  0.00    +0.122 HD
ENDBRANCH   8  11
ENDBRANCH   1   8
BRANCH   1  13
ATOM     13  O   UNL     1       8.878   1.960  25.056  0.00  0.00    -0.386 OA
ATOM     14  H   UNL     1       8.928   2.821  25.508  0.00  0.00    +0.210 HD
ENDBRANCH   1  13
TORSDOF 4
ENDMDL
