MODEL 1
REMARK VINA RESULT:      -6.8      0.000      0.000
REMARK  Name = 
REMARK  10 active torsions:
REMARK  status: ('A' for Active; 'I' for Inactive)
REMARK    1  A    between atoms: O_1  and  C_2
REMARK    2  A    between atoms: C_2  and  C_4
REMARK    3  A    between atoms: C_4  and  C_5
REMARK    4  A    between atoms: C_5  and  C_6
REMARK    5  A    between atoms: C_6  and  C_7
REMARK    6  A    between atoms: C_7  and  O_8
REMARK    7  A    between atoms: O_8  and  N_9
REMARK    8  A    between atoms: C_10  and  C_11
REMARK    9  A    between atoms: C_10  and  C_17
REMARK   10  A    between atoms: C_19  and  C_23
REMARK                            x       y       z     vdW  Elec       q    Type
REMARK                         _______ _______ _______ _____ _____    ______ ____
ROOT
ATOM      1  N   UNL     1      10.185  -3.291  24.198  0.00  0.00    -0.084 NA
ATOM      2  C   UNL     1       9.229  -2.547  23.705  0.00  0.00    +0.118 C 
ENDROOT
BRANCH   2   3
ATOM      3  C   UNL     1       7.804  -2.999  23.474  0.00  0.00    +0.005 A 
ATOM      4  C   UNL     1       6.736  -2.317  24.067  0.00  0.00    +0.010 A 
ATOM      5  C   UNL     1       5.411  -2.657  23.797  0.00  0.00    +0.001 A 
ATOM      6  C   UNL     1       5.133  -3.756  22.995  0.00  0.00    +0.012 A 
ATOM      7  C   UNL     1       6.180  -4.518  22.455  0.00  0.00    +0.055 A 
ATOM      8  C   UNL     1       7.512  -4.104  22.661  0.00  0.00    +0.022 A 
BRANCH   7   9
ATOM      9  C   UNL     1       5.861  -5.778  21.690  0.00  0.00    +0.417 C 
ATOM     10  F   UNL     1       6.697  -6.806  22.000  0.00  0.00    -0.166 F 
ATOM     11  F   UNL     1       5.969  -5.602  20.343  0.00  0.00    -0.166 F 
ATOM     12  F   UNL     1       4.599  -6.239  21.902  0.00  0.00    -0.166 F 
ENDBRANCH   7   9
ENDBRANCH   2   3
BRANCH   2  13
ATOM     13  C   UNL     1       9.610  -1.127  23.386  0.00  0.00    +0.022 A 
ATOM     14  C   UNL     1      10.023  -0.274  24.417  0.00  0.00    +0.013 A 
ATOM     15  C   UNL     1      10.340   1.054  24.137  0.00  0.00    +0.020 A 
ATOM     16  C   UNL     1      10.237   1.490  22.828  0.00  0.00    +0.111 A 
ATOM     17  N   UNL     1       9.871   0.692  21.801  0.00  0.00    -0.263 NA
ATOM     18  C   UNL     1       9.584  -0.601  22.101  0.00  0.00    +0.120 A 
ENDBRANCH   2  13
BRANCH   1  19
ATOM     19  O   UNL     1       9.779  -4.575  24.573  0.00  0.00    -0.393 OA
BRANCH  19  20
ATOM     20  C   UNL     1       9.870  -4.710  25.992  0.00  0.00    +0.263 C 
BRANCH  20  21
ATOM     21  C   UNL     1       8.470  -4.600  26.600  0.00  0.00    +0.044 C 
BRANCH  21  22
ATOM     22  C   UNL     1       7.489  -5.602  25.977  0.00  0.00    +0.014 C 
BRANCH  22  23
ATOM     23  C   UNL     1       6.043  -5.321  26.376  0.00  0.00    +0.120 C 
BRANCH  23  24
ATOM     24  C   UNL     1       5.154  -6.521  26.110  0.00  0.00    +0.305 C 
ATOM     25  O   UNL     1       4.614  -6.776  25.050  0.00  0.00    -0.251 OA
BRANCH  24  26
ATOM     26  O   UNL     1       5.003  -7.301  27.205  0.00  0.00    -0.481 OA
ATOM     27  H   UNL     1       5.812  -7.777  27.465  0.00  0.00    +0.295 HD
ENDBRANCH  24  26
ENDBRANCH  23  24
ENDBRANCH  22  23
ENDBRANCH  21  22
ENDBRANCH  20  21
ENDBRANCH  19  20
ENDBRANCH   1  19
TORSDOF 10
ENDMDL
MODEL 2
REMARK VINA RESULT:      -6.8      1.015      1.664
REMARK  Name = 
REMARK  10 active torsions:
REMARK  status: ('A' for Active; 'I' for Inactive)
REMARK    1  A    between atoms: O_1  and  C_2
REMARK    2  A    between atoms: C_2  and  C_4
REMARK    3  A    between atoms: C_4  and  C_5
REMARK    4  A    between atoms: C_5  and  C_6
REMARK    5  A    between atoms: C_6  and  C_7
REMARK    6  A    between atoms: C_7  and  O_8
REMARK    7  A    between atoms: O_8  and  N_9
REMARK    8  A    between atoms: C_10  and  C_11
REMARK    9  A    between atoms: C_10  and  C_17
REMARK   10  A    between atoms: C_19  and  C_23
REMARK                            x       y       z     vdW  Elec       q    Type
REMARK                         _______ _______ _______ _____ _____    ______ ____
ROOT
ATOM      1  N   UNL     1      10.143  -3.141  24.140  0.00  0.00    -0.084 NA
ATOM      2  C   UNL     1       9.150  -2.439  23.657  0.00  0.00    +0.118 C 
ENDROOT
BRANCH   2   3
ATOM      3  C   UNL     1       7.746  -2.955  23.437  0.00  0.00    +0.005 A 
ATOM      4  C   UNL     1       6.653  -2.332  24.052  0.00  0.00    +0.010 A 
ATOM      5  C   UNL     1       5.342  -2.730  23.792  0.00  0.00    +0.001 A 
ATOM      6  C   UNL     1       5.107  -3.831  22.978  0.00  0.00    +0.012 A 
ATOM      7  C   UNL     1       6.182  -4.535  22.416  0.00  0.00    +0.055 A 
ATOM      8  C   UNL     1       7.495  -4.062  22.612  0.00  0.00    +0.022 A 
BRANCH   7   9
ATOM      9  C   UNL     1       5.914  -5.799  21.637  0.00  0.00    +0.417 C 
ATOM     10  F   UNL     1       5.978  -5.609  20.291  0.00  0.00    -0.166 F 
ATOM     11  F   UNL     1       4.672  -6.301  21.885  0.00  0.00    -0.166 F 
ATOM     12  F   UNL     1       6.783  -6.807  21.919  0.00  0.00    -0.166 F 
ENDBRANCH   7   9
ENDBRANCH   2   3
BRANCH   2  13
ATOM     13  C   UNL     1       9.463  -1.003  23.342  0.00  0.00    +0.022 A 
ATOM     14  C   UNL     1       9.406  -0.558  22.016  0.00  0.00    +0.013 A 
ATOM     15  C   UNL     1       9.734   0.762  21.709  0.00  0.00    +0.020 A 
ATOM     16  C   UNL     1      10.108   1.602  22.743  0.00  0.00    +0.111 A 
ATOM     17  N   UNL     1      10.147   1.220  24.038  0.00  0.00    -0.263 NA
ATOM     18  C   UNL     1       9.808  -0.067  24.309  0.00  0.00    +0.120 A 
ENDBRANCH   2  13
BRANCH   1  19
ATOM     19  O   UNL     1       9.799  -4.444  24.513  0.00  0.00    -0.393 OA
BRANCH  19  20
ATOM     20  C   UNL     1       9.429  -4.463  25.892  0.00  0.00    +0.263 C 
BRANCH  20  21
ATOM     21  C   UNL     1       8.260  -5.431  26.088  0.00  0.00    +0.044 C 
BRANCH  21  22
ATOM     22  C   UNL     1       7.064  -4.761  26.777  0.00  0.00    +0.014 C 
BRANCH  22  23
ATOM     23  C   UNL     1       5.907  -5.730  27.000  0.00  0.00    +0.120 C 
BRANCH  23  24
ATOM     24  C   UNL     1       5.913  -6.282  28.413  0.00  0.00    +0.305 C 
ATOM     25  O   UNL     1       6.327  -5.695  29.396  0.00  0.00    -0.251 OA
BRANCH  24  26
ATOM     26  O   UNL     1       5.409  -7.535  28.477  0.00  0.00    -0.481 OA
ATOM     27  H   UNL     1       4.466  -7.570  28.715  0.00  0.00    +0.295 HD
ENDBRANCH  24  26
ENDBRANCH  23  24
ENDBRANCH  22  23
ENDBRANCH  21  22
ENDBRANCH  20  21
ENDBRANCH  19  20
ENDBRANCH   1  19
TORSDOF 10
ENDMDL
MODEL 3
REMARK VINA RESULT:      -6.6      2.061      2.705
REMARK  Name = 
REMARK  10 active torsions:
REMARK  status: ('A' for Active; 'I' for Inactive)
REMARK    1  A    between atoms: O_1  and  C_2
REMARK    2  A    between atoms: C_2  and  C_4
REMARK    3  A    between atoms: C_4  and  C_5
REMARK    4  A    between atoms: C_5  and  C_6
REMARK    5  A    between atoms: C_6  and  C_7
REMARK    6  A    between atoms: C_7  and  O_8
REMARK    7  A    between atoms: O_8  and  N_9
REMARK    8  A    between atoms: C_10  and  C_11
REMARK    9  A    between atoms: C_10  and  C_17
REMARK   10  A    between atoms: C_19  and  C_23
REMARK                            x       y       z     vdW  Elec       q    Type
REMARK                         _______ _______ _______ _____ _____    ______ ____
ROOT
ATOM      1  N   UNL     1       9.487  -3.377  24.070  0.00  0.00    -0.084 NA
ATOM      2  C   UNL     1       8.454  -3.073  23.326  0.00  0.00    +0.118 C 
ENDROOT
BRANCH   2   3
ATOM      3  C   UNL     1       7.305  -4.003  23.010  0.00  0.00    +0.005 A 
ATOM      4  C   UNL     1       7.439  -4.996  22.033  0.00  0.00    +0.010 A 
ATOM      5  C   UNL     1       6.428  -5.924  21.787  0.00  0.00    +0.001 A 
ATOM      6  C   UNL     1       5.216  -5.812  22.457  0.00  0.00    +0.012 A 
ATOM      7  C   UNL     1       5.012  -4.774  23.379  0.00  0.00    +0.055 A 
ATOM      8  C   UNL     1       6.078  -3.904  23.684  0.00  0.00    +0.022 A 
BRANCH   7   9
ATOM      9  C   UNL     1       3.652  -4.595  24.004  0.00  0.00    +0.417 C 
ATOM     10  F   UNL     1       2.638  -4.757  23.111  0.00  0.00    -0.166 F 
ATOM     11  F   UNL     1       3.489  -3.350  24.532  0.00  0.00    -0.166 F 
ATOM     12  F   UNL     1       3.401  -5.463  25.022  0.00  0.00    -0.166 F 
ENDBRANCH   7   9
ENDBRANCH   2   3
BRANCH   2  13
ATOM     13  C   UNL     1       8.432  -1.668  22.790  0.00  0.00    +0.022 A 
ATOM     14  C   UNL     1       9.413  -1.260  21.879  0.00  0.00    +0.013 A 
ATOM     15  C   UNL     1       9.423   0.052  21.407  0.00  0.00    +0.020 A 
ATOM     16  C   UNL     1       8.445   0.919  21.862  0.00  0.00    +0.111 A 
ATOM     17  N   UNL     1       7.465   0.557  22.717  0.00  0.00    -0.263 NA
ATOM     18  C   UNL     1       7.471  -0.731  23.147  0.00  0.00    +0.120 A 
ENDBRANCH   2  13
BRANCH   1  19
ATOM     19  O   UNL     1       9.433  -4.657  24.632  0.00  0.00    -0.393 OA
BRANCH  19  20
ATOM     20  C   UNL     1       9.243  -4.551  26.043  0.00  0.00    +0.263 C 
BRANCH  20  21
ATOM     21  C   UNL     1       8.059  -5.426  26.459  0.00  0.00    +0.044 C 
BRANCH  21  22
ATOM     22  C   UNL     1       6.956  -4.616  27.152  0.00  0.00    +0.014 C 
BRANCH  22  23
ATOM     23  C   UNL     1       5.712  -5.453  27.435  0.00  0.00    +0.120 C 
BRANCH  23  24
ATOM     24  C   UNL     1       5.899  -6.324  28.662  0.00  0.00    +0.305 C 
ATOM     25  O   UNL     1       6.427  -5.973  29.701  0.00  0.00    -0.251 OA
BRANCH  24  26
ATOM     26  O   UNL     1       5.419  -7.576  28.482  0.00  0.00    -0.481 OA
ATOM     27  H   UNL     1       5.528  -8.156  29.256  0.00  0.00    +0.295 HD
ENDBRANCH  24  26
ENDBRANCH  23  24
ENDBRANCH  22  23
ENDBRANCH  21  22
ENDBRANCH  20  21
ENDBRANCH  19  20
ENDBRANCH   1  19
TORSDOF 10
ENDMDL
MODEL 4
REMARK VINA RESULT:      -6.3      3.787      5.646
REMARK  Name = 
REMARK  10 active torsions:
REMARK  status: ('A' for Active; 'I' for Inactive)
REMARK    1  A    between atoms: O_1  and  C_2
REMARK    2  A    between atoms: C_2  and  C_4
REMARK    3  A    between atoms: C_4  and  C_5
REMARK    4  A    between atoms: C_5  and  C_6
REMARK    5  A    between atoms: C_6  and  C_7
REMARK    6  A    between atoms: C_7  and  O_8
REMARK    7  A    between atoms: O_8  and  N_9
REMARK    8  A    between atoms: C_10  and  C_11
REMARK    9  A    between atoms: C_10  and  C_17
REMARK   10  A    between atoms: C_19  and  C_23
REMARK                            x       y       z     vdW  Elec       q    Type
REMARK                         _______ _______ _______ _____ _____    ______ ____
ROOT
ATOM      1  N   UNL     1       5.173  -2.039  24.326  0.00  0.00    -0.084 NA
ATOM      2  C   UNL     1       6.322  -2.203  23.721  0.00  0.00    +0.118 C 
ENDROOT
BRANCH   2   3
ATOM      3  C   UNL     1       7.503  -1.265  23.828  0.00  0.00    +0.005 A 
ATOM      4  C   UNL     1       8.365  -1.327  24.929  0.00  0.00    +0.010 A 
ATOM      5  C   UNL     1       9.512  -0.537  25.007  0.00  0.00    +0.001 A 
ATOM      6  C   UNL     1       9.766   0.404  24.017  0.00  0.00    +0.012 A 
ATOM      7  C   UNL     1       8.877   0.556  22.943  0.00  0.00    +0.055 A 
ATOM      8  C   UNL     1       7.774  -0.315  22.831  0.00  0.00    +0.022 A 
BRANCH   7   9
ATOM      9  C   UNL     1       9.103   1.664  21.945  0.00  0.00    +0.417 C 
ATOM     10  F   UNL     1       8.541   2.841  22.331  0.00  0.00    -0.166 F 
ATOM     11  F   UNL     1       8.567   1.375  20.726  0.00  0.00    -0.166 F 
ATOM     12  F   UNL     1      10.418   1.930  21.716  0.00  0.00    -0.166 F 
ENDBRANCH   7   9
ENDBRANCH   2   3
BRANCH   2  13
ATOM     13  C   UNL     1       6.446  -3.450  22.892  0.00  0.00    +0.022 A 
ATOM     14  C   UNL     1       7.265  -4.497  23.333  0.00  0.00    +0.013 A 
ATOM     15  C   UNL     1       7.418  -5.640  22.551  0.00  0.00    +0.020 A 
ATOM     16  C   UNL     1       6.741  -5.705  21.346  0.00  0.00    +0.111 A 
ATOM     17  N   UNL     1       5.919  -4.731  20.898  0.00  0.00    -0.263 NA
ATOM     18  C   UNL     1       5.778  -3.635  21.688  0.00  0.00    +0.120 A 
ENDBRANCH   2  13
BRANCH   1  19
ATOM     19  O   UNL     1       5.119  -0.922  25.166  0.00  0.00    -0.393 OA
BRANCH  19  20
ATOM     20  C   UNL     1       4.513  -1.286  26.406  0.00  0.00    +0.263 C 
BRANCH  20  21
ATOM     21  C   UNL     1       5.582  -1.848  27.345  0.00  0.00    +0.044 C 
BRANCH  21  22
ATOM     22  C   UNL     1       5.534  -3.379  27.424  0.00  0.00    +0.014 C 
BRANCH  22  23
ATOM     23  C   UNL     1       6.835  -4.025  26.954  0.00  0.00    +0.120 C 
BRANCH  23  24
ATOM     24  C   UNL     1       6.750  -5.539  27.006  0.00  0.00    +0.305 C 
ATOM     25  O   UNL     1       6.028  -6.228  26.310  0.00  0.00    -0.251 OA
BRANCH  24  26
ATOM     26  O   UNL     1       7.572  -6.067  27.941  0.00  0.00    -0.481 OA
ATOM     27  H   UNL     1       7.149  -6.204  28.807  0.00  0.00    +0.295 HD
ENDBRANCH  24  26
ENDBRANCH  23  24
ENDBRANCH  22  23
ENDBRANCH  21  22
ENDBRANCH  20  21
ENDBRANCH  19  20
ENDBRANCH   1  19
TORSDOF 10
ENDMDL
MODEL 5
REMARK VINA RESULT:      -6.1      4.501      7.236
REMARK  Name = 
REMARK  10 active torsions:
REMARK  status: ('A' for Active; 'I' for Inactive)
REMARK    1  A    between atoms: O_1  and  C_2
REMARK    2  A    between atoms: C_2  and  C_4
REMARK    3  A    between atoms: C_4  and  C_5
REMARK    4  A    between atoms: C_5  and  C_6
REMARK    5  A    between atoms: C_6  and  C_7
REMARK    6  A    between atoms: C_7  and  O_8
REMARK    7  A    between atoms: O_8  and  N_9
REMARK    8  A    between atoms: C_10  and  C_11
REMARK    9  A    between atoms: C_10  and  C_17
REMARK   10  A    between atoms: C_19  and  C_23
REMARK                            x       y       z     vdW  Elec       q    Type
REMARK                         _______ _______ _______ _____ _____    ______ ____
ROOT
ATOM      1  N   UNL     1       7.091  -2.043  24.876  0.00  0.00    -0.084 NA
ATOM      2  C   UNL     1       7.198  -1.974  23.573  0.00  0.00    +0.118 C 
ENDROOT
BRANCH   2   3
ATOM      3  C   UNL     1       7.627  -0.748  22.799  0.00  0.00    +0.005 A 
ATOM      4  C   UNL     1       8.749  -0.789  21.964  0.00  0.00    +0.010 A 
ATOM      5  C   UNL     1       9.111   0.299  21.169  0.00  0.00    +0.001 A 
ATOM      6  C   UNL     1       8.402   1.489  21.271  0.00  0.00    +0.012 A 
ATOM      7  C   UNL     1       7.326   1.596  22.163  0.00  0.00    +0.055 A 
ATOM      8  C   UNL     1       6.915   0.458  22.888  0.00  0.00    +0.022 A 
BRANCH   7   9
ATOM      9  C   UNL     1       6.647   2.930  22.350  0.00  0.00    +0.417 C 
ATOM     10  F   UNL     1       7.355   3.958  21.810  0.00  0.00    -0.166 F 
ATOM     11  F   UNL     1       6.479   3.241  23.666  0.00  0.00    -0.166 F 
ATOM     12  F   UNL     1       5.406   2.992  21.795  0.00  0.00    -0.166 F 
ENDBRANCH   7   9
ENDBRANCH   2   3
BRANCH   2  13
ATOM     13  C   UNL     1       6.893  -3.244  22.829  0.00  0.00    +0.022 A 
ATOM     14  C   UNL     1       7.571  -4.422  23.164  0.00  0.00    +0.013 A 
ATOM     15  C   UNL     1       7.324  -5.595  22.453  0.00  0.00    +0.020 A 
ATOM     16  C   UNL     1       6.399  -5.555  21.425  0.00  0.00    +0.111 A 
ATOM     17  N   UNL     1       5.703  -4.447  21.089  0.00  0.00    -0.263 NA
ATOM     18  C   UNL     1       5.953  -3.324  21.809  0.00  0.00    +0.120 A 
ENDBRANCH   2  13
BRANCH   1  19
ATOM     19  O   UNL     1       7.472  -0.877  25.547  0.00  0.00    -0.393 OA
BRANCH  19  20
ATOM     20  C   UNL     1       8.703  -1.102  26.235  0.00  0.00    +0.263 C 
BRANCH  20  21
ATOM     21  C   UNL     1       9.847  -0.465  25.445  0.00  0.00    +0.044 C 
BRANCH  21  22
ATOM     22  C   UNL     1       9.581   1.014  25.135  0.00  0.00    +0.014 C 
BRANCH  22  23
ATOM     23  C   UNL     1      10.645   1.615  24.220  0.00  0.00    +0.120 C 
BRANCH  23  24
ATOM     24  C   UNL     1      10.279   3.025  23.799  0.00  0.00    +0.305 C 
ATOM     25  O   UNL     1       9.460   3.735  24.353  0.00  0.00    -0.251 OA
BRANCH  24  26
ATOM     26  O   UNL     1      10.962   3.428  22.704  0.00  0.00    -0.481 OA
ATOM     27  H   UNL     1      11.023   2.752  22.005  0.00  0.00    +0.295 HD
ENDBRANCH  24  26
ENDBRANCH  23  24
ENDBRANCH  22  23
ENDBRANCH  21  22
ENDBRANCH  20  21
ENDBRANCH  19  20
ENDBRANCH   1  19
TORSDOF 10
ENDMDL
MODEL 6
REMARK VINA RESULT:      -6.1      2.208      2.961
REMARK  Name = 
REMARK  10 active torsions:
REMARK  status: ('A' for Active; 'I' for Inactive)
REMARK    1  A    between atoms: O_1  and  C_2
REMARK    2  A    between atoms: C_2  and  C_4
REMARK    3  A    between atoms: C_4  and  C_5
REMARK    4  A    between atoms: C_5  and  C_6
REMARK    5  A    between atoms: C_6  and  C_7
REMARK    6  A    between atoms: C_7  and  O_8
REMARK    7  A    between atoms: O_8  and  N_9
REMARK    8  A    between atoms: C_10  and  C_11
REMARK    9  A    between atoms: C_10  and  C_17
REMARK   10  A    between atoms: C_19  and  C_23
REMARK                            x       y       z     vdW  Elec       q    Type
REMARK                         _______ _______ _______ _____ _____    ______ ____
ROOT
ATOM      1  N   UNL     1       6.172  -0.296  24.598  0.00  0.00    -0.084 NA
ATOM      2  C   UNL     1       7.287  -0.773  24.105  0.00  0.00    +0.118 C 
ENDROOT
BRANCH   2   3
ATOM      3  C   UNL     1       7.610  -2.241  23.944  0.00  0.00    +0.005 A 
ATOM      4  C   UNL     1       8.599  -2.843  24.730  0.00  0.00    +0.010 A 
ATOM      5  C   UNL     1       8.851  -4.213  24.665  0.00  0.00    +0.001 A 
ATOM      6  C   UNL     1       8.175  -4.993  23.736  0.00  0.00    +0.012 A 
ATOM      7  C   UNL     1       7.240  -4.408  22.870  0.00  0.00    +0.055 A 
ATOM      8  C   UNL     1       6.929  -3.040  23.014  0.00  0.00    +0.022 A 
BRANCH   7   9
ATOM      9  C   UNL     1       6.607  -5.245  21.787  0.00  0.00    +0.417 C 
ATOM     10  F   UNL     1       7.514  -6.006  21.115  0.00  0.00    -0.166 F 
ATOM     11  F   UNL     1       5.987  -4.482  20.844  0.00  0.00    -0.166 F 
ATOM     12  F   UNL     1       5.659  -6.105  22.248  0.00  0.00    -0.166 F 
ENDBRANCH   7   9
ENDBRANCH   2   3
BRANCH   2  13
ATOM     13  C   UNL     1       8.284   0.254  23.645  0.00  0.00    +0.022 A 
ATOM     14  C   UNL     1       8.674   0.286  22.300  0.00  0.00    +0.013 A 
ATOM     15  C   UNL     1       9.627   1.208  21.873  0.00  0.00    +0.020 A 
ATOM     16  C   UNL     1      10.163   2.077  22.806  0.00  0.00    +0.111 A 
ATOM     17  N   UNL     1       9.793   2.099  24.106  0.00  0.00    -0.263 NA
ATOM     18  C   UNL     1       8.851   1.200  24.490  0.00  0.00    +0.120 A 
ENDBRANCH   2  13
BRANCH   1  19
ATOM     19  O   UNL     1       5.226  -1.271  24.929  0.00  0.00    -0.393 OA
BRANCH  19  20
ATOM     20  C   UNL     1       4.738  -1.034  26.250  0.00  0.00    +0.263 C 
BRANCH  20  21
ATOM     21  C   UNL     1       4.445  -2.373  26.928  0.00  0.00    +0.044 C 
BRANCH  21  22
ATOM     22  C   UNL     1       5.308  -3.509  26.362  0.00  0.00    +0.014 C 
BRANCH  22  23
ATOM     23  C   UNL     1       6.244  -4.103  27.410  0.00  0.00    +0.120 C 
BRANCH  23  24
ATOM     24  C   UNL     1       6.601  -5.540  27.081  0.00  0.00    +0.305 C 
ATOM     25  O   UNL     1       5.918  -6.302  26.421  0.00  0.00    -0.251 OA
BRANCH  24  26
ATOM     26  O   UNL     1       7.785  -5.911  27.619  0.00  0.00    -0.481 OA
ATOM     27  H   UNL     1       7.702  -6.521  28.373  0.00  0.00    +0.295 HD
ENDBRANCH  24  26
ENDBRANCH  23  24
ENDBRANCH  22  23
ENDBRANCH  21  22
ENDBRANCH  20  21
ENDBRANCH  19  20
ENDBRANCH   1  19
TORSDOF 10
ENDMDL
MODEL 7
REMARK VINA RESULT:      -5.8      6.930      9.333
REMARK  Name = 
REMARK  10 active torsions:
REMARK  status: ('A' for Active; 'I' for Inactive)
REMARK    1  A    between atoms: O_1  and  C_2
REMARK    2  A    between atoms: C_2  and  C_4
REMARK    3  A    between atoms: C_4  and  C_5
REMARK    4  A    between atoms: C_5  and  C_6
REMARK    5  A    between atoms: C_6  and  C_7
REMARK    6  A    between atoms: C_7  and  O_8
REMARK    7  A    between atoms: O_8  and  N_9
REMARK    8  A    between atoms: C_10  and  C_11
REMARK    9  A    between atoms: C_10  and  C_17
REMARK   10  A    between atoms: C_19  and  C_23
REMARK                            x       y       z     vdW  Elec       q    Type
REMARK                         _______ _______ _______ _____ _____    ______ ____
ROOT
ATOM      1  N   UNL     1       7.056   5.084  23.374  0.00  0.00    -0.084 NA
ATOM      2  C   UNL     1       6.913   3.800  23.577  0.00  0.00    +0.118 C 
ENDROOT
BRANCH   2   3
ATOM      3  C   UNL     1       7.861   2.729  23.087  0.00  0.00    +0.005 A 
ATOM      4  C   UNL     1       7.889   2.366  21.736  0.00  0.00    +0.010 A 
ATOM      5  C   UNL     1       8.816   1.448  21.244  0.00  0.00    +0.001 A 
ATOM      6  C   UNL     1       9.677   0.803  22.122  0.00  0.00    +0.012 A 
ATOM      7  C   UNL     1       9.617   1.075  23.497  0.00  0.00    +0.055 A 
ATOM      8  C   UNL     1       8.740   2.074  23.964  0.00  0.00    +0.022 A 
BRANCH   7   9
ATOM      9  C   UNL     1      10.472   0.277  24.448  0.00  0.00    +0.417 C 
ATOM     10  F   UNL     1      11.725   0.789  24.584  0.00  0.00    -0.166 F 
ATOM     11  F   UNL     1      10.638  -1.011  24.034  0.00  0.00    -0.166 F 
ATOM     12  F   UNL     1       9.959   0.196  25.706  0.00  0.00    -0.166 F 
ENDBRANCH   7   9
ENDBRANCH   2   3
BRANCH   2  13
ATOM     13  C   UNL     1       5.715   3.403  24.396  0.00  0.00    +0.022 A 
ATOM     14  C   UNL     1       5.746   3.559  25.787  0.00  0.00    +0.013 A 
ATOM     15  C   UNL     1       4.656   3.156  26.557  0.00  0.00    +0.020 A 
ATOM     16  C   UNL     1       3.562   2.610  25.910  0.00  0.00    +0.111 A 
ATOM     17  N   UNL     1       3.481   2.470  24.569  0.00  0.00    -0.263 NA
ATOM     18  C   UNL     1       4.551   2.885  23.843  0.00  0.00    +0.120 A 
ENDBRANCH   2  13
BRANCH   1  19
ATOM     19  O   UNL     1       8.227   5.430  22.692  0.00  0.00    -0.393 OA
BRANCH  19  20
ATOM     20  C   UNL     1       8.968   6.375  23.466  0.00  0.00    +0.263 C 
BRANCH  20  21
ATOM     21  C   UNL     1       9.806   5.629  24.506  0.00  0.00    +0.044 C 
BRANCH  21  22
ATOM     22  C   UNL     1      11.053   4.983  23.889  0.00  0.00    +0.014 C 
BRANCH  22  23
ATOM     23  C   UNL     1      12.187   5.985  23.692  0.00  0.00    +0.120 C 
BRANCH  23  24
ATOM     24  C   UNL     1      13.205   5.477  22.688  0.00  0.00    +0.305 C 
ATOM     25  O   UNL     1      13.088   5.531  21.478  0.00  0.00    -0.251 OA
BRANCH  24  26
ATOM     26  O   UNL     1      14.286   4.927  23.286  0.00  0.00    -0.481 OA
ATOM     27  H   UNL     1      14.837   5.567  23.771  0.00  0.00    +0.295 HD
ENDBRANCH  24  26
ENDBRANCH  23  24
ENDBRANCH  22  23
ENDBRANCH  21  22
ENDBRANCH  20  21
ENDBRANCH  19  20
ENDBRANCH   1  19
TORSDOF 10
ENDMDL
MODEL 8
REMARK VINA RESULT:      -5.7      3.946      5.603
REMARK  Name = 
REMARK  10 active torsions:
REMARK  status: ('A' for Active; 'I' for Inactive)
REMARK    1  A    between atoms: O_1  and  C_2
REMARK    2  A    between atoms: C_2  and  C_4
REMARK    3  A    between atoms: C_4  and  C_5
REMARK    4  A    between atoms: C_5  and  C_6
REMARK    5  A    between atoms: C_6  and  C_7
REMARK    6  A    between atoms: C_7  and  O_8
REMARK    7  A    between atoms: O_8  and  N_9
REMARK    8  A    between atoms: C_10  and  C_11
REMARK    9  A    between atoms: C_10  and  C_17
REMARK   10  A    between atoms: C_19  and  C_23
REMARK                            x       y       z     vdW  Elec       q    Type
REMARK                         _______ _______ _______ _____ _____    ______ ____
ROOT
ATOM      1  N   UNL     1      10.020   1.571  21.914  0.00  0.00    -0.084 NA
ATOM      2  C   UNL     1       9.484   2.115  22.977  0.00  0.00    +0.118 C 
ENDROOT
BRANCH   2   3
ATOM      3  C   UNL     1       8.382   1.499  23.809  0.00  0.00    +0.005 A 
ATOM      4  C   UNL     1       7.042   1.629  23.425  0.00  0.00    +0.010 A 
ATOM      5  C   UNL     1       6.016   0.994  24.123  0.00  0.00    +0.001 A 
ATOM      6  C   UNL     1       6.308   0.289  25.284  0.00  0.00    +0.012 A 
ATOM      7  C   UNL     1       7.629   0.212  25.749  0.00  0.00    +0.055 A 
ATOM      8  C   UNL     1       8.665   0.779  24.979  0.00  0.00    +0.022 A 
BRANCH   7   9
ATOM      9  C   UNL     1       7.911  -0.452  27.073  0.00  0.00    +0.417 C 
ATOM     10  F   UNL     1       9.217  -0.807  27.215  0.00  0.00    -0.166 F 
ATOM     11  F   UNL     1       7.191  -1.597  27.238  0.00  0.00    -0.166 F 
ATOM     12  F   UNL     1       7.613   0.329  28.148  0.00  0.00    -0.166 F 
ENDBRANCH   7   9
ENDBRANCH   2   3
BRANCH   2  13
ATOM     13  C   UNL     1      10.062   3.441  23.388  0.00  0.00    +0.022 A 
ATOM     14  C   UNL     1      11.408   3.721  23.125  0.00  0.00    +0.013 A 
ATOM     15  C   UNL     1      11.962   4.931  23.538  0.00  0.00    +0.020 A 
ATOM     16  C   UNL     1      11.149   5.831  24.203  0.00  0.00    +0.111 A 
ATOM     17  N   UNL     1       9.839   5.612  24.451  0.00  0.00    -0.263 NA
ATOM     18  C   UNL     1       9.322   4.431  24.023  0.00  0.00    +0.120 A 
ENDBRANCH   2  13
BRANCH   1  19
ATOM     19  O   UNL     1       9.529   0.297  21.612  0.00  0.00    -0.393 OA
BRANCH  19  20
ATOM     20  C   UNL     1      10.317  -0.689  22.280  0.00  0.00    +0.263 C 
BRANCH  20  21
ATOM     21  C   UNL     1       9.434  -1.889  22.630  0.00  0.00    +0.044 C 
BRANCH  21  22
ATOM     22  C   UNL     1       9.941  -2.637  23.869  0.00  0.00    +0.014 C 
BRANCH  22  23
ATOM     23  C   UNL     1       8.802  -3.222  24.700  0.00  0.00    +0.120 C 
BRANCH  23  24
ATOM     24  C   UNL     1       9.130  -4.623  25.178  0.00  0.00    +0.305 C 
ATOM     25  O   UNL     1       8.369  -5.359  25.777  0.00  0.00    -0.251 OA
BRANCH  24  26
ATOM     26  O   UNL     1      10.398  -4.985  24.876  0.00  0.00    -0.481 OA
ATOM     27  H   UNL     1      10.478  -5.490  24.048  0.00  0.00    +0.295 HD
ENDBRANCH  24  26
ENDBRANCH  23  24
ENDBRANCH  22  23
ENDBRANCH  21  22
ENDBRANCH  20  21
ENDBRANCH  19  20
ENDBRANCH   1  19
TORSDOF 10
ENDMDL
MODEL 9
REMARK VINA RESULT:      -5.7      3.651      5.886
REMARK  Name = 
REMARK  10 active torsions:
REMARK  status: ('A' for Active; 'I' for Inactive)
REMARK    1  A    between atoms: O_1  and  C_2
REMARK    2  A    between atoms: C_2  and  C_4
REMARK    3  A    between atoms: C_4  and  C_5
REMARK    4  A    between atoms: C_5  and  C_6
REMARK    5  A    between atoms: C_6  and  C_7
REMARK    6  A    between atoms: C_7  and  O_8
REMARK    7  A    between atoms: O_8  and  N_9
REMARK    8  A    between atoms: C_10  and  C_11
REMARK    9  A    between atoms: C_10  and  C_17
REMARK   10  A    between atoms: C_19  and  C_23
REMARK                            x       y       z     vdW  Elec       q    Type
REMARK                         _______ _______ _______ _____ _____    ______ ____
ROOT
ATOM      1  N   UNL     1       5.615  -2.209  24.391  0.00  0.00    -0.084 NA
ATOM      2  C   UNL     1       6.531  -2.635  23.558  0.00  0.00    +0.118 C 
ENDROOT
BRANCH   2   3
ATOM      3  C   UNL     1       7.811  -1.904  23.223  0.00  0.00    +0.005 A 
ATOM      4  C   UNL     1       9.054  -2.514  23.425  0.00  0.00    +0.010 A 
ATOM      5  C   UNL     1      10.243  -1.897  23.039  0.00  0.00    +0.001 A 
ATOM      6  C   UNL     1      10.213  -0.607  22.525  0.00  0.00    +0.012 A 
ATOM      7  C   UNL     1       8.992   0.070  22.391  0.00  0.00    +0.055 A 
ATOM      8  C   UNL     1       7.792  -0.603  22.697  0.00  0.00    +0.022 A 
BRANCH   7   9
ATOM      9  C   UNL     1       8.990   1.512  21.948  0.00  0.00    +0.417 C 
ATOM     10  F   UNL     1      10.223   1.947  21.572  0.00  0.00    -0.166 F 
ATOM     11  F   UNL     1       8.582   2.353  22.938  0.00  0.00    -0.166 F 
ATOM     12  F   UNL     1       8.166   1.756  20.893  0.00  0.00    -0.166 F 
ENDBRANCH   7   9
ENDBRANCH   2   3
BRANCH   2  13
ATOM     13  C   UNL     1       6.265  -3.976  22.933  0.00  0.00    +0.022 A 
ATOM     14  C   UNL     1       6.447  -4.146  21.555  0.00  0.00    +0.013 A 
ATOM     15  C   UNL     1       6.164  -5.374  20.960  0.00  0.00    +0.020 A 
ATOM     16  C   UNL     1       5.710  -6.403  21.766  0.00  0.00    +0.111 A 
ATOM     17  N   UNL     1       5.550  -6.290  23.103  0.00  0.00    -0.263 NA
ATOM     18  C   UNL     1       5.847  -5.086  23.657  0.00  0.00    +0.120 A 
ENDBRANCH   2  13
BRANCH   1  19
ATOM     19  O   UNL     1       5.934  -1.006  25.029  0.00  0.00    -0.393 OA
BRANCH  19  20
ATOM     20  C   UNL     1       6.148  -1.246  26.420  0.00  0.00    +0.263 C 
BRANCH  20  21
ATOM     21  C   UNL     1       7.613  -0.964  26.761  0.00  0.00    +0.044 C 
BRANCH  21  22
ATOM     22  C   UNL     1       8.474  -2.232  26.700  0.00  0.00    +0.014 C 
BRANCH  22  23
ATOM     23  C   UNL     1       7.642  -3.505  26.825  0.00  0.00    +0.120 C 
BRANCH  23  24
ATOM     24  C   UNL     1       8.498  -4.745  26.647  0.00  0.00    +0.305 C 
ATOM     25  O   UNL     1       9.600  -4.771  26.130  0.00  0.00    -0.251 OA
BRANCH  24  26
ATOM     26  O   UNL     1       7.895  -5.858  27.120  0.00  0.00    -0.481 OA
ATOM     27  H   UNL     1       7.206  -6.215  26.531  0.00  0.00    +0.295 HD
ENDBRANCH  24  26
ENDBRANCH  23  24
ENDBRANCH  22  23
ENDBRANCH  21  22
ENDBRANCH  20  21
ENDBRANCH  19  20
ENDBRANCH   1  19
TORSDOF 10
ENDMDL
