MODEL 1
REMARK VINA RESULT:      -7.0      0.000      0.000
REMARK  Name = 
REMARK  3 active torsions:
REMARK  status: ('A' for Active; 'I' for Inactive)
REMARK    1  A    between atoms: C_1  and  C_2
REMARK    2  A    between atoms: N_10  and  C_17
REMARK    3  A    between atoms: C_13  and  O_14
REMARK                            x       y       z     vdW  Elec       q    Type
REMARK                         _______ _______ _______ _____ _____    ______ ____
ROOT
ATOM      1  C   UNL     1       8.358   3.613  25.070  0.00  0.00    +0.044 C 
ATOM      2  C   UNL     1       8.825   2.533  24.134  0.00  0.00    -0.036 A 
ATOM      3  C   UNL     1       9.751   2.879  23.136  0.00  0.00    +0.004 A 
ATOM      4  C   UNL     1      10.160   1.939  22.192  0.00  0.00    +0.005 A 
ATOM      5  C   UNL     1       9.620   0.654  22.212  0.00  0.00    +0.056 A 
ATOM      6  C   UNL     1       8.710   0.275  23.207  0.00  0.00    +0.187 A 
ATOM      7  N   UNL     1       8.238  -1.044  23.154  0.00  0.00    -0.042 NA
ATOM      8  C   UNL     1       7.300  -1.423  23.963  0.00  0.00    +0.334 C 
ATOM      9  C   UNL     1       6.650  -0.485  24.979  0.00  0.00    +0.235 C 
ATOM     10  C   UNL     1       7.546   0.685  25.319  0.00  0.00    +0.211 C 
ATOM     11  O   UNL     1       7.530   1.218  26.426  0.00  0.00    -0.288 OA
ATOM     12  C   UNL     1       6.395  -1.458  26.131  0.00  0.00    +0.099 C 
ATOM     13  C   UNL     1       6.207  -2.833  25.469  0.00  0.00    +0.236 C 
ATOM     14  N   UNL     1       6.781  -2.694  24.132  0.00  0.00    -0.188 N 
ATOM     15  C   UNL     1       8.373   1.200  24.203  0.00  0.00    +0.074 A 
ENDROOT
BRANCH  14  16
ATOM     16  C   UNL     1       6.766  -3.761  23.219  0.00  0.00    +0.121 A 
ATOM     17  C   UNL     1       5.994  -3.719  22.043  0.00  0.00    +0.049 A 
ATOM     18  C   UNL     1       5.981  -4.775  21.121  0.00  0.00    +0.004 A 
ATOM     19  C   UNL     1       6.745  -5.911  21.351  0.00  0.00    +0.000 A 
ATOM     20  C   UNL     1       7.531  -5.981  22.492  0.00  0.00    +0.004 A 
ATOM     21  C   UNL     1       7.544  -4.916  23.403  0.00  0.00    +0.049 A 
ENDBRANCH  14  16
BRANCH   9  22
ATOM     22  O   UNL     1       5.400   0.038  24.538  0.00  0.00    -0.370 OA
ATOM     23  H   UNL     1       4.798   0.011  25.307  0.00  0.00    +0.211 HD
ENDBRANCH   9  22
TORSDOF 2
ENDMDL
MODEL 2
REMARK VINA RESULT:      -6.9      2.084      3.248
REMARK  Name = 
REMARK  3 active torsions:
REMARK  status: ('A' for Active; 'I' for Inactive)
REMARK    1  A    between atoms: C_1  and  C_2
REMARK    2  A    between atoms: N_10  and  C_17
REMARK    3  A    between atoms: C_13  and  O_14
REMARK                            x       y       z     vdW  Elec       q    Type
REMARK                         _______ _______ _______ _____ _____    ______ ____
ROOT
ATOM      1  C   UNL     1       9.801   5.381  24.013  0.00  0.00    +0.044 C 
ATOM      2  C   UNL     1       8.681   4.608  23.373  0.00  0.00    -0.036 A 
ATOM      3  C   UNL     1       7.612   5.330  22.818  0.00  0.00    +0.004 A 
ATOM      4  C   UNL     1       6.511   4.667  22.282  0.00  0.00    +0.005 A 
ATOM      5  C   UNL     1       6.447   3.275  22.329  0.00  0.00    +0.056 A 
ATOM      6  C   UNL     1       7.507   2.527  22.858  0.00  0.00    +0.187 A 
ATOM      7  N   UNL     1       7.359   1.133  22.844  0.00  0.00    -0.042 NA
ATOM      8  C   UNL     1       8.240   0.388  23.432  0.00  0.00    +0.334 C 
ATOM      9  C   UNL     1       9.447   0.958  24.176  0.00  0.00    +0.235 C 
ATOM     10  C   UNL     1       9.798   2.349  23.698  0.00  0.00    +0.211 C 
ATOM     11  O   UNL     1      10.953   2.767  23.702  0.00  0.00    -0.288 OA
ATOM     12  C   UNL     1      10.493  -0.114  23.868  0.00  0.00    +0.099 C 
ATOM     13  C   UNL     1       9.700  -1.417  23.680  0.00  0.00    +0.236 C 
ATOM     14  N   UNL     1       8.323  -0.993  23.437  0.00  0.00    -0.188 N 
ATOM     15  C   UNL     1       8.648   3.201  23.313  0.00  0.00    +0.074 A 
ENDROOT
BRANCH  14  16
ATOM     16  C   UNL     1       7.297  -1.931  23.242  0.00  0.00    +0.121 A 
ATOM     17  C   UNL     1       7.347  -2.881  22.204  0.00  0.00    +0.049 A 
ATOM     18  C   UNL     1       6.331  -3.827  22.008  0.00  0.00    +0.004 A 
ATOM     19  C   UNL     1       5.228  -3.850  22.850  0.00  0.00    +0.000 A 
ATOM     20  C   UNL     1       5.152  -2.940  23.895  0.00  0.00    +0.004 A 
ATOM     21  C   UNL     1       6.177  -2.003  24.088  0.00  0.00    +0.049 A 
ENDBRANCH  14  16
BRANCH   9  22
ATOM     22  O   UNL     1       9.257   1.018  25.587  0.00  0.00    -0.370 OA
ATOM     23  H   UNL     1       8.956   0.132  25.868  0.00  0.00    +0.211 HD
ENDBRANCH   9  22
TORSDOF 2
ENDMDL
MODEL 3
REMARK VINA RESULT:      -6.7      2.293      6.676
REMARK  Name = 
REMARK  3 active torsions:
REMARK  status: ('A' for Active; 'I' for Inactive)
REMARK    1  A    between atoms: C_1  and  C_2
REMARK    2  A    between atoms: N_10  and  C_17
REMARK    3  A    between atoms: C_13  and  O_14
REMARK                            x       y       z     vdW  Elec       q    Type
REMARK                         _______ _______ _______ _____ _____    ______ ____
ROOT
ATOM      1  C   UNL     1       8.013  -5.250  23.628  0.00  0.00    +0.044 C 
ATOM      2  C   UNL     1       7.193  -4.038  23.973  0.00  0.00    -0.036 A 
ATOM      3  C   UNL     1       5.852  -4.230  24.344  0.00  0.00    +0.004 A 
ATOM      4  C   UNL     1       5.023  -3.140  24.598  0.00  0.00    +0.005 A 
ATOM      5  C   UNL     1       5.514  -1.844  24.448  0.00  0.00    +0.056 A 
ATOM      6  C   UNL     1       6.852  -1.621  24.098  0.00  0.00    +0.187 A 
ATOM      7  N   UNL     1       7.257  -0.283  23.989  0.00  0.00    -0.042 NA
ATOM      8  C   UNL     1       8.442  -0.005  23.546  0.00  0.00    +0.334 C 
ATOM      9  C   UNL     1       9.436  -1.077  23.104  0.00  0.00    +0.235 C 
ATOM     10  C   UNL     1       9.136  -2.418  23.734  0.00  0.00    +0.211 C 
ATOM     11  O   UNL     1      10.022  -3.229  23.995  0.00  0.00    -0.288 OA
ATOM     12  C   UNL     1      10.751  -0.435  23.547  0.00  0.00    +0.099 C 
ATOM     13  C   UNL     1      10.507   1.082  23.482  0.00  0.00    +0.236 C 
ATOM     14  N   UNL     1       9.054   1.233  23.466  0.00  0.00    -0.188 N 
ATOM     15  C   UNL     1       7.699  -2.724  23.931  0.00  0.00    +0.074 A 
ENDROOT
BRANCH  14  16
ATOM     16  C   UNL     1       8.455   2.500  23.385  0.00  0.00    +0.121 A 
ATOM     17  C   UNL     1       8.609   3.460  24.403  0.00  0.00    +0.049 A 
ATOM     18  C   UNL     1       8.023   4.731  24.325  0.00  0.00    +0.004 A 
ATOM     19  C   UNL     1       7.261   5.082  23.219  0.00  0.00    +0.000 A 
ATOM     20  C   UNL     1       7.102   4.167  22.187  0.00  0.00    +0.004 A 
ATOM     21  C   UNL     1       7.699   2.901  22.271  0.00  0.00    +0.049 A 
ENDBRANCH  14  16
BRANCH   9  22
ATOM     22  O   UNL     1       9.472  -1.259  21.691  0.00  0.00    -0.370 OA
ATOM     23  H   UNL     1      10.368  -1.008  21.398  0.00  0.00    +0.211 HD
ENDBRANCH   9  22
TORSDOF 2
ENDMDL
MODEL 4
REMARK VINA RESULT:      -6.6      2.222      3.727
REMARK  Name = 
REMARK  3 active torsions:
REMARK  status: ('A' for Active; 'I' for Inactive)
REMARK    1  A    between atoms: C_1  and  C_2
REMARK    2  A    between atoms: N_10  and  C_17
REMARK    3  A    between atoms: C_13  and  O_14
REMARK                            x       y       z     vdW  Elec       q    Type
REMARK                         _______ _______ _______ _____ _____    ______ ____
ROOT
ATOM      1  C   UNL     1       8.782   5.158  25.374  0.00  0.00    +0.044 C 
ATOM      2  C   UNL     1       8.043   3.890  25.699  0.00  0.00    -0.036 A 
ATOM      3  C   UNL     1       7.138   3.907  26.773  0.00  0.00    +0.004 A 
ATOM      4  C   UNL     1       6.484   2.743  27.169  0.00  0.00    +0.005 A 
ATOM      5  C   UNL     1       6.756   1.539  26.521  0.00  0.00    +0.056 A 
ATOM      6  C   UNL     1       7.638   1.494  25.434  0.00  0.00    +0.187 A 
ATOM      7  N   UNL     1       7.832   0.241  24.836  0.00  0.00    -0.042 NA
ATOM      8  C   UNL     1       8.729   0.102  23.911  0.00  0.00    +0.334 C 
ATOM      9  C   UNL     1       9.622   1.249  23.443  0.00  0.00    +0.235 C 
ATOM     10  C   UNL     1       9.005   2.599  23.733  0.00  0.00    +0.211 C 
ATOM     11  O   UNL     1       9.205   3.575  23.014  0.00  0.00    -0.288 OA
ATOM     12  C   UNL     1       9.757   0.907  21.959  0.00  0.00    +0.099 C 
ATOM     13  C   UNL     1       9.619  -0.622  21.879  0.00  0.00    +0.236 C 
ATOM     14  N   UNL     1       8.993  -1.014  23.139  0.00  0.00    -0.188 N 
ATOM     15  C   UNL     1       8.222   2.686  24.988  0.00  0.00    +0.074 A 
ENDROOT
BRANCH  14  16
ATOM     16  C   UNL     1       8.730  -2.362  23.433  0.00  0.00    +0.121 A 
ATOM     17  C   UNL     1       7.795  -3.114  22.696  0.00  0.00    +0.049 A 
ATOM     18  C   UNL     1       7.534  -4.462  22.976  0.00  0.00    +0.004 A 
ATOM     19  C   UNL     1       8.205  -5.103  24.009  0.00  0.00    +0.000 A 
ATOM     20  C   UNL     1       9.147  -4.398  24.746  0.00  0.00    +0.004 A 
ATOM     21  C   UNL     1       9.407  -3.052  24.452  0.00  0.00    +0.049 A 
ENDBRANCH  14  16
BRANCH   9  22
ATOM     22  O   UNL     1      10.919   1.227  24.035  0.00  0.00    -0.370 OA
ATOM     23  H   UNL     1      11.559   1.382  23.314  0.00  0.00    +0.211 HD
ENDBRANCH   9  22
TORSDOF 2
ENDMDL
MODEL 5
REMARK VINA RESULT:      -6.6      2.064      6.240
REMARK  Name = 
REMARK  3 active torsions:
REMARK  status: ('A' for Active; 'I' for Inactive)
REMARK    1  A    between atoms: C_1  and  C_2
REMARK    2  A    between atoms: N_10  and  C_17
REMARK    3  A    between atoms: C_13  and  O_14
REMARK                            x       y       z     vdW  Elec       q    Type
REMARK                         _______ _______ _______ _____ _____    ______ ____
ROOT
ATOM      1  C   UNL     1       4.911  -6.678  24.573  0.00  0.00    +0.044 C 
ATOM      2  C   UNL     1       5.578  -5.676  23.674  0.00  0.00    -0.036 A 
ATOM      3  C   UNL     1       5.762  -6.017  22.324  0.00  0.00    +0.004 A 
ATOM      4  C   UNL     1       6.443  -5.161  21.462  0.00  0.00    +0.005 A 
ATOM      5  C   UNL     1       6.981  -3.970  21.947  0.00  0.00    +0.056 A 
ATOM      6  C   UNL     1       6.796  -3.593  23.283  0.00  0.00    +0.187 A 
ATOM      7  N   UNL     1       7.359  -2.369  23.673  0.00  0.00    -0.042 NA
ATOM      8  C   UNL     1       7.337  -2.021  24.920  0.00  0.00    +0.334 C 
ATOM      9  C   UNL     1       6.740  -2.899  26.018  0.00  0.00    +0.235 C 
ATOM     10  C   UNL     1       5.731  -3.882  25.467  0.00  0.00    +0.211 C 
ATOM     11  O   UNL     1       4.767  -4.264  26.125  0.00  0.00    -0.288 OA
ATOM     12  C   UNL     1       6.159  -1.829  26.944  0.00  0.00    +0.099 C 
ATOM     13  C   UNL     1       7.047  -0.590  26.742  0.00  0.00    +0.236 C 
ATOM     14  N   UNL     1       7.742  -0.821  25.478  0.00  0.00    -0.188 N 
ATOM     15  C   UNL     1       6.034  -4.419  24.120  0.00  0.00    +0.074 A 
ENDROOT
BRANCH  14  16
ATOM     16  C   UNL     1       8.670   0.106  24.978  0.00  0.00    +0.121 A 
ATOM     17  C   UNL     1       8.288   1.407  24.599  0.00  0.00    +0.049 A 
ATOM     18  C   UNL     1       9.210   2.342  24.108  0.00  0.00    +0.004 A 
ATOM     19  C   UNL     1      10.550   2.001  23.981  0.00  0.00    +0.000 A 
ATOM     20  C   UNL     1      10.966   0.733  24.362  0.00  0.00    +0.004 A 
ATOM     21  C   UNL     1      10.038  -0.192  24.860  0.00  0.00    +0.049 A 
ENDBRANCH  14  16
BRANCH   9  22
ATOM     22  O   UNL     1       7.721  -3.641  26.738  0.00  0.00    -0.370 OA
ATOM     23  H   UNL     1       8.399  -3.913  26.090  0.00  0.00    +0.211 HD
ENDBRANCH   9  22
TORSDOF 2
ENDMDL
MODEL 6
REMARK VINA RESULT:      -6.6      2.064      2.817
REMARK  Name = 
REMARK  3 active torsions:
REMARK  status: ('A' for Active; 'I' for Inactive)
REMARK    1  A    between atoms: C_1  and  C_2
REMARK    2  A    between atoms: N_10  and  C_17
REMARK    3  A    between atoms: C_13  and  O_14
REMARK                            x       y       z     vdW  Elec       q    Type
REMARK                         _______ _______ _______ _____ _____    ______ ____
ROOT
ATOM      1  C   UNL     1      10.513   2.830  23.699  0.00  0.00    +0.044 C 
ATOM      2  C   UNL     1       9.163   2.362  23.230  0.00  0.00    -0.036 A 
ATOM      3  C   UNL     1       8.275   3.318  22.712  0.00  0.00    +0.004 A 
ATOM      4  C   UNL     1       6.984   2.957  22.334  0.00  0.00    +0.005 A 
ATOM      5  C   UNL     1       6.553   1.642  22.506  0.00  0.00    +0.056 A 
ATOM      6  C   UNL     1       7.422   0.662  23.001  0.00  0.00    +0.187 A 
ATOM      7  N   UNL     1       6.902  -0.634  23.120  0.00  0.00    -0.042 NA
ATOM      8  C   UNL     1       7.608  -1.559  23.690  0.00  0.00    +0.334 C 
ATOM      9  C   UNL     1       8.996  -1.304  24.273  0.00  0.00    +0.235 C 
ATOM     10  C   UNL     1       9.656  -0.095  23.648  0.00  0.00    +0.211 C 
ATOM     11  O   UNL     1      10.875  -0.015  23.513  0.00  0.00    -0.288 OA
ATOM     12  C   UNL     1       9.675  -2.640  23.967  0.00  0.00    +0.099 C 
ATOM     13  C   UNL     1       8.543  -3.681  23.962  0.00  0.00    +0.236 C 
ATOM     14  N   UNL     1       7.314  -2.906  23.807  0.00  0.00    -0.188 N 
ATOM     15  C   UNL     1       8.745   1.018  23.294  0.00  0.00    +0.074 A 
ENDROOT
BRANCH  14  16
ATOM     16  C   UNL     1       6.058  -3.532  23.784  0.00  0.00    +0.121 A 
ATOM     17  C   UNL     1       5.790  -4.630  22.946  0.00  0.00    +0.049 A 
ATOM     18  C   UNL     1       4.542  -5.267  22.924  0.00  0.00    +0.004 A 
ATOM     19  C   UNL     1       3.517  -4.821  23.747  0.00  0.00    +0.000 A 
ATOM     20  C   UNL     1       3.749  -3.751  24.601  0.00  0.00    +0.004 A 
ATOM     21  C   UNL     1       5.004  -3.127  24.621  0.00  0.00    +0.049 A 
ENDBRANCH  14  16
BRANCH   9  22
ATOM     22  O   UNL     1       8.985  -1.112  25.685  0.00  0.00    -0.370 OA
ATOM     23  H   UNL     1       8.597  -1.918  26.075  0.00  0.00    +0.211 HD
ENDBRANCH   9  22
TORSDOF 2
ENDMDL
MODEL 7
REMARK VINA RESULT:      -6.6      2.336      3.697
REMARK  Name = 
REMARK  3 active torsions:
REMARK  status: ('A' for Active; 'I' for Inactive)
REMARK    1  A    between atoms: C_1  and  C_2
REMARK    2  A    between atoms: N_10  and  C_17
REMARK    3  A    between atoms: C_13  and  O_14
REMARK                            x       y       z     vdW  Elec       q    Type
REMARK                         _______ _______ _______ _____ _____    ______ ____
ROOT
ATOM      1  C   UNL     1       9.692   4.532  23.771  0.00  0.00    +0.044 C 
ATOM      2  C   UNL     1       8.798   3.613  24.555  0.00  0.00    -0.036 A 
ATOM      3  C   UNL     1       8.051   4.158  25.612  0.00  0.00    +0.004 A 
ATOM      4  C   UNL     1       7.267   3.342  26.423  0.00  0.00    +0.005 A 
ATOM      5  C   UNL     1       7.249   1.964  26.211  0.00  0.00    +0.056 A 
ATOM      6  C   UNL     1       7.967   1.393  25.153  0.00  0.00    +0.187 A 
ATOM      7  N   UNL     1       7.871   0.002  25.009  0.00  0.00    -0.042 NA
ATOM      8  C   UNL     1       8.609  -0.606  24.134  0.00  0.00    +0.334 C 
ATOM      9  C   UNL     1       9.616   0.123  23.247  0.00  0.00    +0.235 C 
ATOM     10  C   UNL     1       9.275   1.589  23.094  0.00  0.00    +0.211 C 
ATOM     11  O   UNL     1       9.543   2.218  22.074  0.00  0.00    -0.288 OA
ATOM     12  C   UNL     1       9.503  -0.702  21.964  0.00  0.00    +0.099 C 
ATOM     13  C   UNL     1       9.101  -2.114  22.422  0.00  0.00    +0.236 C 
ATOM     14  N   UNL     1       8.582  -1.942  23.776  0.00  0.00    -0.188 N 
ATOM     15  C   UNL     1       8.682   2.234  24.290  0.00  0.00    +0.074 A 
ENDROOT
BRANCH  14  16
ATOM     16  C   UNL     1       8.136  -3.040  24.529  0.00  0.00    +0.121 A 
ATOM     17  C   UNL     1       8.761  -3.417  25.733  0.00  0.00    +0.049 A 
ATOM     18  C   UNL     1       8.317  -4.505  26.496  0.00  0.00    +0.004 A 
ATOM     19  C   UNL     1       7.226  -5.254  26.075  0.00  0.00    +0.000 A 
ATOM     20  C   UNL     1       6.574  -4.901  24.902  0.00  0.00    +0.004 A 
ATOM     21  C   UNL     1       7.021  -3.805  24.150  0.00  0.00    +0.049 A 
ENDBRANCH  14  16
BRANCH   9  22
ATOM     22  O   UNL     1      10.954   0.036  23.729  0.00  0.00    -0.370 OA
ATOM     23  H   UNL     1      11.191  -0.911  23.729  0.00  0.00    +0.211 HD
ENDBRANCH   9  22
TORSDOF 2
ENDMDL
MODEL 8
REMARK VINA RESULT:      -6.6      2.992      6.388
REMARK  Name = 
REMARK  3 active torsions:
REMARK  status: ('A' for Active; 'I' for Inactive)
REMARK    1  A    between atoms: C_1  and  C_2
REMARK    2  A    between atoms: N_10  and  C_17
REMARK    3  A    between atoms: C_13  and  O_14
REMARK                            x       y       z     vdW  Elec       q    Type
REMARK                         _______ _______ _______ _____ _____    ______ ____
ROOT
ATOM      1  C   UNL     1       4.495  -6.561  26.505  0.00  0.00    +0.044 C 
ATOM      2  C   UNL     1       4.545  -5.098  26.162  0.00  0.00    -0.036 A 
ATOM      3  C   UNL     1       3.363  -4.350  26.280  0.00  0.00    +0.004 A 
ATOM      4  C   UNL     1       3.330  -3.010  25.902  0.00  0.00    +0.005 A 
ATOM      5  C   UNL     1       4.469  -2.411  25.365  0.00  0.00    +0.056 A 
ATOM      6  C   UNL     1       5.668  -3.126  25.253  0.00  0.00    +0.187 A 
ATOM      7  N   UNL     1       6.763  -2.433  24.719  0.00  0.00    -0.042 NA
ATOM      8  C   UNL     1       7.865  -3.068  24.468  0.00  0.00    +0.334 C 
ATOM      9  C   UNL     1       8.032  -4.567  24.707  0.00  0.00    +0.235 C 
ATOM     10  C   UNL     1       7.050  -5.088  25.732  0.00  0.00    +0.211 C 
ATOM     11  O   UNL     1       7.319  -6.030  26.473  0.00  0.00    -0.288 OA
ATOM     12  C   UNL     1       9.499  -4.617  25.136  0.00  0.00    +0.099 C 
ATOM     13  C   UNL     1      10.171  -3.428  24.431  0.00  0.00    +0.236 C 
ATOM     14  N   UNL     1       9.073  -2.545  24.044  0.00  0.00    -0.188 N 
ATOM     15  C   UNL     1       5.714  -4.447  25.719  0.00  0.00    +0.074 A 
ENDROOT
BRANCH  14  16
ATOM     16  C   UNL     1       9.311  -1.351  23.345  0.00  0.00    +0.121 A 
ATOM     17  C   UNL     1       9.060  -1.235  21.965  0.00  0.00    +0.049 A 
ATOM     18  C   UNL     1       9.286  -0.044  21.262  0.00  0.00    +0.004 A 
ATOM     19  C   UNL     1       9.773   1.075  21.923  0.00  0.00    +0.000 A 
ATOM     20  C   UNL     1      10.016   1.004  23.288  0.00  0.00    +0.004 A 
ATOM     21  C   UNL     1       9.778  -0.189  23.984  0.00  0.00    +0.049 A 
ENDBRANCH  14  16
BRANCH   9  22
ATOM     22  O   UNL     1       7.876  -5.344  23.522  0.00  0.00    -0.370 OA
ATOM     23  H   UNL     1       6.958  -5.676  23.523  0.00  0.00    +0.211 HD
ENDBRANCH   9  22
TORSDOF 2
ENDMDL
MODEL 9
REMARK VINA RESULT:      -6.5      3.305      5.141
REMARK  Name = 
REMARK  3 active torsions:
REMARK  status: ('A' for Active; 'I' for Inactive)
REMARK    1  A    between atoms: C_1  and  C_2
REMARK    2  A    between atoms: N_10  and  C_17
REMARK    3  A    between atoms: C_13  and  O_14
REMARK                            x       y       z     vdW  Elec       q    Type
REMARK                         _______ _______ _______ _____ _____    ______ ____
ROOT
ATOM      1  C   UNL     1      10.234  -1.415  22.188  0.00  0.00    +0.044 C 
ATOM      2  C   UNL     1       9.697  -1.202  23.576  0.00  0.00    -0.036 A 
ATOM      3  C   UNL     1      10.145  -0.080  24.294  0.00  0.00    +0.004 A 
ATOM      4  C   UNL     1       9.743   0.127  25.611  0.00  0.00    +0.005 A 
ATOM      5  C   UNL     1       8.919  -0.805  26.240  0.00  0.00    +0.056 A 
ATOM      6  C   UNL     1       8.440  -1.922  25.545  0.00  0.00    +0.187 A 
ATOM      7  N   UNL     1       7.603  -2.792  26.257  0.00  0.00    -0.042 NA
ATOM      8  C   UNL     1       7.229  -3.909  25.718  0.00  0.00    +0.334 C 
ATOM      9  C   UNL     1       7.679  -4.351  24.326  0.00  0.00    +0.235 C 
ATOM     10  C   UNL     1       8.103  -3.177  23.472  0.00  0.00    +0.211 C 
ATOM     11  O   UNL     1       7.963  -3.176  22.251  0.00  0.00    -0.288 OA
ATOM     12  C   UNL     1       6.422  -5.077  23.846  0.00  0.00    +0.099 C 
ATOM     13  C   UNL     1       5.748  -5.612  25.121  0.00  0.00    +0.236 C 
ATOM     14  N   UNL     1       6.332  -4.838  26.213  0.00  0.00    -0.188 N 
ATOM     15  C   UNL     1       8.779  -2.074  24.194  0.00  0.00    +0.074 A 
ENDROOT
BRANCH  14  16
ATOM     16  C   UNL     1       5.966  -5.074  27.548  0.00  0.00    +0.121 A 
ATOM     17  C   UNL     1       5.001  -4.285  28.203  0.00  0.00    +0.049 A 
ATOM     18  C   UNL     1       4.623  -4.520  29.533  0.00  0.00    +0.004 A 
ATOM     19  C   UNL     1       5.203  -5.557  30.251  0.00  0.00    +0.000 A 
ATOM     20  C   UNL     1       6.145  -6.366  29.632  0.00  0.00    +0.004 A 
ATOM     21  C   UNL     1       6.511  -6.129  28.299  0.00  0.00    +0.049 A 
ENDBRANCH  14  16
BRANCH   9  22
ATOM     22  O   UNL     1       8.759  -5.280  24.356  0.00  0.00    -0.370 OA
ATOM     23  H   UNL     1       8.370  -6.167  24.227  0.00  0.00    +0.211 HD
ENDBRANCH   9  22
TORSDOF 2
ENDMDL
