MODEL 1
REMARK VINA RESULT:      -6.6      0.000      0.000
REMARK  Name = 
REMARK  8 active torsions:
REMARK  status: ('A' for Active; 'I' for Inactive)
REMARK    1  A    between atoms: C_1  and  N_2
REMARK    2  A    between atoms: C_3  and  C_5
REMARK    3  A    between atoms: C_5  and  C_6
REMARK    4  A    between atoms: C_6  and  O_8
REMARK    5  A    between atoms: C_6  and  C_9
REMARK    6  A    between atoms: C_18  and  C_20
REMARK    7  A    between atoms: C_20  and  C_21
REMARK    8  A    between atoms: C_21  and  C_23
REMARK                            x       y       z     vdW  Elec       q    Type
REMARK                         _______ _______ _______ _____ _____    ______ ____
ROOT
ATOM      1  C   UNL     1       8.535   2.507  24.703  0.00  0.00    +0.105 C 
ATOM      2  N   UNL     1       8.404   1.073  24.358  0.00  0.00    -0.299 NA
ATOM      3  C   UNL     1       9.667   0.632  23.803  0.00  0.00    +0.064 C 
ATOM      4  C   UNL     1       9.786   1.056  22.283  0.00  0.00    +0.019 C 
ATOM      5  C   UNL     1       8.509   1.435  21.463  0.00  0.00    +0.003 C 
ATOM      6  C   UNL     1       7.252   1.678  22.264  0.00  0.00    +0.019 C 
ATOM      7  C   UNL     1       7.271   0.731  23.449  0.00  0.00    +0.059 C 
ENDROOT
BRANCH   3   8
ATOM      8  C   UNL     1      10.172  -0.683  24.508  0.00  0.00    +0.098 C 
BRANCH   8   9
ATOM      9  C   UNL     1       9.924  -2.147  23.993  0.00  0.00    +0.165 C 
ATOM     10  O   UNL     1      10.159  -2.546  22.856  0.00  0.00    -0.292 OA
BRANCH   9  11
ATOM     11  C   UNL     1       9.229  -3.102  24.924  0.00  0.00    +0.017 A 
ATOM     12  C   UNL     1       8.331  -2.643  25.900  0.00  0.00    +0.011 A 
ATOM     13  C   UNL     1       7.549  -3.556  26.626  0.00  0.00    +0.001 A 
ATOM     14  C   UNL     1       7.708  -4.923  26.433  0.00  0.00    +0.000 A 
ATOM     15  C   UNL     1       8.664  -5.384  25.516  0.00  0.00    +0.001 A 
ATOM     16  C   UNL     1       9.422  -4.480  24.777  0.00  0.00    +0.011 A 
ENDBRANCH   9  11
ENDBRANCH   8   9
ENDBRANCH   3   8
BRANCH   7  17
ATOM     17  C   UNL     1       7.022  -0.768  22.921  0.00  0.00    +0.055 C 
BRANCH  17  18
ATOM     18  C   UNL     1       5.871  -1.820  23.257  0.00  0.00    +0.146 C 
BRANCH  18  19
ATOM     19  C   UNL     1       6.026  -3.316  23.027  0.00  0.00    -0.019 A 
ATOM     20  C   UNL     1       5.208  -4.256  23.691  0.00  0.00    +0.006 A 
ATOM     21  C   UNL     1       5.411  -5.629  23.566  0.00  0.00    +0.000 A 
ATOM     22  C   UNL     1       6.374  -6.075  22.682  0.00  0.00    +0.000 A 
ATOM     23  C   UNL     1       7.095  -5.169  21.924  0.00  0.00    +0.000 A 
ATOM     24  C   UNL     1       6.922  -3.795  22.075  0.00  0.00    +0.006 A 
ENDBRANCH  18  19
BRANCH  18  25
ATOM     25  O   UNL     1       5.279  -1.702  24.533  0.00  0.00    -0.387 OA
ATOM     26  H   UNL     1       5.288  -2.584  24.947  0.00  0.00    +0.210 HD
ENDBRANCH  18  25
ENDBRANCH  17  18
ENDBRANCH   7  17
TORSDOF 7
ENDMDL
MODEL 2
REMARK VINA RESULT:      -6.5      1.925      5.976
REMARK  Name = 
REMARK  8 active torsions:
REMARK  status: ('A' for Active; 'I' for Inactive)
REMARK    1  A    between atoms: C_1  and  N_2
REMARK    2  A    between atoms: C_3  and  C_5
REMARK    3  A    between atoms: C_5  and  C_6
REMARK    4  A    between atoms: C_6  and  O_8
REMARK    5  A    between atoms: C_6  and  C_9
REMARK    6  A    between atoms: C_18  and  C_20
REMARK    7  A    between atoms: C_20  and  C_21
REMARK    8  A    between atoms: C_21  and  C_23
REMARK                            x       y       z     vdW  Elec       q    Type
REMARK                         _______ _______ _______ _____ _____    ______ ____
ROOT
ATOM      1  C   UNL     1       7.211  -4.861  23.404  0.00  0.00    +0.105 C 
ATOM      2  N   UNL     1       7.672  -3.704  24.206  0.00  0.00    -0.299 NA
ATOM      3  C   UNL     1       9.088  -3.872  24.457  0.00  0.00    +0.064 C 
ATOM      4  C   UNL     1       9.328  -4.883  25.651  0.00  0.00    +0.019 C 
ATOM      5  C   UNL     1       8.177  -5.204  26.660  0.00  0.00    +0.003 C 
ATOM      6  C   UNL     1       6.790  -4.766  26.250  0.00  0.00    +0.019 C 
ATOM      7  C   UNL     1       6.928  -3.467  25.479  0.00  0.00    +0.059 C 
ENDROOT
BRANCH   3   8
ATOM      8  C   UNL     1       9.892  -2.571  24.083  0.00  0.00    +0.098 C 
BRANCH   8   9
ATOM      9  C   UNL     1       9.703  -1.728  22.769  0.00  0.00    +0.165 C 
ATOM     10  O   UNL     1       9.403  -2.188  21.672  0.00  0.00    -0.292 OA
BRANCH   9  11
ATOM     11  C   UNL     1      10.038  -0.263  22.830  0.00  0.00    +0.017 A 
ATOM     12  C   UNL     1       9.629   0.619  21.816  0.00  0.00    +0.011 A 
ATOM     13  C   UNL     1       9.779   2.005  21.983  0.00  0.00    +0.001 A 
ATOM     14  C   UNL     1      10.394   2.511  23.123  0.00  0.00    +0.000 A 
ATOM     15  C   UNL     1      10.876   1.625  24.098  0.00  0.00    +0.001 A 
ATOM     16  C   UNL     1      10.705   0.252  23.946  0.00  0.00    +0.011 A 
ENDBRANCH   9  11
ENDBRANCH   8   9
ENDBRANCH   3   8
BRANCH   7  17
ATOM     17  C   UNL     1       7.338  -2.295  26.502  0.00  0.00    +0.055 C 
BRANCH  17  18
ATOM     18  C   UNL     1       8.150  -0.942  26.273  0.00  0.00    +0.146 C 
BRANCH  18  19
ATOM     19  C   UNL     1       7.584   0.240  25.499  0.00  0.00    -0.019 A 
ATOM     20  C   UNL     1       6.818   0.059  24.327  0.00  0.00    +0.006 A 
ATOM     21  C   UNL     1       6.384   1.136  23.555  0.00  0.00    +0.000 A 
ATOM     22  C   UNL     1       6.626   2.415  24.015  0.00  0.00    +0.000 A 
ATOM     23  C   UNL     1       7.261   2.610  25.230  0.00  0.00    +0.000 A 
ATOM     24  C   UNL     1       7.730   1.537  25.984  0.00  0.00    +0.006 A 
ENDBRANCH  18  19
BRANCH  18  25
ATOM     25  O   UNL     1       8.750  -0.379  27.420  0.00  0.00    -0.387 OA
ATOM     26  H   UNL     1       8.657  -1.021  28.148  0.00  0.00    +0.210 HD
ENDBRANCH  18  25
ENDBRANCH  17  18
ENDBRANCH   7  17
TORSDOF 7
ENDMDL
MODEL 3
REMARK VINA RESULT:      -6.4      1.210      1.662
REMARK  Name = 
REMARK  8 active torsions:
REMARK  status: ('A' for Active; 'I' for Inactive)
REMARK    1  A    between atoms: C_1  and  N_2
REMARK    2  A    between atoms: C_3  and  C_5
REMARK    3  A    between atoms: C_5  and  C_6
REMARK    4  A    between atoms: C_6  and  O_8
REMARK    5  A    between atoms: C_6  and  C_9
REMARK    6  A    between atoms: C_18  and  C_20
REMARK    7  A    between atoms: C_20  and  C_21
REMARK    8  A    between atoms: C_21  and  C_23
REMARK                            x       y       z     vdW  Elec       q    Type
REMARK                         _______ _______ _______ _____ _____    ______ ____
ROOT
ATOM      1  C   UNL     1       8.502   2.771  24.361  0.00  0.00    +0.105 C 
ATOM      2  N   UNL     1       8.298   1.304  24.330  0.00  0.00    -0.299 NA
ATOM      3  C   UNL     1       9.573   0.673  24.598  0.00  0.00    +0.064 C 
ATOM      4  C   UNL     1      10.468   0.645  23.293  0.00  0.00    +0.019 C 
ATOM      5  C   UNL     1       9.818   0.829  21.883  0.00  0.00    +0.003 C 
ATOM      6  C   UNL     1       8.397   1.340  21.866  0.00  0.00    +0.019 C 
ATOM      7  C   UNL     1       7.687   0.766  23.078  0.00  0.00    +0.059 C 
ENDROOT
BRANCH   3   8
ATOM      8  C   UNL     1       9.446  -0.409  25.736  0.00  0.00    +0.098 C 
BRANCH   8   9
ATOM      9  C   UNL     1       8.137  -1.198  26.102  0.00  0.00    +0.165 C 
ATOM     10  O   UNL     1       7.146  -0.712  26.640  0.00  0.00    -0.292 OA
BRANCH   9  11
ATOM     11  C   UNL     1       8.141  -2.687  25.892  0.00  0.00    +0.017 A 
ATOM     12  C   UNL     1       9.151  -3.313  25.144  0.00  0.00    +0.011 A 
ATOM     13  C   UNL     1       9.249  -4.713  25.122  0.00  0.00    +0.001 A 
ATOM     14  C   UNL     1       8.307  -5.492  25.785  0.00  0.00    +0.000 A 
ATOM     15  C   UNL     1       7.251  -4.868  26.465  0.00  0.00    +0.001 A 
ATOM     16  C   UNL     1       7.167  -3.479  26.510  0.00  0.00    +0.011 A 
ENDBRANCH   9  11
ENDBRANCH   8   9
ENDBRANCH   3   8
BRANCH   7  17
ATOM     17  C   UNL     1       7.457  -0.809  22.850  0.00  0.00    +0.055 C 
BRANCH  17  18
ATOM     18  C   UNL     1       6.146  -1.707  22.985  0.00  0.00    +0.146 C 
BRANCH  18  19
ATOM     19  C   UNL     1       6.164  -3.222  22.845  0.00  0.00    -0.019 A 
ATOM     20  C   UNL     1       5.133  -4.027  23.378  0.00  0.00    +0.006 A 
ATOM     21  C   UNL     1       5.193  -5.419  23.346  0.00  0.00    +0.000 A 
ATOM     22  C   UNL     1       6.243  -6.018  22.678  0.00  0.00    +0.000 A 
ATOM     23  C   UNL     1       7.193  -5.242  22.036  0.00  0.00    +0.000 A 
ATOM     24  C   UNL     1       7.157  -3.851  22.100  0.00  0.00    +0.006 A 
ENDBRANCH  18  19
BRANCH  18  25
ATOM     25  O   UNL     1       5.334  -1.449  24.110  0.00  0.00    -0.387 OA
ATOM     26  H   UNL     1       4.699  -2.184  24.193  0.00  0.00    +0.210 HD
ENDBRANCH  18  25
ENDBRANCH  17  18
ENDBRANCH   7  17
TORSDOF 7
ENDMDL
MODEL 4
REMARK VINA RESULT:      -6.3      1.887      6.188
REMARK  Name = 
REMARK  8 active torsions:
REMARK  status: ('A' for Active; 'I' for Inactive)
REMARK    1  A    between atoms: C_1  and  N_2
REMARK    2  A    between atoms: C_3  and  C_5
REMARK    3  A    between atoms: C_5  and  C_6
REMARK    4  A    between atoms: C_6  and  O_8
REMARK    5  A    between atoms: C_6  and  C_9
REMARK    6  A    between atoms: C_18  and  C_20
REMARK    7  A    between atoms: C_20  and  C_21
REMARK    8  A    between atoms: C_21  and  C_23
REMARK                            x       y       z     vdW  Elec       q    Type
REMARK                         _______ _______ _______ _____ _____    ______ ____
ROOT
ATOM      1  C   UNL     1       9.447  -4.893  25.842  0.00  0.00    +0.105 C 
ATOM      2  N   UNL     1       9.026  -3.610  25.234  0.00  0.00    -0.299 NA
ATOM      3  C   UNL     1       7.921  -3.091  26.013  0.00  0.00    +0.064 C 
ATOM      4  C   UNL     1       6.568  -3.805  25.608  0.00  0.00    +0.019 C 
ATOM      5  C   UNL     1       6.449  -4.562  24.245  0.00  0.00    +0.003 C 
ATOM      6  C   UNL     1       7.746  -4.839  23.521  0.00  0.00    +0.019 C 
ATOM      7  C   UNL     1       8.677  -3.670  23.783  0.00  0.00    +0.059 C 
ENDROOT
BRANCH   3   8
ATOM      8  C   UNL     1       8.166  -1.589  26.419  0.00  0.00    +0.098 C 
BRANCH   8   9
ATOM      9  C   UNL     1       7.052  -0.490  26.566  0.00  0.00    +0.165 C 
ATOM     10  O   UNL     1       6.119  -0.532  27.362  0.00  0.00    -0.292 OA
BRANCH   9  11
ATOM     11  C   UNL     1       7.054   0.639  25.572  0.00  0.00    +0.017 A 
ATOM     12  C   UNL     1       6.456   0.499  24.310  0.00  0.00    +0.011 A 
ATOM     13  C   UNL     1       6.297   1.617  23.475  0.00  0.00    +0.001 A 
ATOM     14  C   UNL     1       6.791   2.857  23.864  0.00  0.00    +0.000 A 
ATOM     15  C   UNL     1       7.462   2.980  25.089  0.00  0.00    +0.001 A 
ATOM     16  C   UNL     1       7.598   1.878  25.929  0.00  0.00    +0.011 A 
ENDBRANCH   9  11
ENDBRANCH   8   9
ENDBRANCH   3   8
BRANCH   7  17
ATOM     17  C   UNL     1       8.137  -2.384  22.982  0.00  0.00    +0.055 C 
BRANCH  17  18
ATOM     18  C   UNL     1       8.901  -1.321  22.071  0.00  0.00    +0.146 C 
BRANCH  18  19
ATOM     19  C   UNL     1       9.581  -0.084  22.638  0.00  0.00    -0.019 A 
ATOM     20  C   UNL     1      10.270  -0.117  23.870  0.00  0.00    +0.006 A 
ATOM     21  C   UNL     1      10.806   1.032  24.447  0.00  0.00    +0.000 A 
ATOM     22  C   UNL     1      10.749   2.215  23.735  0.00  0.00    +0.000 A 
ATOM     23  C   UNL     1      10.194   2.238  22.467  0.00  0.00    +0.000 A 
ATOM     24  C   UNL     1       9.622   1.099  21.905  0.00  0.00    +0.006 A 
ENDBRANCH  18  19
BRANCH  18  25
ATOM     25  O   UNL     1       9.817  -1.852  21.137  0.00  0.00    -0.387 OA
ATOM     26  H   UNL     1      10.163  -2.686  21.504  0.00  0.00    +0.210 HD
ENDBRANCH  18  25
ENDBRANCH  17  18
ENDBRANCH   7  17
TORSDOF 7
ENDMDL
MODEL 5
REMARK VINA RESULT:      -6.3      2.152      5.738
REMARK  Name = 
REMARK  8 active torsions:
REMARK  status: ('A' for Active; 'I' for Inactive)
REMARK    1  A    between atoms: C_1  and  N_2
REMARK    2  A    between atoms: C_3  and  C_5
REMARK    3  A    between atoms: C_5  and  C_6
REMARK    4  A    between atoms: C_6  and  O_8
REMARK    5  A    between atoms: C_6  and  C_9
REMARK    6  A    between atoms: C_18  and  C_20
REMARK    7  A    between atoms: C_20  and  C_21
REMARK    8  A    between atoms: C_21  and  C_23
REMARK                            x       y       z     vdW  Elec       q    Type
REMARK                         _______ _______ _______ _____ _____    ______ ____
ROOT
ATOM      1  C   UNL     1       6.702  -6.370  22.042  0.00  0.00    +0.105 C 
ATOM      2  N   UNL     1       7.359  -5.288  22.810  0.00  0.00    -0.299 NA
ATOM      3  C   UNL     1       6.683  -5.176  24.086  0.00  0.00    +0.064 C 
ATOM      4  C   UNL     1       5.343  -4.348  23.937  0.00  0.00    +0.019 C 
ATOM      5  C   UNL     1       5.119  -3.419  22.699  0.00  0.00    +0.003 C 
ATOM      6  C   UNL     1       6.075  -3.606  21.544  0.00  0.00    +0.019 C 
ATOM      7  C   UNL     1       7.430  -3.964  22.123  0.00  0.00    +0.059 C 
ENDROOT
BRANCH   3   8
ATOM      8  C   UNL     1       7.712  -5.190  25.279  0.00  0.00    +0.098 C 
BRANCH   8   9
ATOM      9  C   UNL     1       7.530  -4.441  26.649  0.00  0.00    +0.165 C 
ATOM     10  O   UNL     1       7.310  -4.984  27.727  0.00  0.00    -0.292 OA
BRANCH   9  11
ATOM     11  C   UNL     1       7.498  -2.937  26.619  0.00  0.00    +0.017 A 
ATOM     12  C   UNL     1       6.296  -2.232  26.791  0.00  0.00    +0.011 A 
ATOM     13  C   UNL     1       6.313  -0.837  26.955  0.00  0.00    +0.001 A 
ATOM     14  C   UNL     1       7.512  -0.138  26.880  0.00  0.00    +0.000 A 
ATOM     15  C   UNL     1       8.703  -0.834  26.627  0.00  0.00    +0.001 A 
ATOM     16  C   UNL     1       8.692  -2.219  26.490  0.00  0.00    +0.011 A 
ENDBRANCH   9  11
ENDBRANCH   8   9
ENDBRANCH   3   8
BRANCH   7  17
ATOM     17  C   UNL     1       8.051  -2.664  22.839  0.00  0.00    +0.055 C 
BRANCH  17  18
ATOM     18  C   UNL     1       8.870  -1.432  22.244  0.00  0.00    +0.146 C 
BRANCH  18  19
ATOM     19  C   UNL     1       9.048  -0.119  22.994  0.00  0.00    -0.019 A 
ATOM     20  C   UNL     1      10.322   0.336  23.396  0.00  0.00    +0.006 A 
ATOM     21  C   UNL     1      10.485   1.482  24.172  0.00  0.00    +0.000 A 
ATOM     22  C   UNL     1       9.371   2.246  24.461  0.00  0.00    +0.000 A 
ATOM     23  C   UNL     1       8.131   1.884  23.962  0.00  0.00    +0.000 A 
ATOM     24  C   UNL     1       7.959   0.718  23.220  0.00  0.00    +0.006 A 
ENDBRANCH  18  19
BRANCH  18  25
ATOM     25  O   UNL     1      10.145  -1.733  21.717  0.00  0.00    -0.387 OA
ATOM     26  H   UNL     1      10.258  -1.213  20.901  0.00  0.00    +0.210 HD
ENDBRANCH  18  25
ENDBRANCH  17  18
ENDBRANCH   7  17
TORSDOF 7
ENDMDL
MODEL 6
REMARK VINA RESULT:      -6.3      1.773      3.524
REMARK  Name = 
REMARK  8 active torsions:
REMARK  status: ('A' for Active; 'I' for Inactive)
REMARK    1  A    between atoms: C_1  and  N_2
REMARK    2  A    between atoms: C_3  and  C_5
REMARK    3  A    between atoms: C_5  and  C_6
REMARK    4  A    between atoms: C_6  and  O_8
REMARK    5  A    between atoms: C_6  and  C_9
REMARK    6  A    between atoms: C_18  and  C_20
REMARK    7  A    between atoms: C_20  and  C_21
REMARK    8  A    between atoms: C_21  and  C_23
REMARK                            x       y       z     vdW  Elec       q    Type
REMARK                         _______ _______ _______ _____ _____    ______ ____
ROOT
ATOM      1  C   UNL     1      10.191   2.118  22.015  0.00  0.00    +0.105 C 
ATOM      2  N   UNL     1      10.061   0.873  22.805  0.00  0.00    -0.299 NA
ATOM      3  C   UNL     1       8.925   0.137  22.290  0.00  0.00    +0.064 C 
ATOM      4  C   UNL     1       7.572   0.724  22.866  0.00  0.00    +0.019 C 
ATOM      5  C   UNL     1       7.579   1.614  24.152  0.00  0.00    +0.003 C 
ATOM      6  C   UNL     1       8.927   2.127  24.601  0.00  0.00    +0.019 C 
ATOM      7  C   UNL     1       9.955   1.056  24.283  0.00  0.00    +0.059 C 
ENDROOT
BRANCH   3   8
ATOM      8  C   UNL     1       9.305  -1.361  21.987  0.00  0.00    +0.098 C 
BRANCH   8   9
ATOM      9  C   UNL     1       9.126  -2.566  22.980  0.00  0.00    +0.165 C 
ATOM     10  O   UNL     1      10.008  -3.024  23.701  0.00  0.00    -0.292 OA
BRANCH   9  11
ATOM     11  C   UNL     1       7.812  -3.296  22.957  0.00  0.00    +0.017 A 
ATOM     12  C   UNL     1       6.639  -2.668  22.509  0.00  0.00    +0.011 A 
ATOM     13  C   UNL     1       5.468  -3.417  22.310  0.00  0.00    +0.001 A 
ATOM     14  C   UNL     1       5.442  -4.772  22.621  0.00  0.00    +0.000 A 
ATOM     15  C   UNL     1       6.591  -5.382  23.145  0.00  0.00    +0.001 A 
ATOM     16  C   UNL     1       7.760  -4.647  23.318  0.00  0.00    +0.011 A 
ENDBRANCH   9  11
ENDBRANCH   8   9
ENDBRANCH   3   8
BRANCH   7  17
ATOM     17  C   UNL     1       9.742  -0.184  25.284  0.00  0.00    +0.055 C 
BRANCH  17  18
ATOM     18  C   UNL     1       8.653  -0.438  26.421  0.00  0.00    +0.146 C 
BRANCH  18  19
ATOM     19  C   UNL     1       7.647  -1.579  26.362  0.00  0.00    -0.019 A 
ATOM     20  C   UNL     1       6.321  -1.375  25.922  0.00  0.00    +0.006 A 
ATOM     21  C   UNL     1       5.366  -2.388  25.962  0.00  0.00    +0.000 A 
ATOM     22  C   UNL     1       5.765  -3.654  26.346  0.00  0.00    +0.000 A 
ATOM     23  C   UNL     1       7.091  -3.902  26.655  0.00  0.00    +0.000 A 
ATOM     24  C   UNL     1       8.040  -2.882  26.653  0.00  0.00    +0.006 A 
ENDBRANCH  18  19
BRANCH  18  25
ATOM     25  O   UNL     1       9.133  -0.437  27.748  0.00  0.00    -0.387 OA
ATOM     26  H   UNL     1       9.750  -1.186  27.841  0.00  0.00    +0.210 HD
ENDBRANCH  18  25
ENDBRANCH  17  18
ENDBRANCH   7  17
TORSDOF 7
ENDMDL
MODEL 7
REMARK VINA RESULT:      -6.2      1.550      3.071
REMARK  Name = 
REMARK  8 active torsions:
REMARK  status: ('A' for Active; 'I' for Inactive)
REMARK    1  A    between atoms: C_1  and  N_2
REMARK    2  A    between atoms: C_3  and  C_5
REMARK    3  A    between atoms: C_5  and  C_6
REMARK    4  A    between atoms: C_6  and  O_8
REMARK    5  A    between atoms: C_6  and  C_9
REMARK    6  A    between atoms: C_18  and  C_20
REMARK    7  A    between atoms: C_20  and  C_21
REMARK    8  A    between atoms: C_21  and  C_23
REMARK                            x       y       z     vdW  Elec       q    Type
REMARK                         _______ _______ _______ _____ _____    ______ ____
ROOT
ATOM      1  C   UNL     1       7.065   1.832  22.292  0.00  0.00    +0.105 C 
ATOM      2  N   UNL     1       7.655   0.645  22.953  0.00  0.00    -0.299 NA
ATOM      3  C   UNL     1       8.000   1.018  24.309  0.00  0.00    +0.064 C 
ATOM      4  C   UNL     1       9.375   1.802  24.339  0.00  0.00    +0.019 C 
ATOM      5  C   UNL     1      10.369   1.704  23.136  0.00  0.00    +0.003 C 
ATOM      6  C   UNL     1       9.817   1.108  21.862  0.00  0.00    +0.019 C 
ATOM      7  C   UNL     1       8.822   0.032  22.252  0.00  0.00    +0.059 C 
ENDROOT
BRANCH   3   8
ATOM      8  C   UNL     1       7.427  -0.017  25.349  0.00  0.00    +0.098 C 
BRANCH   8   9
ATOM      9  C   UNL     1       5.949  -0.553  25.381  0.00  0.00    +0.165 C 
ATOM     10  O   UNL     1       4.944   0.135  25.235  0.00  0.00    -0.292 OA
BRANCH   9  11
ATOM     11  C   UNL     1       5.743  -1.999  25.741  0.00  0.00    +0.017 A 
ATOM     12  C   UNL     1       4.659  -2.729  25.228  0.00  0.00    +0.011 A 
ATOM     13  C   UNL     1       4.591  -4.119  25.417  0.00  0.00    +0.001 A 
ATOM     14  C   UNL     1       5.560  -4.772  26.170  0.00  0.00    +0.000 A 
ATOM     15  C   UNL     1       6.599  -4.030  26.752  0.00  0.00    +0.001 A 
ATOM     16  C   UNL     1       6.682  -2.656  26.544  0.00  0.00    +0.011 A 
ENDBRANCH   9  11
ENDBRANCH   8   9
ENDBRANCH   3   8
BRANCH   7  17
ATOM     17  C   UNL     1       9.623  -1.221  22.864  0.00  0.00    +0.055 C 
BRANCH  17  18
ATOM     18  C   UNL     1       9.108  -2.514  23.644  0.00  0.00    +0.146 C 
BRANCH  18  19
ATOM     19  C   UNL     1       8.002  -3.414  23.112  0.00  0.00    -0.019 A 
ATOM     20  C   UNL     1       7.947  -4.787  23.433  0.00  0.00    +0.006 A 
ATOM     21  C   UNL     1       7.000  -5.640  22.869  0.00  0.00    +0.000 A 
ATOM     22  C   UNL     1       6.026  -5.095  22.055  0.00  0.00    +0.000 A 
ATOM     23  C   UNL     1       5.987  -3.729  21.835  0.00  0.00    +0.000 A 
ATOM     24  C   UNL     1       6.955  -2.880  22.366  0.00  0.00    +0.006 A 
ENDBRANCH  18  19
BRANCH  18  25
ATOM     25  O   UNL     1      10.109  -3.393  24.110  0.00  0.00    -0.387 OA
ATOM     26  H   UNL     1      10.658  -2.905  24.751  0.00  0.00    +0.210 HD
ENDBRANCH  18  25
ENDBRANCH  17  18
ENDBRANCH   7  17
TORSDOF 7
ENDMDL
MODEL 8
REMARK VINA RESULT:      -6.1      1.226      3.786
REMARK  Name = 
REMARK  8 active torsions:
REMARK  status: ('A' for Active; 'I' for Inactive)
REMARK    1  A    between atoms: C_1  and  N_2
REMARK    2  A    between atoms: C_3  and  C_5
REMARK    3  A    between atoms: C_5  and  C_6
REMARK    4  A    between atoms: C_6  and  O_8
REMARK    5  A    between atoms: C_6  and  C_9
REMARK    6  A    between atoms: C_18  and  C_20
REMARK    7  A    between atoms: C_20  and  C_21
REMARK    8  A    between atoms: C_21  and  C_23
REMARK                            x       y       z     vdW  Elec       q    Type
REMARK                         _______ _______ _______ _____ _____    ______ ____
ROOT
ATOM      1  C   UNL     1       9.040   1.281  21.633  0.00  0.00    +0.105 C 
ATOM      2  N   UNL     1       8.776   0.241  22.654  0.00  0.00    -0.299 NA
ATOM      3  C   UNL     1       7.403   0.384  23.089  0.00  0.00    +0.064 C 
ATOM      4  C   UNL     1       7.271   1.553  24.147  0.00  0.00    +0.019 C 
ATOM      5  C   UNL     1       8.531   2.075  24.913  0.00  0.00    +0.003 C 
ATOM      6  C   UNL     1       9.870   1.640  24.366  0.00  0.00    +0.019 C 
ATOM      7  C   UNL     1       9.709   0.234  23.820  0.00  0.00    +0.059 C 
ENDROOT
BRANCH   3   8
ATOM      8  C   UNL     1       6.641  -0.994  23.034  0.00  0.00    +0.098 C 
BRANCH   8   9
ATOM      9  C   UNL     1       7.216  -2.331  22.440  0.00  0.00    +0.165 C 
ATOM     10  O   UNL     1       8.258  -2.428  21.798  0.00  0.00    -0.292 OA
BRANCH   9  11
ATOM     11  C   UNL     1       6.366  -3.566  22.559  0.00  0.00    +0.017 A 
ATOM     12  C   UNL     1       6.854  -4.824  22.172  0.00  0.00    +0.011 A 
ATOM     13  C   UNL     1       6.124  -5.986  22.470  0.00  0.00    +0.001 A 
ATOM     14  C   UNL     1       4.882  -5.894  23.087  0.00  0.00    +0.000 A 
ATOM     15  C   UNL     1       4.358  -4.631  23.400  0.00  0.00    +0.001 A 
ATOM     16  C   UNL     1       5.091  -3.480  23.129  0.00  0.00    +0.011 A 
ENDBRANCH   9  11
ENDBRANCH   8   9
ENDBRANCH   3   8
BRANCH   7  17
ATOM     17  C   UNL     1       9.528  -0.785  25.052  0.00  0.00    +0.055 C 
BRANCH  17  18
ATOM     18  C   UNL     1       9.627  -2.375  25.119  0.00  0.00    +0.146 C 
BRANCH  18  19
ATOM     19  C   UNL     1       8.483  -3.254  25.604  0.00  0.00    -0.019 A 
ATOM     20  C   UNL     1       7.317  -2.703  26.177  0.00  0.00    +0.006 A 
ATOM     21  C   UNL     1       6.311  -3.502  26.717  0.00  0.00    +0.000 A 
ATOM     22  C   UNL     1       6.418  -4.873  26.588  0.00  0.00    +0.000 A 
ATOM     23  C   UNL     1       7.492  -5.426  25.911  0.00  0.00    +0.000 A 
ATOM     24  C   UNL     1       8.518  -4.632  25.405  0.00  0.00    +0.006 A 
ENDBRANCH  18  19
BRANCH  18  25
ATOM     25  O   UNL     1      10.119  -3.014  23.961  0.00  0.00    -0.387 OA
ATOM     26  H   UNL     1       9.852  -2.478  23.191  0.00  0.00    +0.210 HD
ENDBRANCH  18  25
ENDBRANCH  17  18
ENDBRANCH   7  17
TORSDOF 7
ENDMDL
MODEL 9
REMARK VINA RESULT:      -6.0      1.952      5.681
REMARK  Name = 
REMARK  8 active torsions:
REMARK  status: ('A' for Active; 'I' for Inactive)
REMARK    1  A    between atoms: C_1  and  N_2
REMARK    2  A    between atoms: C_3  and  C_5
REMARK    3  A    between atoms: C_5  and  C_6
REMARK    4  A    between atoms: C_6  and  O_8
REMARK    5  A    between atoms: C_6  and  C_9
REMARK    6  A    between atoms: C_18  and  C_20
REMARK    7  A    between atoms: C_20  and  C_21
REMARK    8  A    between atoms: C_21  and  C_23
REMARK                            x       y       z     vdW  Elec       q    Type
REMARK                         _______ _______ _______ _____ _____    ______ ____
ROOT
ATOM      1  C   UNL     1       7.146  -6.072  21.837  0.00  0.00    +0.105 C 
ATOM      2  N   UNL     1       6.762  -4.709  22.271  0.00  0.00    -0.299 NA
ATOM      3  C   UNL     1       7.814  -4.203  23.128  0.00  0.00    +0.064 C 
ATOM      4  C   UNL     1       7.669  -4.784  24.593  0.00  0.00    +0.019 C 
ATOM      5  C   UNL     1       6.309  -5.388  25.074  0.00  0.00    +0.003 C 
ATOM      6  C   UNL     1       5.287  -5.670  23.998  0.00  0.00    +0.019 C 
ATOM      7  C   UNL     1       5.430  -4.597  22.936  0.00  0.00    +0.059 C 
ENDROOT
BRANCH   3   8
ATOM      8  C   UNL     1       8.282  -2.770  22.672  0.00  0.00    +0.098 C 
BRANCH   8   9
ATOM      9  C   UNL     1       9.642  -2.086  23.065  0.00  0.00    +0.165 C 
ATOM     10  O   UNL     1      10.574  -2.644  23.636  0.00  0.00    -0.292 OA
BRANCH   9  11
ATOM     11  C   UNL     1       9.766  -0.605  22.837  0.00  0.00    +0.017 A 
ATOM     12  C   UNL     1       9.025   0.041  21.834  0.00  0.00    +0.011 A 
ATOM     13  C   UNL     1       9.005   1.443  21.764  0.00  0.00    +0.001 A 
ATOM     14  C   UNL     1       9.772   2.200  22.642  0.00  0.00    +0.000 A 
ATOM     15  C   UNL     1      10.575   1.552  23.592  0.00  0.00    +0.001 A 
ATOM     16  C   UNL     1      10.576   0.163  23.681  0.00  0.00    +0.011 A 
ENDBRANCH   9  11
ENDBRANCH   8   9
ENDBRANCH   3   8
BRANCH   7  17
ATOM     17  C   UNL     1       4.886  -3.203  23.527  0.00  0.00    +0.055 C 
BRANCH  17  18
ATOM     18  C   UNL     1       5.052  -2.541  24.968  0.00  0.00    +0.146 C 
BRANCH  18  19
ATOM     19  C   UNL     1       6.042  -1.420  25.253  0.00  0.00    -0.019 A 
ATOM     20  C   UNL     1       7.073  -1.567  26.206  0.00  0.00    +0.006 A 
ATOM     21  C   UNL     1       7.918  -0.514  26.548  0.00  0.00    +0.000 A 
ATOM     22  C   UNL     1       7.803   0.674  25.853  0.00  0.00    +0.000 A 
ATOM     23  C   UNL     1       6.885   0.793  24.824  0.00  0.00    +0.000 A 
ATOM     24  C   UNL     1       6.013  -0.246  24.506  0.00  0.00    +0.006 A 
ENDBRANCH  18  19
BRANCH  18  25
ATOM     25  O   UNL     1       3.857  -2.151  25.611  0.00  0.00    -0.387 OA
ATOM     26  H   UNL     1       3.155  -2.764  25.327  0.00  0.00    +0.210 HD
ENDBRANCH  18  25
ENDBRANCH  17  18
ENDBRANCH   7  17
TORSDOF 7
ENDMDL
