MODEL 1
REMARK VINA RESULT:      -4.2      0.000      0.000
REMARK  Name = 
REMARK  4 active torsions:
REMARK  status: ('A' for Active; 'I' for Inactive)
REMARK    1  A    between atoms: O_1  and  C_2
REMARK    2  A    between atoms: C_6  and  O_7
REMARK    3  A    between atoms: C_8  and  O_10
REMARK    4  A    between atoms: C_11  and  O_13
REMARK                            x       y       z     vdW  Elec       q    Type
REMARK                         _______ _______ _______ _____ _____    ______ ____
ROOT
ATOM      1  C   UNL     1       8.972  -0.639  22.322  0.00  0.00    +0.171 C 
ATOM      2  C   UNL     1       8.264   0.720  22.452  0.00  0.00    +0.178 C 
ATOM      3  C   UNL     1       9.291   1.838  22.703  0.00  0.00    +0.201 C 
ATOM      4  C   UNL     1      10.208   1.451  23.887  0.00  0.00    +0.279 C 
ATOM      5  O   UNL     1      10.829   0.180  23.686  0.00  0.00    -0.346 OA
ATOM      6  C   UNL     1       9.891  -0.886  23.523  0.00  0.00    +0.197 C 
ENDROOT
BRANCH   1   7
ATOM      7  O   UNL     1       9.748  -0.638  21.112  0.00  0.00    -0.387 OA
ATOM      8  H   UNL     1      10.644  -0.946  21.342  0.00  0.00    +0.210 HD
ENDBRANCH   1   7
BRANCH   2   9
ATOM      9  O   UNL     1       7.323   0.676  23.533  0.00  0.00    -0.386 OA
ATOM     10  H   UNL     1       6.447   0.873  23.148  0.00  0.00    +0.210 HD
ENDBRANCH   2   9
BRANCH   3  11
ATOM     11  O   UNL     1      10.051   2.088  21.516  0.00  0.00    -0.384 OA
ATOM     12  H   UNL     1      10.929   2.416  21.811  0.00  0.00    +0.210 HD
ENDBRANCH   3  11
BRANCH   4  13
ATOM     13  O   UNL     1       9.521   1.476  25.133  0.00  0.00    -0.365 OA
ATOM     14  H   UNL     1       9.936   2.173  25.674  0.00  0.00    +0.213 HD
ENDBRANCH   4  13
TORSDOF 4
ENDMDL
MODEL 2
REMARK VINA RESULT:      -4.2      5.347      6.401
REMARK  Name = 
REMARK  4 active torsions:
REMARK  status: ('A' for Active; 'I' for Inactive)
REMARK    1  A    between atoms: O_1  and  C_2
REMARK    2  A    between atoms: C_6  and  O_7
REMARK    3  A    between atoms: C_8  and  O_10
REMARK    4  A    between atoms: C_11  and  O_13
REMARK                            x       y       z     vdW  Elec       q    Type
REMARK                         _______ _______ _______ _____ _____    ______ ____
ROOT
ATOM      1  C   UNL     1       6.728  -4.759  25.408  0.00  0.00    +0.171 C 
ATOM      2  C   UNL     1       7.597  -4.747  26.676  0.00  0.00    +0.178 C 
ATOM      3  C   UNL     1       8.889  -3.948  26.435  0.00  0.00    +0.201 C 
ATOM      4  C   UNL     1       9.591  -4.459  25.155  0.00  0.00    +0.279 C 
ATOM      5  O   UNL     1       8.718  -4.434  24.023  0.00  0.00    -0.346 OA
ATOM      6  C   UNL     1       7.544  -5.230  24.199  0.00  0.00    +0.197 C 
ENDROOT
BRANCH   1   7
ATOM      7  O   UNL     1       6.243  -3.427  25.172  0.00  0.00    -0.387 OA
ATOM      8  H   UNL     1       5.671  -3.461  24.383  0.00  0.00    +0.210 HD
ENDBRANCH   1   7
BRANCH   2   9
ATOM      9  O   UNL     1       7.924  -6.092  27.054  0.00  0.00    -0.386 OA
ATOM     10  H   UNL     1       7.083  -6.524  27.301  0.00  0.00    +0.210 HD
ENDBRANCH   2   9
BRANCH   3  11
ATOM     11  O   UNL     1       8.597  -2.549  26.345  0.00  0.00    -0.384 OA
ATOM     12  H   UNL     1       7.974  -2.442  25.592  0.00  0.00    +0.210 HD
ENDBRANCH   3  11
BRANCH   4  13
ATOM     13  O   UNL     1      10.145  -5.759  25.325  0.00  0.00    -0.365 OA
ATOM     14  H   UNL     1      11.081  -5.708  25.057  0.00  0.00    +0.213 HD
ENDBRANCH   4  13
TORSDOF 4
ENDMDL
MODEL 3
REMARK VINA RESULT:      -4.2      0.690      3.069
REMARK  Name = 
REMARK  4 active torsions:
REMARK  status: ('A' for Active; 'I' for Inactive)
REMARK    1  A    between atoms: O_1  and  C_2
REMARK    2  A    between atoms: C_6  and  O_7
REMARK    3  A    between atoms: C_8  and  O_10
REMARK    4  A    between atoms: C_11  and  O_13
REMARK                            x       y       z     vdW  Elec       q    Type
REMARK                         _______ _______ _______ _____ _____    ______ ____
ROOT
ATOM      1  C   UNL     1      10.099   1.678  23.968  0.00  0.00    +0.171 C 
ATOM      2  C   UNL     1       9.303   2.032  22.702  0.00  0.00    +0.178 C 
ATOM      3  C   UNL     1       8.269   0.935  22.393  0.00  0.00    +0.201 C 
ATOM      4  C   UNL     1       8.962  -0.448  22.377  0.00  0.00    +0.279 C 
ATOM      5  O   UNL     1       9.675  -0.700  23.589  0.00  0.00    -0.346 OA
ATOM      6  C   UNL     1      10.691   0.268  23.858  0.00  0.00    +0.197 C 
ENDROOT
BRANCH   1   7
ATOM      7  O   UNL     1       9.215   1.743  25.099  0.00  0.00    -0.387 OA
ATOM      8  H   UNL     1       8.904   0.836  25.277  0.00  0.00    +0.210 HD
ENDBRANCH   1   7
BRANCH   2   9
ATOM      9  O   UNL     1      10.198   2.180  21.590  0.00  0.00    -0.386 OA
ATOM     10  H   UNL     1      10.930   2.751  21.895  0.00  0.00    +0.210 HD
ENDBRANCH   2   9
BRANCH   3  11
ATOM     11  O   UNL     1       7.205   0.973  23.350  0.00  0.00    -0.384 OA
ATOM     12  H   UNL     1       7.106   0.058  23.694  0.00  0.00    +0.210 HD
ENDBRANCH   3  11
BRANCH   4  13
ATOM     13  O   UNL     1       9.821  -0.609  21.254  0.00  0.00    -0.365 OA
ATOM     14  H   UNL     1       9.607  -1.472  20.853  0.00  0.00    +0.213 HD
ENDBRANCH   4  13
TORSDOF 4
ENDMDL
MODEL 4
REMARK VINA RESULT:      -4.1      1.271      2.420
REMARK  Name = 
REMARK  4 active torsions:
REMARK  status: ('A' for Active; 'I' for Inactive)
REMARK    1  A    between atoms: O_1  and  C_2
REMARK    2  A    between atoms: C_6  and  O_7
REMARK    3  A    between atoms: C_8  and  O_10
REMARK    4  A    between atoms: C_11  and  O_13
REMARK                            x       y       z     vdW  Elec       q    Type
REMARK                         _______ _______ _______ _____ _____    ______ ____
ROOT
ATOM      1  C   UNL     1       8.851  -0.345  24.107  0.00  0.00    +0.171 C 
ATOM      2  C   UNL     1       8.215  -0.551  22.722  0.00  0.00    +0.178 C 
ATOM      3  C   UNL     1       9.260  -0.332  21.613  0.00  0.00    +0.201 C 
ATOM      4  C   UNL     1       9.970   1.026  21.823  0.00  0.00    +0.279 C 
ATOM      5  O   UNL     1      10.536   1.135  23.131  0.00  0.00    -0.346 OA
ATOM      6  C   UNL     1       9.569   1.007  24.175  0.00  0.00    +0.197 C 
ENDROOT
BRANCH   1   7
ATOM      7  O   UNL     1       9.794  -1.404  24.340  0.00  0.00    -0.387 OA
ATOM      8  H   UNL     1      10.092  -1.330  25.265  0.00  0.00    +0.210 HD
ENDBRANCH   1   7
BRANCH   2   9
ATOM      9  O   UNL     1       7.125   0.365  22.546  0.00  0.00    -0.386 OA
ATOM     10  H   UNL     1       7.435   1.052  21.924  0.00  0.00    +0.210 HD
ENDBRANCH   2   9
BRANCH   3  11
ATOM     11  O   UNL     1      10.198  -1.413  21.597  0.00  0.00    -0.384 OA
ATOM     12  H   UNL     1      10.507  -1.500  20.669  0.00  0.00    +0.210 HD
ENDBRANCH   3  11
BRANCH   4  13
ATOM     13  O   UNL     1       9.112   2.131  21.561  0.00  0.00    -0.365 OA
ATOM     14  H   UNL     1       8.314   1.775  21.126  0.00  0.00    +0.213 HD
ENDBRANCH   4  13
TORSDOF 4
ENDMDL
MODEL 5
REMARK VINA RESULT:      -4.0      1.329      2.929
REMARK  Name = 
REMARK  4 active torsions:
REMARK  status: ('A' for Active; 'I' for Inactive)
REMARK    1  A    between atoms: O_1  and  C_2
REMARK    2  A    between atoms: C_6  and  O_7
REMARK    3  A    between atoms: C_8  and  O_10
REMARK    4  A    between atoms: C_11  and  O_13
REMARK                            x       y       z     vdW  Elec       q    Type
REMARK                         _______ _______ _______ _____ _____    ______ ____
ROOT
ATOM      1  C   UNL     1       8.501   0.504  23.942  0.00  0.00    +0.171 C 
ATOM      2  C   UNL     1       9.781   0.997  23.247  0.00  0.00    +0.178 C 
ATOM      3  C   UNL     1       9.740   0.665  21.746  0.00  0.00    +0.201 C 
ATOM      4  C   UNL     1       9.414  -0.835  21.550  0.00  0.00    +0.279 C 
ATOM      5  O   UNL     1       8.210  -1.210  22.222  0.00  0.00    -0.346 OA
ATOM      6  C   UNL     1       8.255  -0.977  23.631  0.00  0.00    +0.197 C 
ENDROOT
BRANCH   1   7
ATOM      7  O   UNL     1       7.393   1.287  23.470  0.00  0.00    -0.387 OA
ATOM      8  H   UNL     1       6.800   0.687  22.982  0.00  0.00    +0.210 HD
ENDBRANCH   1   7
BRANCH   2   9
ATOM      9  O   UNL     1      10.929   0.380  23.848  0.00  0.00    -0.386 OA
ATOM     10  H   UNL     1      11.657   0.455  23.200  0.00  0.00    +0.210 HD
ENDBRANCH   2   9
BRANCH   3  11
ATOM     11  O   UNL     1       8.783   1.496  21.080  0.00  0.00    -0.384 OA
ATOM     12  H   UNL     1       8.009   0.926  20.880  0.00  0.00    +0.210 HD
ENDBRANCH   3  11
BRANCH   4  13
ATOM     13  O   UNL     1      10.488  -1.678  21.949  0.00  0.00    -0.365 OA
ATOM     14  H   UNL     1      10.371  -1.858  22.901  0.00  0.00    +0.213 HD
ENDBRANCH   4  13
TORSDOF 4
ENDMDL
MODEL 6
REMARK VINA RESULT:      -4.0      1.057      2.874
REMARK  Name = 
REMARK  4 active torsions:
REMARK  status: ('A' for Active; 'I' for Inactive)
REMARK    1  A    between atoms: O_1  and  C_2
REMARK    2  A    between atoms: C_6  and  O_7
REMARK    3  A    between atoms: C_8  and  O_10
REMARK    4  A    between atoms: C_11  and  O_13
REMARK                            x       y       z     vdW  Elec       q    Type
REMARK                         _______ _______ _______ _____ _____    ______ ____
ROOT
ATOM      1  C   UNL     1       8.151  -0.602  22.958  0.00  0.00    +0.171 C 
ATOM      2  C   UNL     1       9.649  -0.763  22.652  0.00  0.00    +0.178 C 
ATOM      3  C   UNL     1      10.456   0.374  23.303  0.00  0.00    +0.201 C 
ATOM      4  C   UNL     1       9.843   1.740  22.916  0.00  0.00    +0.279 C 
ATOM      5  O   UNL     1       8.452   1.809  23.237  0.00  0.00    -0.346 OA
ATOM      6  C   UNL     1       7.672   0.805  22.584  0.00  0.00    +0.197 C 
ENDROOT
BRANCH   1   7
ATOM      7  O   UNL     1       7.944  -0.824  24.363  0.00  0.00    -0.387 OA
ATOM      8  H   UNL     1       8.648  -1.425  24.669  0.00  0.00    +0.210 HD
ENDBRANCH   1   7
BRANCH   2   9
ATOM      9  O   UNL     1       9.859  -0.753  21.233  0.00  0.00    -0.386 OA
ATOM     10  H   UNL     1      10.799  -0.975  21.088  0.00  0.00    +0.210 HD
ENDBRANCH   2   9
BRANCH   3  11
ATOM     11  O   UNL     1      10.494   0.204  24.724  0.00  0.00    -0.384 OA
ATOM     12  H   UNL     1       9.610  -0.137  24.987  0.00  0.00    +0.210 HD
ENDBRANCH   3  11
BRANCH   4  13
ATOM     13  O   UNL     1      10.051   2.057  21.544  0.00  0.00    -0.365 OA
ATOM     14  H   UNL     1      10.472   1.280  21.133  0.00  0.00    +0.213 HD
ENDBRANCH   4  13
TORSDOF 4
ENDMDL
MODEL 7
REMARK VINA RESULT:      -3.9      5.077      6.292
REMARK  Name = 
REMARK  4 active torsions:
REMARK  status: ('A' for Active; 'I' for Inactive)
REMARK    1  A    between atoms: O_1  and  C_2
REMARK    2  A    between atoms: C_6  and  O_7
REMARK    3  A    between atoms: C_8  and  O_10
REMARK    4  A    between atoms: C_11  and  O_13
REMARK                            x       y       z     vdW  Elec       q    Type
REMARK                         _______ _______ _______ _____ _____    ______ ____
ROOT
ATOM      1  C   UNL     1       8.799  -4.706  26.631  0.00  0.00    +0.171 C 
ATOM      2  C   UNL     1       7.743  -3.647  26.274  0.00  0.00    +0.178 C 
ATOM      3  C   UNL     1       7.009  -4.036  24.979  0.00  0.00    +0.201 C 
ATOM      4  C   UNL     1       8.038  -4.350  23.867  0.00  0.00    +0.279 C 
ATOM      5  O   UNL     1       8.979  -5.344  24.277  0.00  0.00    -0.346 OA
ATOM      6  C   UNL     1       9.724  -4.970  25.438  0.00  0.00    +0.197 C 
ENDROOT
BRANCH   1   7
ATOM      7  O   UNL     1       8.125  -5.921  26.998  0.00  0.00    -0.387 OA
ATOM      8  H   UNL     1       8.253  -6.047  27.956  0.00  0.00    +0.210 HD
ENDBRANCH   1   7
BRANCH   2   9
ATOM      9  O   UNL     1       8.373  -2.369  26.107  0.00  0.00    -0.386 OA
ATOM     10  H   UNL     1       8.240  -2.112  25.174  0.00  0.00    +0.210 HD
ENDBRANCH   2   9
BRANCH   3  11
ATOM     11  O   UNL     1       6.144  -5.152  25.217  0.00  0.00    -0.384 OA
ATOM     12  H   UNL     1       5.233  -4.789  25.287  0.00  0.00    +0.210 HD
ENDBRANCH   3  11
BRANCH   4  13
ATOM     13  O   UNL     1       8.715  -3.183  23.413  0.00  0.00    -0.365 OA
ATOM     14  H   UNL     1       8.048  -2.613  22.989  0.00  0.00    +0.213 HD
ENDBRANCH   4  13
TORSDOF 4
ENDMDL
MODEL 8
REMARK VINA RESULT:      -3.9      1.243      2.629
REMARK  Name = 
REMARK  4 active torsions:
REMARK  status: ('A' for Active; 'I' for Inactive)
REMARK    1  A    between atoms: O_1  and  C_2
REMARK    2  A    between atoms: C_6  and  O_7
REMARK    3  A    between atoms: C_8  and  O_10
REMARK    4  A    between atoms: C_11  and  O_13
REMARK                            x       y       z     vdW  Elec       q    Type
REMARK                         _______ _______ _______ _____ _____    ______ ____
ROOT
ATOM      1  C   UNL     1      10.061   1.677  22.154  0.00  0.00    +0.171 C 
ATOM      2  C   UNL     1       9.545   0.275  22.521  0.00  0.00    +0.178 C 
ATOM      3  C   UNL     1       8.459   0.371  23.607  0.00  0.00    +0.201 C 
ATOM      4  C   UNL     1       8.976   1.220  24.792  0.00  0.00    +0.279 C 
ATOM      5  O   UNL     1       9.431   2.506  24.367  0.00  0.00    -0.346 OA
ATOM      6  C   UNL     1      10.492   2.440  23.411  0.00  0.00    +0.197 C 
ENDROOT
BRANCH   1   7
ATOM      7  O   UNL     1       9.006   2.394  21.491  0.00  0.00    -0.387 OA
ATOM      8  H   UNL     1       8.919   3.258  21.934  0.00  0.00    +0.210 HD
ENDBRANCH   1   7
BRANCH   2   9
ATOM      9  O   UNL     1      10.632  -0.534  22.994  0.00  0.00    -0.386 OA
ATOM     10  H   UNL     1      11.440  -0.195  22.562  0.00  0.00    +0.210 HD
ENDBRANCH   2   9
BRANCH   3  11
ATOM     11  O   UNL     1       7.257   0.920  23.058  0.00  0.00    -0.384 OA
ATOM     12  H   UNL     1       6.545   0.266  23.234  0.00  0.00    +0.210 HD
ENDBRANCH   3  11
BRANCH   4  13
ATOM     13  O   UNL     1       9.992   0.554  25.532  0.00  0.00    -0.365 OA
ATOM     14  H   UNL     1       9.689   0.509  26.458  0.00  0.00    +0.213 HD
ENDBRANCH   4  13
TORSDOF 4
ENDMDL
MODEL 9
REMARK VINA RESULT:      -3.9      1.370      3.029
REMARK  Name = 
REMARK  4 active torsions:
REMARK  status: ('A' for Active; 'I' for Inactive)
REMARK    1  A    between atoms: O_1  and  C_2
REMARK    2  A    between atoms: C_6  and  O_7
REMARK    3  A    between atoms: C_8  and  O_10
REMARK    4  A    between atoms: C_11  and  O_13
REMARK                            x       y       z     vdW  Elec       q    Type
REMARK                         _______ _______ _______ _____ _____    ______ ____
ROOT
ATOM      1  C   UNL     1       9.508   1.088  22.837  0.00  0.00    +0.171 C 
ATOM      2  C   UNL     1      10.470  -0.010  23.320  0.00  0.00    +0.178 C 
ATOM      3  C   UNL     1      10.006  -1.389  22.820  0.00  0.00    +0.201 C 
ATOM      4  C   UNL     1       8.517  -1.604  23.183  0.00  0.00    +0.279 C 
ATOM      5  O   UNL     1       7.692  -0.544  22.695  0.00  0.00    -0.346 OA
ATOM      6  C   UNL     1       8.062   0.739  23.205  0.00  0.00    +0.197 C 
ENDROOT
BRANCH   1   7
ATOM      7  O   UNL     1       9.627   1.206  21.409  0.00  0.00    -0.387 OA
ATOM      8  H   UNL     1      10.265   0.531  21.114  0.00  0.00    +0.210 HD
ENDBRANCH   1   7
BRANCH   2   9
ATOM      9  O   UNL     1      10.528  -0.009  24.753  0.00  0.00    -0.386 OA
ATOM     10  H   UNL     1       9.927  -0.716  25.057  0.00  0.00    +0.210 HD
ENDBRANCH   2   9
BRANCH   3  11
ATOM     11  O   UNL     1      10.219  -1.503  21.409  0.00  0.00    -0.384 OA
ATOM     12  H   UNL     1       9.695  -2.278  21.109  0.00  0.00    +0.210 HD
ENDBRANCH   3  11
BRANCH   4  13
ATOM     13  O   UNL     1       8.322  -1.781  24.582  0.00  0.00    -0.365 OA
ATOM     14  H   UNL     1       7.514  -2.314  24.692  0.00  0.00    +0.213 HD
ENDBRANCH   4  13
TORSDOF 4
ENDMDL
