MODEL 1
REMARK VINA RESULT:      -5.7      0.000      0.000
REMARK  Name = 
REMARK  28 active torsions:
REMARK  status: ('A' for Active; 'I' for Inactive)
REMARK    1  A    between atoms: C_1  and  C_2
REMARK    2  A    between atoms: C_2  and  C_3
REMARK    3  A    between atoms: C_2  and  C_4
REMARK    4  A    between atoms: C_2  and  C_40
REMARK    5  A    between atoms: C_4  and  O_5
REMARK    6  A    between atoms: O_5  and  P_6
REMARK    7  A    between atoms: P_6  and  O_7
REMARK    8  A    between atoms: P_6  and  O_9
REMARK    9  A    between atoms: O_9  and  P_10
REMARK   10  A    between atoms: P_10  and  O_11
REMARK   11  A    between atoms: P_10  and  O_13
REMARK   12  A    between atoms: O_13  and  C_14
REMARK   13  A    between atoms: C_14  and  C_15
REMARK   14  A    between atoms: C_18  and  N_30
REMARK   15  A    between atoms: C_20  and  O_22
REMARK   16  A    between atoms: C_23  and  O_25
REMARK   17  A    between atoms: O_25  and  P_26
REMARK   18  A    between atoms: P_26  and  O_27
REMARK   19  A    between atoms: P_26  and  O_28
REMARK   20  A    between atoms: C_40  and  O_42
REMARK   21  A    between atoms: C_40  and  C_43
REMARK   22  A    between atoms: N_45  and  C_46
REMARK   23  A    between atoms: C_46  and  C_47
REMARK   24  A    between atoms: C_47  and  C_48
REMARK   25  A    between atoms: N_50  and  C_51
REMARK   26  A    between atoms: C_51  and  C_52
REMARK   27  A    between atoms: C_52  and  C_53
REMARK   28  A    between atoms: C_53  and  N_54
REMARK                            x       y       z     vdW  Elec       q    Type
REMARK                         _______ _______ _______ _____ _____    ______ ____
ROOT
ATOM      1  P   UNL     1       8.934   1.332  22.276  0.00  0.00    +0.483 P 
ATOM      2  O   UNL     1       7.700   1.771  21.487  0.00  0.00    -0.227 OA
ENDROOT
BRANCH   1   3
ATOM      3  O   UNL     1      10.156   2.101  21.512  0.00  0.00    -0.302 OA
ATOM      4  H   UNL     1       9.748   2.785  20.961  0.00  0.00    +0.222 HD
ENDBRANCH   1   3
BRANCH   1   5
ATOM      5  O   UNL     1       9.045  -0.109  21.326  0.00  0.00    -0.186 OA
BRANCH   5   6
ATOM      6  P   UNL     1       9.757  -1.369  22.273  0.00  0.00    +0.483 P 
ATOM      7  O   UNL     1       9.894  -0.440  23.481  0.00  0.00    -0.227 OA
BRANCH   6   8
ATOM      8  O   UNL     1      10.469  -2.630  23.221  0.00  0.00    -0.302 OA
ATOM      9  H   UNL     1      10.071  -3.451  22.870  0.00  0.00    +0.222 HD
ENDBRANCH   6   8
BRANCH   6  10
ATOM     10  O   UNL     1       8.294  -2.183  22.292  0.00  0.00    -0.286 OA
BRANCH  10  11
ATOM     11  C   UNL     1       8.234  -3.608  22.279  0.00  0.00    +0.181 C 
BRANCH  11  13
ATOM     12  C   UNL     1       6.198  -3.880  20.888  0.00  0.00    +0.016 C 
ATOM     13  C   UNL     1       6.789  -4.244  22.283  0.00  0.00    +0.024 C 
ATOM     14  C   UNL     1       6.937  -5.786  22.259  0.00  0.00    +0.016 C 
BRANCH  13  15
ATOM     15  C   UNL     1       5.849  -3.783  23.489  0.00  0.00    +0.208 C 
BRANCH  15  16
ATOM     16  C   UNL     1       4.490  -4.546  23.758  0.00  0.00    +0.242 C 
ATOM     17  N   UNL     1       4.460  -5.317  24.930  0.00  0.00    -0.313 N 
ATOM     18  H   UNL     1       5.047  -4.939  25.666  0.00  0.00    +0.149 HD
ATOM     19  O   UNL     1       3.486  -4.451  23.051  0.00  0.00    -0.273 OA
BRANCH  17  20
ATOM     20  C   UNL     1       3.238  -6.031  25.341  0.00  0.00    +0.113 C 
BRANCH  20  21
ATOM     21  C   UNL     1       3.106  -6.270  26.844  0.00  0.00    +0.114 C 
BRANCH  21  22
ATOM     22  C   UNL     1       4.461  -6.327  27.489  0.00  0.00    +0.215 C 
ATOM     23  N   UNL     1       4.723  -5.248  28.272  0.00  0.00    -0.315 N 
ATOM     24  H   UNL     1       3.974  -4.562  28.305  0.00  0.00    +0.149 HD
ATOM     25  O   UNL     1       5.243  -7.264  27.364  0.00  0.00    -0.276 OA
BRANCH  23  26
ATOM     26  C   UNL     1       5.985  -4.625  28.258  0.00  0.00    +0.110 C 
BRANCH  26  27
ATOM     27  C   UNL     1       6.935  -4.189  27.117  0.00  0.00    +0.097 C 
BRANCH  27  28
ATOM     28  C   UNL     1       7.978  -5.079  26.472  0.00  0.00    +0.427 C 
BRANCH  28  29
ATOM     29  N   UNL     1       8.947  -4.342  25.656  0.00  0.00    +0.038 N 
ATOM     30  O   UNL     1       8.855  -3.116  25.679  0.00  0.00    +0.034 OA
ATOM     31  O   UNL     1       9.750  -5.017  24.993  0.00  0.00    -0.582 OA
ENDBRANCH  28  29
ENDBRANCH  27  28
ENDBRANCH  26  27
ENDBRANCH  23  26
ENDBRANCH  21  22
ENDBRANCH  20  21
ENDBRANCH  17  20
ENDBRANCH  15  16
BRANCH  15  32
ATOM     32  O   UNL     1       5.372  -2.420  23.342  0.00  0.00    -0.382 OA
ATOM     33  H   UNL     1       4.836  -2.349  22.541  0.00  0.00    +0.210 HD
ENDBRANCH  15  32
ENDBRANCH  13  15
ENDBRANCH  11  13
ENDBRANCH  10  11
ENDBRANCH   6  10
ENDBRANCH   5   6
ENDBRANCH   1   5
BRANCH   1  34
ATOM     34  O   UNL     1       8.822   2.774  23.227  0.00  0.00    -0.284 OA
BRANCH  34  35
ATOM     35  C   UNL     1       8.802   2.530  24.625  0.00  0.00    +0.206 C 
BRANCH  35  36
ATOM     36  C   UNL     1       7.542   3.095  25.260  0.00  0.00    +0.179 C 
ATOM     37  C   UNL     1       6.317   3.005  24.357  0.00  0.00    +0.194 C 
ATOM     38  C   UNL     1       5.612   1.717  24.818  0.00  0.00    +0.196 C 
ATOM     39  C   UNL     1       6.435   1.228  26.026  0.00  0.00    +0.253 C 
ATOM     40  O   UNL     1       7.230   2.346  26.448  0.00  0.00    -0.346 OA
BRANCH  39  41
ATOM     41  N   UNL     1       5.658   0.738  27.143  0.00  0.00    -0.286 N 
ATOM     42  C   UNL     1       4.851  -0.366  27.100  0.00  0.00    +0.167 A 
ATOM     43  N   UNL     1       4.531  -1.112  26.018  0.00  0.00    -0.216 NA
ATOM     44  C   UNL     1       3.745  -2.149  26.378  0.00  0.00    +0.225 A 
ATOM     45  N   UNL     1       3.291  -2.478  27.611  0.00  0.00    -0.219 NA
ATOM     46  C   UNL     1       3.653  -1.706  28.660  0.00  0.00    +0.147 A 
ATOM     47  N   UNL     1       3.202  -2.050  29.923  0.00  0.00    -0.341 N 
ATOM     48  H   UNL     1       3.239  -1.292  30.594  0.00  0.00    +0.144 HD
ATOM     49  H   UNL     1       2.369  -2.620  29.898  0.00  0.00    +0.144 HD
ATOM     50  C   UNL     1       4.469  -0.594  28.417  0.00  0.00    +0.147 A 
ATOM     51  N   UNL     1       4.972   0.387  29.225  0.00  0.00    -0.231 NA
ATOM     52  C   UNL     1       5.731   1.130  28.447  0.00  0.00    +0.203 A 
ENDBRANCH  39  41
BRANCH  38  53
ATOM     53  O   UNL     1       5.634   0.757  23.750  0.00  0.00    -0.385 OA
ATOM     54  H   UNL     1       4.735   0.704  23.366  0.00  0.00    +0.210 HD
ENDBRANCH  38  53
BRANCH  37  55
ATOM     55  O   UNL     1       5.608   4.224  24.618  0.00  0.00    -0.278 OA
BRANCH  55  56
ATOM     56  P   UNL     1       5.510   5.391  23.345  0.00  0.00    +0.473 P 
ATOM     57  O   UNL     1       5.421   6.437  22.206  0.00  0.00    -0.228 OA
BRANCH  56  58
ATOM     58  O   UNL     1       6.225   4.231  22.449  0.00  0.00    -0.303 OA
ATOM     59  H   UNL     1       5.682   4.067  21.657  0.00  0.00    +0.222 HD
ENDBRANCH  56  58
BRANCH  56  60
ATOM     60  O   UNL     1       3.976   4.883  23.117  0.00  0.00    -0.303 OA
ATOM     61  H   UNL     1       3.529   5.053  23.972  0.00  0.00    +0.222 HD
ENDBRANCH  56  60
ENDBRANCH  55  56
ENDBRANCH  37  55
ENDBRANCH  35  36
ENDBRANCH  34  35
ENDBRANCH   1  34
TORSDOF 26
ENDMDL
MODEL 2
REMARK VINA RESULT:      -5.5      3.573      6.836
REMARK  Name = 
REMARK  28 active torsions:
REMARK  status: ('A' for Active; 'I' for Inactive)
REMARK    1  A    between atoms: C_1  and  C_2
REMARK    2  A    between atoms: C_2  and  C_3
REMARK    3  A    between atoms: C_2  and  C_4
REMARK    4  A    between atoms: C_2  and  C_40
REMARK    5  A    between atoms: C_4  and  O_5
REMARK    6  A    between atoms: O_5  and  P_6
REMARK    7  A    between atoms: P_6  and  O_7
REMARK    8  A    between atoms: P_6  and  O_9
REMARK    9  A    between atoms: O_9  and  P_10
REMARK   10  A    between atoms: P_10  and  O_11
REMARK   11  A    between atoms: P_10  and  O_13
REMARK   12  A    between atoms: O_13  and  C_14
REMARK   13  A    between atoms: C_14  and  C_15
REMARK   14  A    between atoms: C_18  and  N_30
REMARK   15  A    between atoms: C_20  and  O_22
REMARK   16  A    between atoms: C_23  and  O_25
REMARK   17  A    between atoms: O_25  and  P_26
REMARK   18  A    between atoms: P_26  and  O_27
REMARK   19  A    between atoms: P_26  and  O_28
REMARK   20  A    between atoms: C_40  and  O_42
REMARK   21  A    between atoms: C_40  and  C_43
REMARK   22  A    between atoms: N_45  and  C_46
REMARK   23  A    between atoms: C_46  and  C_47
REMARK   24  A    between atoms: C_47  and  C_48
REMARK   25  A    between atoms: N_50  and  C_51
REMARK   26  A    between atoms: C_51  and  C_52
REMARK   27  A    between atoms: C_52  and  C_53
REMARK   28  A    between atoms: C_53  and  N_54
REMARK                            x       y       z     vdW  Elec       q    Type
REMARK                         _______ _______ _______ _____ _____    ______ ____
ROOT
ATOM      1  P   UNL     1       6.424  -3.510  26.932  0.00  0.00    +0.483 P 
ATOM      2  O   UNL     1       5.979  -3.882  25.518  0.00  0.00    -0.227 OA
ENDROOT
BRANCH   1   3
ATOM      3  O   UNL     1       7.424  -4.736  27.341  0.00  0.00    -0.302 OA
ATOM      4  H   UNL     1       7.212  -4.969  28.257  0.00  0.00    +0.222 HD
ENDBRANCH   1   3
BRANCH   1   5
ATOM      5  O   UNL     1       5.004  -4.250  27.588  0.00  0.00    -0.186 OA
BRANCH   5   6
ATOM      6  P   UNL     1       5.354  -5.890  28.012  0.00  0.00    +0.483 P 
ATOM      7  O   UNL     1       5.841  -5.470  29.401  0.00  0.00    -0.227 OA
BRANCH   6   8
ATOM      8  O   UNL     1       5.702  -7.531  28.437  0.00  0.00    -0.302 OA
ATOM      9  H   UNL     1       6.514  -7.744  27.938  0.00  0.00    +0.222 HD
ENDBRANCH   6   8
BRANCH   6  10
ATOM     10  O   UNL     1       3.716  -6.237  28.020  0.00  0.00    -0.286 OA
BRANCH  10  11
ATOM     11  C   UNL     1       3.151  -7.186  27.116  0.00  0.00    +0.181 C 
BRANCH  11  13
ATOM     12  C   UNL     1       1.344  -7.877  25.562  0.00  0.00    +0.016 C 
ATOM     13  C   UNL     1       2.106  -6.619  26.077  0.00  0.00    +0.024 C 
ATOM     14  C   UNL     1       1.042  -5.804  26.855  0.00  0.00    +0.016 C 
BRANCH  13  15
ATOM     15  C   UNL     1       2.731  -5.751  24.891  0.00  0.00    +0.208 C 
BRANCH  15  16
ATOM     16  C   UNL     1       3.994  -6.292  24.106  0.00  0.00    +0.242 C 
ATOM     17  N   UNL     1       4.546  -5.400  23.174  0.00  0.00    -0.313 N 
ATOM     18  H   UNL     1       4.422  -4.428  23.438  0.00  0.00    +0.149 HD
ATOM     19  O   UNL     1       4.524  -7.384  24.310  0.00  0.00    -0.273 OA
BRANCH  17  20
ATOM     20  C   UNL     1       5.762  -5.745  22.417  0.00  0.00    +0.113 C 
BRANCH  20  21
ATOM     21  C   UNL     1       6.625  -4.553  22.007  0.00  0.00    +0.114 C 
BRANCH  21  22
ATOM     22  C   UNL     1       7.749  -4.356  22.984  0.00  0.00    +0.215 C 
ATOM     23  N   UNL     1       8.030  -3.047  23.215  0.00  0.00    -0.315 N 
ATOM     24  H   UNL     1       7.449  -2.395  22.694  0.00  0.00    +0.149 HD
ATOM     25  O   UNL     1       8.334  -5.272  23.554  0.00  0.00    -0.276 OA
BRANCH  23  26
ATOM     26  C   UNL     1       9.358  -2.589  23.299  0.00  0.00    +0.110 C 
BRANCH  26  27
ATOM     27  C   UNL     1      10.119  -1.425  22.620  0.00  0.00    +0.097 C 
BRANCH  27  28
ATOM     28  C   UNL     1      10.132   0.006  23.118  0.00  0.00    +0.427 C 
BRANCH  28  29
ATOM     29  N   UNL     1       9.830   0.988  22.073  0.00  0.00    +0.038 N 
ATOM     30  O   UNL     1      10.271   2.123  22.249  0.00  0.00    +0.034 OA
ATOM     31  O   UNL     1       9.134   0.599  21.122  0.00  0.00    -0.582 OA
ENDBRANCH  28  29
ENDBRANCH  27  28
ENDBRANCH  26  27
ENDBRANCH  23  26
ENDBRANCH  21  22
ENDBRANCH  20  21
ENDBRANCH  17  20
ENDBRANCH  15  16
BRANCH  15  32
ATOM     32  O   UNL     1       3.220  -4.459  25.336  0.00  0.00    -0.382 OA
ATOM     33  H   UNL     1       4.024  -4.580  25.859  0.00  0.00    +0.210 HD
ENDBRANCH  15  32
ENDBRANCH  13  15
ENDBRANCH  11  13
ENDBRANCH  10  11
ENDBRANCH   6  10
ENDBRANCH   5   6
ENDBRANCH   1   5
BRANCH   1  34
ATOM     34  O   UNL     1       7.844  -2.770  26.276  0.00  0.00    -0.284 OA
BRANCH  34  35
ATOM     35  C   UNL     1       7.895  -1.366  26.476  0.00  0.00    +0.206 C 
BRANCH  35  36
ATOM     36  C   UNL     1       6.613  -0.699  26.004  0.00  0.00    +0.179 C 
ATOM     37  C   UNL     1       6.021   0.264  27.027  0.00  0.00    +0.194 C 
ATOM     38  C   UNL     1       6.547   1.641  26.585  0.00  0.00    +0.196 C 
ATOM     39  C   UNL     1       7.313   1.370  25.275  0.00  0.00    +0.253 C 
ATOM     40  O   UNL     1       6.885   0.076  24.823  0.00  0.00    -0.346 OA
BRANCH  39  41
ATOM     41  N   UNL     1       7.103   2.342  24.227  0.00  0.00    -0.286 N 
ATOM     42  C   UNL     1       7.613   3.613  24.235  0.00  0.00    +0.167 A 
ATOM     43  N   UNL     1       8.276   4.228  25.241  0.00  0.00    -0.216 NA
ATOM     44  C   UNL     1       8.663   5.465  24.860  0.00  0.00    +0.225 A 
ATOM     45  N   UNL     1       8.465   6.085  23.672  0.00  0.00    -0.219 NA
ATOM     46  C   UNL     1       7.808   5.418  22.697  0.00  0.00    +0.147 A 
ATOM     47  N   UNL     1       7.618   6.046  21.477  0.00  0.00    -0.341 N 
ATOM     48  H   UNL     1       6.877   5.640  20.917  0.00  0.00    +0.144 HD
ATOM     49  H   UNL     1       7.666   7.052  21.545  0.00  0.00    +0.144 HD
ATOM     50  C   UNL     1       7.351   4.122  22.969  0.00  0.00    +0.147 A 
ATOM     51  N   UNL     1       6.639   3.213  22.237  0.00  0.00    -0.231 NA
ATOM     52  C   UNL     1       6.563   2.136  22.991  0.00  0.00    +0.203 A 
ENDBRANCH  39  41
BRANCH  38  53
ATOM     53  O   UNL     1       7.419   2.163  27.600  0.00  0.00    -0.385 OA
ATOM     54  H   UNL     1       7.036   1.949  28.475  0.00  0.00    +0.210 HD
ENDBRANCH  38  53
BRANCH  37  55
ATOM     55  O   UNL     1       4.606   0.074  26.899  0.00  0.00    -0.278 OA
BRANCH  55  56
ATOM     56  P   UNL     1       3.800  -0.849  28.121  0.00  0.00    +0.473 P 
ATOM     57  O   UNL     1       3.079  -1.675  29.215  0.00  0.00    -0.228 OA
BRANCH  56  58
ATOM     58  O   UNL     1       2.637   0.288  27.979  0.00  0.00    -0.303 OA
ATOM     59  H   UNL     1       1.767  -0.147  28.027  0.00  0.00    +0.222 HD
ENDBRANCH  56  58
BRANCH  56  60
ATOM     60  O   UNL     1       3.266  -1.812  26.918  0.00  0.00    -0.303 OA
ATOM     61  H   UNL     1       3.597  -2.705  27.150  0.00  0.00    +0.222 HD
ENDBRANCH  56  60
ENDBRANCH  55  56
ENDBRANCH  37  55
ENDBRANCH  35  36
ENDBRANCH  34  35
ENDBRANCH   1  34
TORSDOF 26
ENDMDL
MODEL 3
REMARK VINA RESULT:      -5.3      3.076      8.333
REMARK  Name = 
REMARK  28 active torsions:
REMARK  status: ('A' for Active; 'I' for Inactive)
REMARK    1  A    between atoms: C_1  and  C_2
REMARK    2  A    between atoms: C_2  and  C_3
REMARK    3  A    between atoms: C_2  and  C_4
REMARK    4  A    between atoms: C_2  and  C_40
REMARK    5  A    between atoms: C_4  and  O_5
REMARK    6  A    between atoms: O_5  and  P_6
REMARK    7  A    between atoms: P_6  and  O_7
REMARK    8  A    between atoms: P_6  and  O_9
REMARK    9  A    between atoms: O_9  and  P_10
REMARK   10  A    between atoms: P_10  and  O_11
REMARK   11  A    between atoms: P_10  and  O_13
REMARK   12  A    between atoms: O_13  and  C_14
REMARK   13  A    between atoms: C_14  and  C_15
REMARK   14  A    between atoms: C_18  and  N_30
REMARK   15  A    between atoms: C_20  and  O_22
REMARK   16  A    between atoms: C_23  and  O_25
REMARK   17  A    between atoms: O_25  and  P_26
REMARK   18  A    between atoms: P_26  and  O_27
REMARK   19  A    between atoms: P_26  and  O_28
REMARK   20  A    between atoms: C_40  and  O_42
REMARK   21  A    between atoms: C_40  and  C_43
REMARK   22  A    between atoms: N_45  and  C_46
REMARK   23  A    between atoms: C_46  and  C_47
REMARK   24  A    between atoms: C_47  and  C_48
REMARK   25  A    between atoms: N_50  and  C_51
REMARK   26  A    between atoms: C_51  and  C_52
REMARK   27  A    between atoms: C_52  and  C_53
REMARK   28  A    between atoms: C_53  and  N_54
REMARK                            x       y       z     vdW  Elec       q    Type
REMARK                         _______ _______ _______ _____ _____    ______ ____
ROOT
ATOM      1  P   UNL     1       4.533   0.761  26.281  0.00  0.00    +0.483 P 
ATOM      2  O   UNL     1       4.866   0.838  27.771  0.00  0.00    -0.227 OA
ENDROOT
BRANCH   1   3
ATOM      3  O   UNL     1       5.726  -0.180  25.681  0.00  0.00    -0.302 OA
ATOM      4  H   UNL     1       5.465  -1.097  25.855  0.00  0.00    +0.222 HD
ENDBRANCH   1   3
BRANCH   1   5
ATOM      5  O   UNL     1       5.365   2.253  26.004  0.00  0.00    -0.186 OA
BRANCH   5   6
ATOM      6  P   UNL     1       6.479   2.538  27.296  0.00  0.00    +0.483 P 
ATOM      7  O   UNL     1       7.654   2.053  26.443  0.00  0.00    -0.227 OA
BRANCH   6   8
ATOM      8  O   UNL     1       7.594   2.825  28.587  0.00  0.00    -0.302 OA
ATOM      9  H   UNL     1       7.492   2.049  29.173  0.00  0.00    +0.222 HD
ENDBRANCH   6   8
BRANCH   6  10
ATOM     10  O   UNL     1       6.248   4.188  27.132  0.00  0.00    -0.286 OA
BRANCH  10  11
ATOM     11  C   UNL     1       5.688   4.747  25.944  0.00  0.00    +0.181 C 
BRANCH  11  13
ATOM     12  C   UNL     1       5.604   6.608  24.305  0.00  0.00    +0.016 C 
ATOM     13  C   UNL     1       6.601   5.770  25.161  0.00  0.00    +0.024 C 
ATOM     14  C   UNL     1       7.188   6.777  26.183  0.00  0.00    +0.016 C 
BRANCH  13  15
ATOM     15  C   UNL     1       7.761   5.111  24.284  0.00  0.00    +0.208 C 
BRANCH  15  16
ATOM     16  C   UNL     1       7.394   4.049  23.171  0.00  0.00    +0.242 C 
ATOM     17  N   UNL     1       7.524   2.706  23.560  0.00  0.00    -0.313 N 
ATOM     18  H   UNL     1       7.353   2.564  24.549  0.00  0.00    +0.149 HD
ATOM     19  O   UNL     1       6.962   4.333  22.053  0.00  0.00    -0.273 OA
BRANCH  17  20
ATOM     20  C   UNL     1       7.155   1.610  22.646  0.00  0.00    +0.113 C 
BRANCH  20  21
ATOM     21  C   UNL     1       8.077   1.439  21.440  0.00  0.00    +0.114 C 
BRANCH  21  22
ATOM     22  C   UNL     1       9.457   1.047  21.884  0.00  0.00    +0.215 C 
ATOM     23  N   UNL     1       9.777  -0.233  21.562  0.00  0.00    -0.315 N 
ATOM     24  H   UNL     1       9.041  -0.739  21.075  0.00  0.00    +0.149 HD
ATOM     25  O   UNL     1      10.241   1.807  22.444  0.00  0.00    -0.276 OA
BRANCH  23  26
ATOM     26  C   UNL     1      10.454  -1.068  22.470  0.00  0.00    +0.110 C 
BRANCH  26  27
ATOM     27  C   UNL     1      10.034  -2.332  23.258  0.00  0.00    +0.097 C 
BRANCH  27  28
ATOM     28  C   UNL     1       9.135  -2.331  24.478  0.00  0.00    +0.427 C 
BRANCH  28  29
ATOM     29  N   UNL     1       8.933  -3.665  25.052  0.00  0.00    +0.038 N 
ATOM     30  O   UNL     1       9.630  -4.566  24.589  0.00  0.00    +0.034 OA
ATOM     31  O   UNL     1       8.059  -3.773  25.927  0.00  0.00    -0.582 OA
ENDBRANCH  28  29
ENDBRANCH  27  28
ENDBRANCH  26  27
ENDBRANCH  23  26
ENDBRANCH  21  22
ENDBRANCH  20  21
ENDBRANCH  17  20
ENDBRANCH  15  16
BRANCH  15  32
ATOM     32  O   UNL     1       8.709   4.354  25.080  0.00  0.00    -0.382 OA
ATOM     33  H   UNL     1       8.851   3.487  24.676  0.00  0.00    +0.210 HD
ENDBRANCH  15  32
ENDBRANCH  13  15
ENDBRANCH  11  13
ENDBRANCH  10  11
ENDBRANCH   6  10
ENDBRANCH   5   6
ENDBRANCH   1   5
BRANCH   1  34
ATOM     34  O   UNL     1       3.700  -0.730  26.558  0.00  0.00    -0.284 OA
BRANCH  34  35
ATOM     35  C   UNL     1       3.803  -1.197  27.893  0.00  0.00    +0.206 C 
BRANCH  35  36
ATOM     36  C   UNL     1       4.690  -2.428  27.975  0.00  0.00    +0.179 C 
ATOM     37  C   UNL     1       3.984  -3.644  28.564  0.00  0.00    +0.194 C 
ATOM     38  C   UNL     1       3.514  -4.433  27.328  0.00  0.00    +0.196 C 
ATOM     39  C   UNL     1       4.087  -3.659  26.125  0.00  0.00    +0.253 C 
ATOM     40  O   UNL     1       5.112  -2.803  26.651  0.00  0.00    -0.346 OA
BRANCH  39  41
ATOM     41  N   UNL     1       4.636  -4.479  25.070  0.00  0.00    -0.286 N 
ATOM     42  C   UNL     1       5.275  -3.991  23.962  0.00  0.00    +0.167 A 
ATOM     43  N   UNL     1       5.400  -2.698  23.585  0.00  0.00    -0.216 NA
ATOM     44  C   UNL     1       6.138  -2.607  22.457  0.00  0.00    +0.225 A 
ATOM     45  N   UNL     1       6.709  -3.601  21.738  0.00  0.00    -0.219 NA
ATOM     46  C   UNL     1       6.564  -4.875  22.168  0.00  0.00    +0.147 A 
ATOM     47  N   UNL     1       7.162  -5.891  21.441  0.00  0.00    -0.341 N 
ATOM     48  H   UNL     1       6.773  -6.810  21.622  0.00  0.00    +0.144 HD
ATOM     49  H   UNL     1       7.340  -5.632  20.482  0.00  0.00    +0.144 HD
ATOM     50  C   UNL     1       5.817  -5.104  23.330  0.00  0.00    +0.147 A 
ATOM     51  N   UNL     1       5.456  -6.242  23.996  0.00  0.00    -0.231 NA
ATOM     52  C   UNL     1       4.807  -5.833  25.066  0.00  0.00    +0.203 A 
ENDBRANCH  39  41
BRANCH  38  53
ATOM     53  O   UNL     1       2.079  -4.455  27.298  0.00  0.00    -0.385 OA
ATOM     54  H   UNL     1       1.759  -4.817  28.150  0.00  0.00    +0.210 HD
ENDBRANCH  38  53
BRANCH  37  55
ATOM     55  O   UNL     1       4.996  -4.281  29.354  0.00  0.00    -0.278 OA
BRANCH  55  56
ATOM     56  P   UNL     1       5.445  -5.900  28.943  0.00  0.00    +0.473 P 
ATOM     57  O   UNL     1       5.846  -7.350  28.576  0.00  0.00    -0.228 OA
BRANCH  56  58
ATOM     58  O   UNL     1       6.678  -5.183  28.152  0.00  0.00    -0.303 OA
ATOM     59  H   UNL     1       6.512  -5.241  27.195  0.00  0.00    +0.222 HD
ENDBRANCH  56  58
BRANCH  56  60
ATOM     60  O   UNL     1       6.175  -5.974  30.400  0.00  0.00    -0.303 OA
ATOM     61  H   UNL     1       5.965  -5.117  30.826  0.00  0.00    +0.222 HD
ENDBRANCH  56  60
ENDBRANCH  55  56
ENDBRANCH  37  55
ENDBRANCH  35  36
ENDBRANCH  34  35
ENDBRANCH   1  34
TORSDOF 26
ENDMDL
MODEL 4
REMARK VINA RESULT:      -5.3      2.994      5.838
REMARK  Name = 
REMARK  28 active torsions:
REMARK  status: ('A' for Active; 'I' for Inactive)
REMARK    1  A    between atoms: C_1  and  C_2
REMARK    2  A    between atoms: C_2  and  C_3
REMARK    3  A    between atoms: C_2  and  C_4
REMARK    4  A    between atoms: C_2  and  C_40
REMARK    5  A    between atoms: C_4  and  O_5
REMARK    6  A    between atoms: O_5  and  P_6
REMARK    7  A    between atoms: P_6  and  O_7
REMARK    8  A    between atoms: P_6  and  O_9
REMARK    9  A    between atoms: O_9  and  P_10
REMARK   10  A    between atoms: P_10  and  O_11
REMARK   11  A    between atoms: P_10  and  O_13
REMARK   12  A    between atoms: O_13  and  C_14
REMARK   13  A    between atoms: C_14  and  C_15
REMARK   14  A    between atoms: C_18  and  N_30
REMARK   15  A    between atoms: C_20  and  O_22
REMARK   16  A    between atoms: C_23  and  O_25
REMARK   17  A    between atoms: O_25  and  P_26
REMARK   18  A    between atoms: P_26  and  O_27
REMARK   19  A    between atoms: P_26  and  O_28
REMARK   20  A    between atoms: C_40  and  O_42
REMARK   21  A    between atoms: C_40  and  C_43
REMARK   22  A    between atoms: N_45  and  C_46
REMARK   23  A    between atoms: C_46  and  C_47
REMARK   24  A    between atoms: C_47  and  C_48
REMARK   25  A    between atoms: N_50  and  C_51
REMARK   26  A    between atoms: C_51  and  C_52
REMARK   27  A    between atoms: C_52  and  C_53
REMARK   28  A    between atoms: C_53  and  N_54
REMARK                            x       y       z     vdW  Elec       q    Type
REMARK                         _______ _______ _______ _____ _____    ______ ____
ROOT
ATOM      1  P   UNL     1       6.728  -1.708  25.903  0.00  0.00    +0.483 P 
ATOM      2  O   UNL     1       5.895  -1.648  27.184  0.00  0.00    -0.227 OA
ENDROOT
BRANCH   1   3
ATOM      3  O   UNL     1       6.133  -3.021  25.134  0.00  0.00    -0.302 OA
ATOM      4  H   UNL     1       6.238  -3.767  25.744  0.00  0.00    +0.222 HD
ENDBRANCH   1   3
BRANCH   1   5
ATOM      5  O   UNL     1       7.973  -2.573  26.736  0.00  0.00    -0.186 OA
BRANCH   5   6
ATOM      6  P   UNL     1       7.808  -4.266  26.420  0.00  0.00    +0.483 P 
ATOM      7  O   UNL     1       9.277  -4.515  26.766  0.00  0.00    -0.227 OA
BRANCH   6   8
ATOM      8  O   UNL     1       7.642  -5.959  26.105  0.00  0.00    -0.302 OA
ATOM      9  H   UNL     1       8.074  -6.089  25.238  0.00  0.00    +0.222 HD
ENDBRANCH   6   8
BRANCH   6  10
ATOM     10  O   UNL     1       6.829  -4.423  27.770  0.00  0.00    -0.286 OA
BRANCH  10  11
ATOM     11  C   UNL     1       6.203  -5.664  28.094  0.00  0.00    +0.181 C 
BRANCH  11  13
ATOM     12  C   UNL     1       4.293  -6.990  28.961  0.00  0.00    +0.016 C 
ATOM     13  C   UNL     1       4.639  -5.617  28.310  0.00  0.00    +0.024 C 
ATOM     14  C   UNL     1       4.333  -4.570  29.412  0.00  0.00    +0.016 C 
BRANCH  13  15
ATOM     15  C   UNL     1       3.782  -5.325  26.996  0.00  0.00    +0.208 C 
BRANCH  15  16
ATOM     16  C   UNL     1       4.059  -6.158  25.679  0.00  0.00    +0.242 C 
ATOM     17  N   UNL     1       4.709  -5.454  24.654  0.00  0.00    -0.313 N 
ATOM     18  H   UNL     1       5.331  -4.733  25.002  0.00  0.00    +0.149 HD
ATOM     19  O   UNL     1       3.796  -7.353  25.544  0.00  0.00    -0.273 OA
BRANCH  17  20
ATOM     20  C   UNL     1       5.088  -6.121  23.395  0.00  0.00    +0.113 C 
BRANCH  20  21
ATOM     21  C   UNL     1       6.517  -5.851  22.928  0.00  0.00    +0.114 C 
BRANCH  21  22
ATOM     22  C   UNL     1       6.549  -4.691  21.974  0.00  0.00    +0.215 C 
ATOM     23  N   UNL     1       7.523  -3.790  22.265  0.00  0.00    -0.315 N 
ATOM     24  H   UNL     1       8.082  -4.025  23.081  0.00  0.00    +0.149 HD
ATOM     25  O   UNL     1       5.805  -4.577  21.005  0.00  0.00    -0.276 OA
BRANCH  23  26
ATOM     26  C   UNL     1       7.282  -2.405  22.195  0.00  0.00    +0.110 C 
BRANCH  26  27
ATOM     27  C   UNL     1       8.209  -1.168  22.242  0.00  0.00    +0.097 C 
BRANCH  27  28
ATOM     28  C   UNL     1       9.697  -1.213  22.530  0.00  0.00    +0.427 C 
BRANCH  28  29
ATOM     29  N   UNL     1      10.019  -1.797  23.835  0.00  0.00    +0.038 N 
ATOM     30  O   UNL     1      10.129  -1.007  24.771  0.00  0.00    +0.034 OA
ATOM     31  O   UNL     1      10.182  -3.027  23.875  0.00  0.00    -0.582 OA
ENDBRANCH  28  29
ENDBRANCH  27  28
ENDBRANCH  26  27
ENDBRANCH  23  26
ENDBRANCH  21  22
ENDBRANCH  20  21
ENDBRANCH  17  20
ENDBRANCH  15  16
BRANCH  15  32
ATOM     32  O   UNL     1       3.950  -3.971  26.502  0.00  0.00    -0.382 OA
ATOM     33  H   UNL     1       4.337  -3.995  25.616  0.00  0.00    +0.210 HD
ENDBRANCH  15  32
ENDBRANCH  13  15
ENDBRANCH  11  13
ENDBRANCH  10  11
ENDBRANCH   6  10
ENDBRANCH   5   6
ENDBRANCH   1   5
BRANCH   1  34
ATOM     34  O   UNL     1       5.483  -0.842  25.069  0.00  0.00    -0.284 OA
BRANCH  34  35
ATOM     35  C   UNL     1       5.250   0.457  25.591  0.00  0.00    +0.206 C 
BRANCH  35  36
ATOM     36  C   UNL     1       5.315   1.507  24.494  0.00  0.00    +0.179 C 
ATOM     37  C   UNL     1       4.393   2.696  24.740  0.00  0.00    +0.194 C 
ATOM     38  C   UNL     1       5.312   3.747  25.388  0.00  0.00    +0.196 C 
ATOM     39  C   UNL     1       6.717   3.114  25.360  0.00  0.00    +0.253 C 
ATOM     40  O   UNL     1       6.650   2.035  24.416  0.00  0.00    -0.346 OA
BRANCH  39  41
ATOM     41  N   UNL     1       7.790   4.011  24.995  0.00  0.00    -0.286 N 
ATOM     42  C   UNL     1       8.995   3.610  24.486  0.00  0.00    +0.167 A 
ATOM     43  N   UNL     1       9.453   2.344  24.350  0.00  0.00    -0.216 NA
ATOM     44  C   UNL     1      10.670   2.346  23.765  0.00  0.00    +0.225 A 
ATOM     45  N   UNL     1      11.404   3.402  23.342  0.00  0.00    -0.219 NA
ATOM     46  C   UNL     1      10.892   4.645  23.490  0.00  0.00    +0.147 A 
ATOM     47  N   UNL     1      11.636   5.725  23.043  0.00  0.00    -0.341 N 
ATOM     48  H   UNL     1      11.358   6.611  23.449  0.00  0.00    +0.144 HD
ATOM     49  H   UNL     1      12.622   5.520  22.981  0.00  0.00    +0.144 HD
ATOM     50  C   UNL     1       9.633   4.779  24.087  0.00  0.00    +0.147 A 
ATOM     51  N   UNL     1       8.866   5.863  24.411  0.00  0.00    -0.231 NA
ATOM     52  C   UNL     1       7.744   5.371  24.892  0.00  0.00    +0.203 A 
ENDBRANCH  39  41
BRANCH  38  53
ATOM     53  O   UNL     1       4.877   3.992  26.735  0.00  0.00    -0.385 OA
ATOM     54  H   UNL     1       5.274   4.834  27.038  0.00  0.00    +0.210 HD
ENDBRANCH  38  53
BRANCH  37  55
ATOM     55  O   UNL     1       3.901   3.026  23.435  0.00  0.00    -0.278 OA
BRANCH  55  56
ATOM     56  P   UNL     1       4.212   4.617  22.831  0.00  0.00    +0.473 P 
ATOM     57  O   UNL     1       4.489   6.042  22.292  0.00  0.00    -0.228 OA
BRANCH  56  58
ATOM     58  O   UNL     1       5.505   3.918  22.124  0.00  0.00    -0.303 OA
ATOM     59  H   UNL     1       5.211   3.118  21.654  0.00  0.00    +0.222 HD
ENDBRANCH  56  58
BRANCH  56  60
ATOM     60  O   UNL     1       3.146   4.280  21.644  0.00  0.00    -0.303 OA
ATOM     61  H   UNL     1       3.565   3.556  21.133  0.00  0.00    +0.222 HD
ENDBRANCH  56  60
ENDBRANCH  55  56
ENDBRANCH  37  55
ENDBRANCH  35  36
ENDBRANCH  34  35
ENDBRANCH   1  34
TORSDOF 26
ENDMDL
MODEL 5
REMARK VINA RESULT:      -5.3      2.520      6.231
REMARK  Name = 
REMARK  28 active torsions:
REMARK  status: ('A' for Active; 'I' for Inactive)
REMARK    1  A    between atoms: C_1  and  C_2
REMARK    2  A    between atoms: C_2  and  C_3
REMARK    3  A    between atoms: C_2  and  C_4
REMARK    4  A    between atoms: C_2  and  C_40
REMARK    5  A    between atoms: C_4  and  O_5
REMARK    6  A    between atoms: O_5  and  P_6
REMARK    7  A    between atoms: P_6  and  O_7
REMARK    8  A    between atoms: P_6  and  O_9
REMARK    9  A    between atoms: O_9  and  P_10
REMARK   10  A    between atoms: P_10  and  O_11
REMARK   11  A    between atoms: P_10  and  O_13
REMARK   12  A    between atoms: O_13  and  C_14
REMARK   13  A    between atoms: C_14  and  C_15
REMARK   14  A    between atoms: C_18  and  N_30
REMARK   15  A    between atoms: C_20  and  O_22
REMARK   16  A    between atoms: C_23  and  O_25
REMARK   17  A    between atoms: O_25  and  P_26
REMARK   18  A    between atoms: P_26  and  O_27
REMARK   19  A    between atoms: P_26  and  O_28
REMARK   20  A    between atoms: C_40  and  O_42
REMARK   21  A    between atoms: C_40  and  C_43
REMARK   22  A    between atoms: N_45  and  C_46
REMARK   23  A    between atoms: C_46  and  C_47
REMARK   24  A    between atoms: C_47  and  C_48
REMARK   25  A    between atoms: N_50  and  C_51
REMARK   26  A    between atoms: C_51  and  C_52
REMARK   27  A    between atoms: C_52  and  C_53
REMARK   28  A    between atoms: C_53  and  N_54
REMARK                            x       y       z     vdW  Elec       q    Type
REMARK                         _______ _______ _______ _____ _____    ______ ____
ROOT
ATOM      1  P   UNL     1       5.399   3.930  23.044  0.00  0.00    +0.483 P 
ATOM      2  O   UNL     1       5.934   5.341  22.797  0.00  0.00    -0.227 OA
ENDROOT
BRANCH   1   3
ATOM      3  O   UNL     1       4.283   3.745  21.866  0.00  0.00    -0.302 OA
ATOM      4  H   UNL     1       3.452   4.099  22.218  0.00  0.00    +0.222 HD
ENDBRANCH   1   3
BRANCH   1   5
ATOM      5  O   UNL     1       4.282   4.545  24.214  0.00  0.00    -0.186 OA
BRANCH   5   6
ATOM      6  P   UNL     1       3.505   3.224  25.017  0.00  0.00    +0.483 P 
ATOM      7  O   UNL     1       4.599   2.254  24.566  0.00  0.00    -0.227 OA
BRANCH   6   8
ATOM      8  O   UNL     1       2.728   1.904  25.820  0.00  0.00    -0.302 OA
ATOM      9  H   UNL     1       2.111   1.543  25.154  0.00  0.00    +0.222 HD
ENDBRANCH   6   8
BRANCH   6  10
ATOM     10  O   UNL     1       3.872   3.909  26.500  0.00  0.00    -0.286 OA
BRANCH  10  11
ATOM     11  C   UNL     1       4.818   3.309  27.384  0.00  0.00    +0.181 C 
BRANCH  11  13
ATOM     12  C   UNL     1       5.154   3.848  29.782  0.00  0.00    +0.016 C 
ATOM     13  C   UNL     1       4.293   2.963  28.832  0.00  0.00    +0.024 C 
ATOM     14  C   UNL     1       2.853   3.519  28.972  0.00  0.00    +0.016 C 
BRANCH  13  15
ATOM     15  C   UNL     1       4.343   1.415  29.220  0.00  0.00    +0.208 C 
BRANCH  15  16
ATOM     16  C   UNL     1       4.921   0.367  28.184  0.00  0.00    +0.242 C 
ATOM     17  N   UNL     1       3.965  -0.248  27.361  0.00  0.00    -0.313 N 
ATOM     18  H   UNL     1       3.166   0.348  27.170  0.00  0.00    +0.149 HD
ATOM     19  O   UNL     1       6.118   0.124  28.035  0.00  0.00    -0.273 OA
BRANCH  17  20
ATOM     20  C   UNL     1       4.365  -1.197  26.307  0.00  0.00    +0.113 C 
BRANCH  20  21
ATOM     21  C   UNL     1       3.714  -2.576  26.401  0.00  0.00    +0.114 C 
BRANCH  21  22
ATOM     22  C   UNL     1       3.851  -3.312  25.099  0.00  0.00    +0.215 C 
ATOM     23  N   UNL     1       5.088  -3.197  24.550  0.00  0.00    -0.315 N 
ATOM     24  H   UNL     1       5.736  -2.631  25.091  0.00  0.00    +0.149 HD
ATOM     25  O   UNL     1       2.958  -3.985  24.592  0.00  0.00    -0.276 OA
BRANCH  23  26
ATOM     26  C   UNL     1       5.259  -2.985  23.169  0.00  0.00    +0.110 C 
BRANCH  26  27
ATOM     27  C   UNL     1       6.442  -3.224  22.202  0.00  0.00    +0.097 C 
BRANCH  27  28
ATOM     28  C   UNL     1       7.176  -4.541  22.042  0.00  0.00    +0.427 C 
BRANCH  28  29
ATOM     29  N   UNL     1       6.316  -5.631  21.571  0.00  0.00    +0.038 N 
ATOM     30  O   UNL     1       5.999  -6.473  22.410  0.00  0.00    +0.034 OA
ATOM     31  O   UNL     1       6.010  -5.626  20.369  0.00  0.00    -0.582 OA
ENDBRANCH  28  29
ENDBRANCH  27  28
ENDBRANCH  26  27
ENDBRANCH  23  26
ENDBRANCH  21  22
ENDBRANCH  20  21
ENDBRANCH  17  20
ENDBRANCH  15  16
BRANCH  15  32
ATOM     32  O   UNL     1       3.029   0.853  29.471  0.00  0.00    -0.382 OA
ATOM     33  H   UNL     1       2.803   0.965  30.405  0.00  0.00    +0.210 HD
ENDBRANCH  15  32
ENDBRANCH  13  15
ENDBRANCH  11  13
ENDBRANCH  10  11
ENDBRANCH   6  10
ENDBRANCH   5   6
ENDBRANCH   1   5
BRANCH   1  34
ATOM     34  O   UNL     1       6.517   3.316  21.875  0.00  0.00    -0.284 OA
BRANCH  34  35
ATOM     35  C   UNL     1       6.806   1.937  22.037  0.00  0.00    +0.206 C 
BRANCH  35  36
ATOM     36  C   UNL     1       8.260   1.724  22.424  0.00  0.00    +0.179 C 
ATOM     37  C   UNL     1       8.599   2.249  23.815  0.00  0.00    +0.194 C 
ATOM     38  C   UNL     1       8.489   1.005  24.715  0.00  0.00    +0.196 C 
ATOM     39  C   UNL     1       8.202  -0.159  23.747  0.00  0.00    +0.253 C 
ATOM     40  O   UNL     1       8.550   0.315  22.438  0.00  0.00    -0.346 OA
BRANCH  39  41
ATOM     41  N   UNL     1       8.920  -1.382  24.025  0.00  0.00    -0.286 N 
ATOM     42  C   UNL     1       8.597  -2.260  25.024  0.00  0.00    +0.167 A 
ATOM     43  N   UNL     1       7.663  -2.102  25.990  0.00  0.00    -0.216 NA
ATOM     44  C   UNL     1       7.602  -3.205  26.769  0.00  0.00    +0.225 A 
ATOM     45  N   UNL     1       8.325  -4.346  26.677  0.00  0.00    -0.219 NA
ATOM     46  C   UNL     1       9.236  -4.455  25.683  0.00  0.00    +0.147 A 
ATOM     47  N   UNL     1       9.964  -5.629  25.579  0.00  0.00    -0.341 N 
ATOM     48  H   UNL     1      10.816  -5.537  25.037  0.00  0.00    +0.144 HD
ATOM     49  H   UNL     1      10.008  -6.139  26.449  0.00  0.00    +0.144 HD
ATOM     50  C   UNL     1       9.396  -3.376  24.806  0.00  0.00    +0.147 A 
ATOM     51  N   UNL     1      10.232  -3.152  23.747  0.00  0.00    -0.231 NA
ATOM     52  C   UNL     1       9.879  -1.980  23.262  0.00  0.00    +0.203 A 
ENDBRANCH  39  41
BRANCH  38  53
ATOM     53  O   UNL     1       7.410   1.188  25.645  0.00  0.00    -0.385 OA
ATOM     54  H   UNL     1       6.581   0.891  25.217  0.00  0.00    +0.210 HD
ENDBRANCH  38  53
BRANCH  37  55
ATOM     55  O   UNL     1       9.919   2.789  23.666  0.00  0.00    -0.278 OA
BRANCH  55  56
ATOM     56  P   UNL     1      10.142   4.476  23.978  0.00  0.00    +0.473 P 
ATOM     57  O   UNL     1      10.342   5.986  24.257  0.00  0.00    -0.228 OA
BRANCH  56  58
ATOM     58  O   UNL     1      11.350   4.349  22.888  0.00  0.00    -0.303 OA
ATOM     59  H   UNL     1      10.992   4.535  22.001  0.00  0.00    +0.222 HD
ENDBRANCH  56  58
BRANCH  56  60
ATOM     60  O   UNL     1       8.947   4.744  22.901  0.00  0.00    -0.303 OA
ATOM     61  H   UNL     1       9.307   4.424  22.047  0.00  0.00    +0.222 HD
ENDBRANCH  56  60
ENDBRANCH  55  56
ENDBRANCH  37  55
ENDBRANCH  35  36
ENDBRANCH  34  35
ENDBRANCH   1  34
TORSDOF 26
ENDMDL
MODEL 6
REMARK VINA RESULT:      -5.3      3.273      6.199
REMARK  Name = 
REMARK  28 active torsions:
REMARK  status: ('A' for Active; 'I' for Inactive)
REMARK    1  A    between atoms: C_1  and  C_2
REMARK    2  A    between atoms: C_2  and  C_3
REMARK    3  A    between atoms: C_2  and  C_4
REMARK    4  A    between atoms: C_2  and  C_40
REMARK    5  A    between atoms: C_4  and  O_5
REMARK    6  A    between atoms: O_5  and  P_6
REMARK    7  A    between atoms: P_6  and  O_7
REMARK    8  A    between atoms: P_6  and  O_9
REMARK    9  A    between atoms: O_9  and  P_10
REMARK   10  A    between atoms: P_10  and  O_11
REMARK   11  A    between atoms: P_10  and  O_13
REMARK   12  A    between atoms: O_13  and  C_14
REMARK   13  A    between atoms: C_14  and  C_15
REMARK   14  A    between atoms: C_18  and  N_30
REMARK   15  A    between atoms: C_20  and  O_22
REMARK   16  A    between atoms: C_23  and  O_25
REMARK   17  A    between atoms: O_25  and  P_26
REMARK   18  A    between atoms: P_26  and  O_27
REMARK   19  A    between atoms: P_26  and  O_28
REMARK   20  A    between atoms: C_40  and  O_42
REMARK   21  A    between atoms: C_40  and  C_43
REMARK   22  A    between atoms: N_45  and  C_46
REMARK   23  A    between atoms: C_46  and  C_47
REMARK   24  A    between atoms: C_47  and  C_48
REMARK   25  A    between atoms: N_50  and  C_51
REMARK   26  A    between atoms: C_51  and  C_52
REMARK   27  A    between atoms: C_52  and  C_53
REMARK   28  A    between atoms: C_53  and  N_54
REMARK                            x       y       z     vdW  Elec       q    Type
REMARK                         _______ _______ _______ _____ _____    ______ ____
ROOT
ATOM      1  P   UNL     1       4.686  -2.293  26.316  0.00  0.00    +0.483 P 
ATOM      2  O   UNL     1       3.180  -2.217  26.061  0.00  0.00    -0.227 OA
ENDROOT
BRANCH   1   3
ATOM      3  O   UNL     1       5.194  -3.391  25.219  0.00  0.00    -0.302 OA
ATOM      4  H   UNL     1       5.398  -2.896  24.411  0.00  0.00    +0.222 HD
ENDBRANCH   1   3
BRANCH   1   5
ATOM      5  O   UNL     1       4.427  -3.449  27.577  0.00  0.00    -0.186 OA
BRANCH   5   6
ATOM      6  P   UNL     1       5.299  -4.899  27.215  0.00  0.00    +0.483 P 
ATOM      7  O   UNL     1       5.539  -5.173  28.701  0.00  0.00    -0.227 OA
BRANCH   6   8
ATOM      8  O   UNL     1       6.170  -6.350  26.854  0.00  0.00    -0.302 OA
ATOM      9  H   UNL     1       5.511  -7.063  26.963  0.00  0.00    +0.222 HD
ENDBRANCH   6   8
BRANCH   6  10
ATOM     10  O   UNL     1       3.884  -5.618  26.684  0.00  0.00    -0.286 OA
BRANCH  10  11
ATOM     11  C   UNL     1       3.905  -6.774  25.847  0.00  0.00    +0.181 C 
BRANCH  11  13
ATOM     12  C   UNL     1       2.112  -8.397  25.292  0.00  0.00    +0.016 C 
ATOM     13  C   UNL     1       2.645  -6.982  24.917  0.00  0.00    +0.024 C 
ATOM     14  C   UNL     1       1.534  -6.006  25.381  0.00  0.00    +0.016 C 
BRANCH  13  15
ATOM     15  C   UNL     1       2.923  -6.823  23.353  0.00  0.00    +0.208 C 
BRANCH  15  16
ATOM     16  C   UNL     1       3.951  -5.731  22.848  0.00  0.00    +0.242 C 
ATOM     17  N   UNL     1       5.057  -6.233  22.144  0.00  0.00    -0.313 N 
ATOM     18  H   UNL     1       4.847  -7.085  21.635  0.00  0.00    +0.149 HD
ATOM     19  O   UNL     1       3.800  -4.517  22.985  0.00  0.00    -0.273 OA
BRANCH  17  20
ATOM     20  C   UNL     1       6.062  -5.327  21.559  0.00  0.00    +0.113 C 
BRANCH  20  21
ATOM     21  C   UNL     1       7.210  -4.950  22.493  0.00  0.00    +0.114 C 
BRANCH  21  22
ATOM     22  C   UNL     1       7.355  -3.457  22.574  0.00  0.00    +0.215 C 
ATOM     23  N   UNL     1       8.645  -3.042  22.478  0.00  0.00    -0.315 N 
ATOM     24  H   UNL     1       9.321  -3.794  22.371  0.00  0.00    +0.149 HD
ATOM     25  O   UNL     1       6.412  -2.679  22.676  0.00  0.00    -0.276 OA
BRANCH  23  26
ATOM     26  C   UNL     1       9.148  -2.020  23.306  0.00  0.00    +0.110 C 
BRANCH  26  27
ATOM     27  C   UNL     1       9.356  -1.906  24.834  0.00  0.00    +0.097 C 
BRANCH  27  28
ATOM     28  C   UNL     1       8.636  -2.746  25.870  0.00  0.00    +0.427 C 
BRANCH  28  29
ATOM     29  N   UNL     1       9.104  -4.134  25.920  0.00  0.00    +0.038 N 
ATOM     30  O   UNL     1       8.793  -4.777  26.922  0.00  0.00    +0.034 OA
ATOM     31  O   UNL     1       9.795  -4.528  24.968  0.00  0.00    -0.582 OA
ENDBRANCH  28  29
ENDBRANCH  27  28
ENDBRANCH  26  27
ENDBRANCH  23  26
ENDBRANCH  21  22
ENDBRANCH  20  21
ENDBRANCH  17  20
ENDBRANCH  15  16
BRANCH  15  32
ATOM     32  O   UNL     1       1.737  -6.447  22.605  0.00  0.00    -0.382 OA
ATOM     33  H   UNL     1       1.880  -6.622  21.665  0.00  0.00    +0.210 HD
ENDBRANCH  15  32
ENDBRANCH  13  15
ENDBRANCH  11  13
ENDBRANCH  10  11
ENDBRANCH   6  10
ENDBRANCH   5   6
ENDBRANCH   1   5
BRANCH   1  34
ATOM     34  O   UNL     1       4.944  -1.135  25.056  0.00  0.00    -0.284 OA
BRANCH  34  35
ATOM     35  C   UNL     1       5.753  -0.039  25.451  0.00  0.00    +0.206 C 
BRANCH  35  36
ATOM     36  C   UNL     1       6.023   0.892  24.281  0.00  0.00    +0.179 C 
ATOM     37  C   UNL     1       5.630   2.340  24.556  0.00  0.00    +0.194 C 
ATOM     38  C   UNL     1       6.948   3.001  24.999  0.00  0.00    +0.196 C 
ATOM     39  C   UNL     1       8.016   1.902  24.837  0.00  0.00    +0.253 C 
ATOM     40  O   UNL     1       7.432   0.899  23.991  0.00  0.00    -0.346 OA
BRANCH  39  41
ATOM     41  N   UNL     1       9.271   2.341  24.270  0.00  0.00    -0.286 N 
ATOM     42  C   UNL     1       9.580   3.645  23.988  0.00  0.00    +0.167 A 
ATOM     43  N   UNL     1       8.761   4.719  24.059  0.00  0.00    -0.216 NA
ATOM     44  C   UNL     1       9.438   5.846  23.747  0.00  0.00    +0.225 A 
ATOM     45  N   UNL     1      10.740   5.982  23.402  0.00  0.00    -0.219 NA
ATOM     46  C   UNL     1      11.516   4.876  23.361  0.00  0.00    +0.147 A 
ATOM     47  N   UNL     1      12.853   5.017  23.023  0.00  0.00    -0.341 N 
ATOM     48  H   UNL     1      13.291   4.157  22.712  0.00  0.00    +0.144 HD
ATOM     49  H   UNL     1      13.035   5.860  22.499  0.00  0.00    +0.144 HD
ATOM     50  C   UNL     1      10.931   3.640  23.663  0.00  0.00    +0.147 A 
ATOM     51  N   UNL     1      11.411   2.360  23.677  0.00  0.00    -0.231 NA
ATOM     52  C   UNL     1      10.414   1.615  24.106  0.00  0.00    +0.203 A 
ENDBRANCH  39  41
BRANCH  38  53
ATOM     53  O   UNL     1       6.832   3.416  26.369  0.00  0.00    -0.385 OA
ATOM     54  H   UNL     1       6.626   2.629  26.913  0.00  0.00    +0.210 HD
ENDBRANCH  38  53
BRANCH  37  55
ATOM     55  O   UNL     1       5.101   2.796  23.305  0.00  0.00    -0.278 OA
BRANCH  55  56
ATOM     56  P   UNL     1       5.230   4.482  22.938  0.00  0.00    +0.473 P 
ATOM     57  O   UNL     1       5.346   5.991  22.610  0.00  0.00    -0.228 OA
BRANCH  56  58
ATOM     58  O   UNL     1       6.409   4.000  21.917  0.00  0.00    -0.303 OA
ATOM     59  H   UNL     1       6.208   4.338  21.026  0.00  0.00    +0.222 HD
ENDBRANCH  56  58
BRANCH  56  60
ATOM     60  O   UNL     1       3.988   4.263  21.904  0.00  0.00    -0.303 OA
ATOM     61  H   UNL     1       4.229   3.462  21.394  0.00  0.00    +0.222 HD
ENDBRANCH  56  60
ENDBRANCH  55  56
ENDBRANCH  37  55
ENDBRANCH  35  36
ENDBRANCH  34  35
ENDBRANCH   1  34
TORSDOF 26
ENDMDL
MODEL 7
REMARK VINA RESULT:      -5.2      2.657      7.124
REMARK  Name = 
REMARK  28 active torsions:
REMARK  status: ('A' for Active; 'I' for Inactive)
REMARK    1  A    between atoms: C_1  and  C_2
REMARK    2  A    between atoms: C_2  and  C_3
REMARK    3  A    between atoms: C_2  and  C_4
REMARK    4  A    between atoms: C_2  and  C_40
REMARK    5  A    between atoms: C_4  and  O_5
REMARK    6  A    between atoms: O_5  and  P_6
REMARK    7  A    between atoms: P_6  and  O_7
REMARK    8  A    between atoms: P_6  and  O_9
REMARK    9  A    between atoms: O_9  and  P_10
REMARK   10  A    between atoms: P_10  and  O_11
REMARK   11  A    between atoms: P_10  and  O_13
REMARK   12  A    between atoms: O_13  and  C_14
REMARK   13  A    between atoms: C_14  and  C_15
REMARK   14  A    between atoms: C_18  and  N_30
REMARK   15  A    between atoms: C_20  and  O_22
REMARK   16  A    between atoms: C_23  and  O_25
REMARK   17  A    between atoms: O_25  and  P_26
REMARK   18  A    between atoms: P_26  and  O_27
REMARK   19  A    between atoms: P_26  and  O_28
REMARK   20  A    between atoms: C_40  and  O_42
REMARK   21  A    between atoms: C_40  and  C_43
REMARK   22  A    between atoms: N_45  and  C_46
REMARK   23  A    between atoms: C_46  and  C_47
REMARK   24  A    between atoms: C_47  and  C_48
REMARK   25  A    between atoms: N_50  and  C_51
REMARK   26  A    between atoms: C_51  and  C_52
REMARK   27  A    between atoms: C_52  and  C_53
REMARK   28  A    between atoms: C_53  and  N_54
REMARK                            x       y       z     vdW  Elec       q    Type
REMARK                         _______ _______ _______ _____ _____    ______ ____
ROOT
ATOM      1  P   UNL     1       3.966   2.496  27.131  0.00  0.00    +0.483 P 
ATOM      2  O   UNL     1       3.345   3.228  28.321  0.00  0.00    -0.227 OA
ENDROOT
BRANCH   1   3
ATOM      3  O   UNL     1       5.554   2.855  27.260  0.00  0.00    -0.302 OA
ATOM      4  H   UNL     1       5.792   3.342  26.457  0.00  0.00    +0.222 HD
ENDBRANCH   1   3
BRANCH   1   5
ATOM      5  O   UNL     1       3.594   3.833  26.097  0.00  0.00    -0.186 OA
BRANCH   5   6
ATOM      6  P   UNL     1       3.818   3.365  24.447  0.00  0.00    +0.483 P 
ATOM      7  O   UNL     1       3.145   4.646  23.950  0.00  0.00    -0.227 OA
BRANCH   6   8
ATOM      8  O   UNL     1       4.044   2.897  22.797  0.00  0.00    -0.302 OA
ATOM      9  H   UNL     1       3.431   3.470  22.296  0.00  0.00    +0.222 HD
ENDBRANCH   6   8
BRANCH   6  10
ATOM     10  O   UNL     1       5.471   3.570  24.613  0.00  0.00    -0.286 OA
BRANCH  10  11
ATOM     11  C   UNL     1       6.101   4.814  24.310  0.00  0.00    +0.181 C 
BRANCH  11  13
ATOM     12  C   UNL     1       7.271   4.174  22.217  0.00  0.00    +0.016 C 
ATOM     13  C   UNL     1       7.534   4.725  23.651  0.00  0.00    +0.024 C 
ATOM     14  C   UNL     1       8.056   6.167  23.431  0.00  0.00    +0.016 C 
BRANCH  13  15
ATOM     15  C   UNL     1       8.599   3.853  24.460  0.00  0.00    +0.208 C 
BRANCH  15  16
ATOM     16  C   UNL     1       9.607   2.922  23.673  0.00  0.00    +0.242 C 
ATOM     17  N   UNL     1       9.132   1.632  23.390  0.00  0.00    -0.313 N 
ATOM     18  H   UNL     1       8.126   1.600  23.267  0.00  0.00    +0.149 HD
ATOM     19  O   UNL     1      10.712   3.281  23.265  0.00  0.00    -0.273 OA
BRANCH  17  20
ATOM     20  C   UNL     1       9.939   0.678  22.608  0.00  0.00    +0.113 C 
BRANCH  20  21
ATOM     21  C   UNL     1       9.176  -0.543  22.095  0.00  0.00    +0.114 C 
BRANCH  21  22
ATOM     22  C   UNL     1       9.791  -1.807  22.623  0.00  0.00    +0.215 C 
ATOM     23  N   UNL     1       8.896  -2.612  23.253  0.00  0.00    -0.315 N 
ATOM     24  H   UNL     1       7.948  -2.244  23.281  0.00  0.00    +0.149 HD
ATOM     25  O   UNL     1      10.969  -2.114  22.472  0.00  0.00    -0.276 OA
BRANCH  23  26
ATOM     26  C   UNL     1       9.222  -3.268  24.455  0.00  0.00    +0.110 C 
BRANCH  26  27
ATOM     27  C   UNL     1       8.612  -4.483  25.194  0.00  0.00    +0.097 C 
BRANCH  27  28
ATOM     28  C   UNL     1       8.378  -4.557  26.690  0.00  0.00    +0.427 C 
BRANCH  28  29
ATOM     29  N   UNL     1       7.249  -5.416  27.059  0.00  0.00    +0.038 N 
ATOM     30  O   UNL     1       6.626  -5.925  26.128  0.00  0.00    +0.034 OA
ATOM     31  O   UNL     1       7.003  -5.529  28.270  0.00  0.00    -0.582 OA
ENDBRANCH  28  29
ENDBRANCH  27  28
ENDBRANCH  26  27
ENDBRANCH  23  26
ENDBRANCH  21  22
ENDBRANCH  20  21
ENDBRANCH  17  20
ENDBRANCH  15  16
BRANCH  15  32
ATOM     32  O   UNL     1       7.980   2.891  25.352  0.00  0.00    -0.382 OA
ATOM     33  H   UNL     1       8.604   2.648  26.050  0.00  0.00    +0.210 HD
ENDBRANCH  15  32
ENDBRANCH  13  15
ENDBRANCH  11  13
ENDBRANCH  10  11
ENDBRANCH   6  10
ENDBRANCH   5   6
ENDBRANCH   1   5
BRANCH   1  34
ATOM     34  O   UNL     1       4.337   1.159  28.164  0.00  0.00    -0.284 OA
BRANCH  34  35
ATOM     35  C   UNL     1       3.606  -0.017  27.854  0.00  0.00    +0.206 C 
BRANCH  35  36
ATOM     36  C   UNL     1       4.268  -0.792  26.727  0.00  0.00    +0.179 C 
ATOM     37  C   UNL     1       5.357  -1.746  27.208  0.00  0.00    +0.194 C 
ATOM     38  C   UNL     1       4.638  -3.102  27.317  0.00  0.00    +0.196 C 
ATOM     39  C   UNL     1       3.216  -2.839  26.783  0.00  0.00    +0.253 C 
ATOM     40  O   UNL     1       3.283  -1.601  26.060  0.00  0.00    -0.346 OA
BRANCH  39  41
ATOM     41  N   UNL     1       2.680  -3.871  25.925  0.00  0.00    -0.286 N 
ATOM     42  C   UNL     1       3.278  -4.312  24.775  0.00  0.00    +0.167 A 
ATOM     43  N   UNL     1       4.375  -3.802  24.170  0.00  0.00    -0.216 NA
ATOM     44  C   UNL     1       4.691  -4.534  23.079  0.00  0.00    +0.225 A 
ATOM     45  N   UNL     1       4.066  -5.628  22.584  0.00  0.00    -0.219 NA
ATOM     46  C   UNL     1       2.981  -6.103  23.237  0.00  0.00    +0.147 A 
ATOM     47  N   UNL     1       2.350  -7.231  22.740  0.00  0.00    -0.341 N 
ATOM     48  H   UNL     1       1.400  -7.350  23.071  0.00  0.00    +0.144 HD
ATOM     49  H   UNL     1       2.533  -7.379  21.758  0.00  0.00    +0.144 HD
ATOM     50  C   UNL     1       2.549  -5.430  24.387  0.00  0.00    +0.147 A 
ATOM     51  N   UNL     1       1.495  -5.619  25.236  0.00  0.00    -0.231 NA
ATOM     52  C   UNL     1       1.637  -4.713  26.181  0.00  0.00    +0.203 A 
ENDBRANCH  39  41
BRANCH  38  53
ATOM     53  O   UNL     1       4.610  -3.515  28.692  0.00  0.00    -0.385 OA
ATOM     54  H   UNL     1       5.525  -3.494  29.038  0.00  0.00    +0.210 HD
ENDBRANCH  38  53
BRANCH  37  55
ATOM     55  O   UNL     1       6.363  -1.660  26.191  0.00  0.00    -0.278 OA
BRANCH  55  56
ATOM     56  P   UNL     1       6.261  -0.355  25.060  0.00  0.00    +0.473 P 
ATOM     57  O   UNL     1       6.169   0.813  24.047  0.00  0.00    -0.228 OA
BRANCH  56  58
ATOM     58  O   UNL     1       7.876  -0.259  25.276  0.00  0.00    -0.303 OA
ATOM     59  H   UNL     1       8.205   0.540  24.827  0.00  0.00    +0.222 HD
ENDBRANCH  56  58
BRANCH  56  60
ATOM     60  O   UNL     1       6.298  -1.486  23.885  0.00  0.00    -0.303 OA
ATOM     61  H   UNL     1       7.023  -1.201  23.289  0.00  0.00    +0.222 HD
ENDBRANCH  56  60
ENDBRANCH  55  56
ENDBRANCH  37  55
ENDBRANCH  35  36
ENDBRANCH  34  35
ENDBRANCH   1  34
TORSDOF 26
ENDMDL
MODEL 8
REMARK VINA RESULT:      -5.2      2.628      6.698
REMARK  Name = 
REMARK  28 active torsions:
REMARK  status: ('A' for Active; 'I' for Inactive)
REMARK    1  A    between atoms: C_1  and  C_2
REMARK    2  A    between atoms: C_2  and  C_3
REMARK    3  A    between atoms: C_2  and  C_4
REMARK    4  A    between atoms: C_2  and  C_40
REMARK    5  A    between atoms: C_4  and  O_5
REMARK    6  A    between atoms: O_5  and  P_6
REMARK    7  A    between atoms: P_6  and  O_7
REMARK    8  A    between atoms: P_6  and  O_9
REMARK    9  A    between atoms: O_9  and  P_10
REMARK   10  A    between atoms: P_10  and  O_11
REMARK   11  A    between atoms: P_10  and  O_13
REMARK   12  A    between atoms: O_13  and  C_14
REMARK   13  A    between atoms: C_14  and  C_15
REMARK   14  A    between atoms: C_18  and  N_30
REMARK   15  A    between atoms: C_20  and  O_22
REMARK   16  A    between atoms: C_23  and  O_25
REMARK   17  A    between atoms: O_25  and  P_26
REMARK   18  A    between atoms: P_26  and  O_27
REMARK   19  A    between atoms: P_26  and  O_28
REMARK   20  A    between atoms: C_40  and  O_42
REMARK   21  A    between atoms: C_40  and  C_43
REMARK   22  A    between atoms: N_45  and  C_46
REMARK   23  A    between atoms: C_46  and  C_47
REMARK   24  A    between atoms: C_47  and  C_48
REMARK   25  A    between atoms: N_50  and  C_51
REMARK   26  A    between atoms: C_51  and  C_52
REMARK   27  A    between atoms: C_52  and  C_53
REMARK   28  A    between atoms: C_53  and  N_54
REMARK                            x       y       z     vdW  Elec       q    Type
REMARK                         _______ _______ _______ _____ _____    ______ ____
ROOT
ATOM      1  P   UNL     1       5.997   2.420  27.851  0.00  0.00    +0.483 P 
ATOM      2  O   UNL     1       4.924   3.247  28.560  0.00  0.00    -0.227 OA
ENDROOT
BRANCH   1   3
ATOM      3  O   UNL     1       6.583   1.470  29.044  0.00  0.00    -0.302 OA
ATOM      4  H   UNL     1       5.861   0.878  29.302  0.00  0.00    +0.222 HD
ENDBRANCH   1   3
BRANCH   1   5
ATOM      5  O   UNL     1       7.150   3.688  28.088  0.00  0.00    -0.186 OA
BRANCH   5   6
ATOM      6  P   UNL     1       7.115   4.759  26.730  0.00  0.00    +0.483 P 
ATOM      7  O   UNL     1       8.172   5.665  27.366  0.00  0.00    -0.227 OA
BRANCH   6   8
ATOM      8  O   UNL     1       7.082   5.829  25.371  0.00  0.00    -0.302 OA
ATOM      9  H   UNL     1       7.658   5.399  24.709  0.00  0.00    +0.222 HD
ENDBRANCH   6   8
BRANCH   6  10
ATOM     10  O   UNL     1       7.821   3.576  25.779  0.00  0.00    -0.286 OA
BRANCH  10  11
ATOM     11  C   UNL     1       8.624   3.910  24.648  0.00  0.00    +0.181 C 
BRANCH  11  13
ATOM     12  C   UNL     1       7.209   2.095  23.720  0.00  0.00    +0.016 C 
ATOM     13  C   UNL     1       8.346   3.087  23.329  0.00  0.00    +0.024 C 
ATOM     14  C   UNL     1       7.699   4.039  22.291  0.00  0.00    +0.016 C 
BRANCH  13  15
ATOM     15  C   UNL     1       9.618   2.351  22.708  0.00  0.00    +0.208 C 
BRANCH  15  16
ATOM     16  C   UNL     1       9.445   0.940  22.013  0.00  0.00    +0.242 C 
ATOM     17  N   UNL     1       9.941  -0.151  22.743  0.00  0.00    -0.313 N 
ATOM     18  H   UNL     1       9.891  -0.010  23.747  0.00  0.00    +0.149 HD
ATOM     19  O   UNL     1       8.869   0.759  20.940  0.00  0.00    -0.273 OA
BRANCH  17  20
ATOM     20  C   UNL     1       9.791  -1.531  22.247  0.00  0.00    +0.113 C 
BRANCH  20  21
ATOM     21  C   UNL     1       8.547  -2.263  22.748  0.00  0.00    +0.114 C 
BRANCH  21  22
ATOM     22  C   UNL     1       8.930  -3.370  23.689  0.00  0.00    +0.215 C 
ATOM     23  N   UNL     1       7.896  -4.200  23.983  0.00  0.00    -0.315 N 
ATOM     24  H   UNL     1       7.019  -3.954  23.532  0.00  0.00    +0.149 HD
ATOM     25  O   UNL     1      10.065  -3.541  24.123  0.00  0.00    -0.276 OA
BRANCH  23  26
ATOM     26  C   UNL     1       7.681  -4.665  25.294  0.00  0.00    +0.110 C 
BRANCH  26  27
ATOM     27  C   UNL     1       6.645  -5.631  25.915  0.00  0.00    +0.097 C 
BRANCH  27  28
ATOM     28  C   UNL     1       6.324  -5.720  27.394  0.00  0.00    +0.427 C 
BRANCH  28  29
ATOM     29  N   UNL     1       5.361  -6.777  27.716  0.00  0.00    +0.038 N 
ATOM     30  O   UNL     1       4.347  -6.820  27.020  0.00  0.00    +0.034 OA
ATOM     31  O   UNL     1       5.635  -7.513  28.678  0.00  0.00    -0.582 OA
ENDBRANCH  28  29
ENDBRANCH  27  28
ENDBRANCH  26  27
ENDBRANCH  23  26
ENDBRANCH  21  22
ENDBRANCH  20  21
ENDBRANCH  17  20
ENDBRANCH  15  16
BRANCH  15  32
ATOM     32  O   UNL     1      10.632   2.042  23.700  0.00  0.00    -0.382 OA
ATOM     33  H   UNL     1      11.052   2.860  23.998  0.00  0.00    +0.210 HD
ENDBRANCH  15  32
ENDBRANCH  13  15
ENDBRANCH  11  13
ENDBRANCH  10  11
ENDBRANCH   6  10
ENDBRANCH   5   6
ENDBRANCH   1   5
BRANCH   1  34
ATOM     34  O   UNL     1       4.843   1.152  27.612  0.00  0.00    -0.284 OA
BRANCH  34  35
ATOM     35  C   UNL     1       4.738   0.728  26.263  0.00  0.00    +0.206 C 
BRANCH  35  36
ATOM     36  C   UNL     1       5.673  -0.436  25.980  0.00  0.00    +0.179 C 
ATOM     37  C   UNL     1       5.872  -1.356  27.179  0.00  0.00    +0.194 C 
ATOM     38  C   UNL     1       4.866  -2.496  26.940  0.00  0.00    +0.196 C 
ATOM     39  C   UNL     1       4.245  -2.193  25.563  0.00  0.00    +0.253 C 
ATOM     40  O   UNL     1       5.121  -1.248  24.929  0.00  0.00    -0.346 OA
BRANCH  39  41
ATOM     41  N   UNL     1       4.067  -3.339  24.701  0.00  0.00    -0.286 N 
ATOM     42  C   UNL     1       3.089  -4.284  24.861  0.00  0.00    +0.167 A 
ATOM     43  N   UNL     1       2.214  -4.399  25.886  0.00  0.00    -0.216 NA
ATOM     44  C   UNL     1       1.369  -5.431  25.668  0.00  0.00    +0.225 A 
ATOM     45  N   UNL     1       1.326  -6.280  24.615  0.00  0.00    -0.219 NA
ATOM     46  C   UNL     1       2.216  -6.111  23.611  0.00  0.00    +0.147 A 
ATOM     47  N   UNL     1       2.161  -6.969  22.526  0.00  0.00    -0.341 N 
ATOM     48  H   UNL     1       3.014  -6.995  21.979  0.00  0.00    +0.144 HD
ATOM     49  H   UNL     1       1.711  -7.846  22.745  0.00  0.00    +0.144 HD
ATOM     50  C   UNL     1       3.149  -5.072  23.718  0.00  0.00    +0.147 A 
ATOM     51  N   UNL     1       4.182  -4.662  22.921  0.00  0.00    -0.231 NA
ATOM     52  C   UNL     1       4.669  -3.586  23.502  0.00  0.00    +0.203 A 
ENDBRANCH  39  41
BRANCH  38  53
ATOM     53  O   UNL     1       3.871  -2.475  27.976  0.00  0.00    -0.385 OA
ATOM     54  H   UNL     1       4.279  -2.807  28.801  0.00  0.00    +0.210 HD
ENDBRANCH  38  53
BRANCH  37  55
ATOM     55  O   UNL     1       7.255  -1.727  27.102  0.00  0.00    -0.278 OA
BRANCH  55  56
ATOM     56  P   UNL     1       8.348  -0.624  26.340  0.00  0.00    +0.473 P 
ATOM     57  O   UNL     1       9.326   0.363  25.656  0.00  0.00    -0.228 OA
BRANCH  56  58
ATOM     58  O   UNL     1       8.665  -0.141  27.865  0.00  0.00    -0.303 OA
ATOM     59  H   UNL     1       7.871   0.290  28.229  0.00  0.00    +0.222 HD
ENDBRANCH  56  58
BRANCH  56  60
ATOM     60  O   UNL     1       9.423  -1.850  26.305  0.00  0.00    -0.303 OA
ATOM     61  H   UNL     1       9.453  -2.179  27.228  0.00  0.00    +0.222 HD
ENDBRANCH  56  60
ENDBRANCH  55  56
ENDBRANCH  37  55
ENDBRANCH  35  36
ENDBRANCH  34  35
ENDBRANCH   1  34
TORSDOF 26
ENDMDL
MODEL 9
REMARK VINA RESULT:      -5.2      3.694      8.859
REMARK  Name = 
REMARK  28 active torsions:
REMARK  status: ('A' for Active; 'I' for Inactive)
REMARK    1  A    between atoms: C_1  and  C_2
REMARK    2  A    between atoms: C_2  and  C_3
REMARK    3  A    between atoms: C_2  and  C_4
REMARK    4  A    between atoms: C_2  and  C_40
REMARK    5  A    between atoms: C_4  and  O_5
REMARK    6  A    between atoms: O_5  and  P_6
REMARK    7  A    between atoms: P_6  and  O_7
REMARK    8  A    between atoms: P_6  and  O_9
REMARK    9  A    between atoms: O_9  and  P_10
REMARK   10  A    between atoms: P_10  and  O_11
REMARK   11  A    between atoms: P_10  and  O_13
REMARK   12  A    between atoms: O_13  and  C_14
REMARK   13  A    between atoms: C_14  and  C_15
REMARK   14  A    between atoms: C_18  and  N_30
REMARK   15  A    between atoms: C_20  and  O_22
REMARK   16  A    between atoms: C_23  and  O_25
REMARK   17  A    between atoms: O_25  and  P_26
REMARK   18  A    between atoms: P_26  and  O_27
REMARK   19  A    between atoms: P_26  and  O_28
REMARK   20  A    between atoms: C_40  and  O_42
REMARK   21  A    between atoms: C_40  and  C_43
REMARK   22  A    between atoms: N_45  and  C_46
REMARK   23  A    between atoms: C_46  and  C_47
REMARK   24  A    between atoms: C_47  and  C_48
REMARK   25  A    between atoms: N_50  and  C_51
REMARK   26  A    between atoms: C_51  and  C_52
REMARK   27  A    between atoms: C_52  and  C_53
REMARK   28  A    between atoms: C_53  and  N_54
REMARK                            x       y       z     vdW  Elec       q    Type
REMARK                         _______ _______ _______ _____ _____    ______ ____
ROOT
ATOM      1  P   UNL     1       3.545  -0.745  27.436  0.00  0.00    +0.483 P 
ATOM      2  O   UNL     1       2.611  -1.261  26.341  0.00  0.00    -0.227 OA
ENDROOT
BRANCH   1   3
ATOM      3  O   UNL     1       2.556   0.156  28.374  0.00  0.00    -0.302 OA
ATOM      4  H   UNL     1       2.768  -0.070  29.292  0.00  0.00    +0.222 HD
ENDBRANCH   1   3
BRANCH   1   5
ATOM      5  O   UNL     1       4.028   0.571  26.421  0.00  0.00    -0.186 OA
BRANCH   5   6
ATOM      6  P   UNL     1       5.107   1.604  27.292  0.00  0.00    +0.483 P 
ATOM      7  O   UNL     1       5.232   0.585  28.426  0.00  0.00    -0.227 OA
BRANCH   6   8
ATOM      8  O   UNL     1       6.189   2.637  28.163  0.00  0.00    -0.302 OA
ATOM      9  H   UNL     1       7.079   2.338  27.894  0.00  0.00    +0.222 HD
ENDBRANCH   6   8
BRANCH   6  10
ATOM     10  O   UNL     1       6.282   1.363  26.124  0.00  0.00    -0.286 OA
BRANCH  10  11
ATOM     11  C   UNL     1       7.571   0.849  26.458  0.00  0.00    +0.181 C 
BRANCH  11  13
ATOM     12  C   UNL     1       9.564   0.555  25.010  0.00  0.00    +0.016 C 
ATOM     13  C   UNL     1       8.223  -0.132  25.406  0.00  0.00    +0.024 C 
ATOM     14  C   UNL     1       8.645  -1.426  26.146  0.00  0.00    +0.016 C 
BRANCH  13  15
ATOM     15  C   UNL     1       7.310  -0.473  24.141  0.00  0.00    +0.208 C 
BRANCH  15  16
ATOM     16  C   UNL     1       7.094   0.616  23.014  0.00  0.00    +0.242 C 
ATOM     17  N   UNL     1       6.121   1.586  23.299  0.00  0.00    -0.313 N 
ATOM     18  H   UNL     1       6.036   1.780  24.291  0.00  0.00    +0.149 HD
ATOM     19  O   UNL     1       7.752   0.683  21.976  0.00  0.00    -0.273 OA
BRANCH  17  20
ATOM     20  C   UNL     1       5.859   2.698  22.369  0.00  0.00    +0.113 C 
BRANCH  20  21
ATOM     21  C   UNL     1       6.976   3.736  22.274  0.00  0.00    +0.114 C 
BRANCH  21  22
ATOM     22  C   UNL     1       6.992   4.607  23.497  0.00  0.00    +0.215 C 
ATOM     23  N   UNL     1       7.642   5.784  23.304  0.00  0.00    -0.315 N 
ATOM     24  H   UNL     1       8.025   5.904  22.370  0.00  0.00    +0.149 HD
ATOM     25  O   UNL     1       6.443   4.316  24.556  0.00  0.00    -0.276 OA
BRANCH  23  26
ATOM     26  C   UNL     1       8.509   6.309  24.280  0.00  0.00    +0.110 C 
BRANCH  26  27
ATOM     27  C   UNL     1      10.043   6.246  24.473  0.00  0.00    +0.097 C 
BRANCH  27  28
ATOM     28  C   UNL     1      10.976   5.338  23.697  0.00  0.00    +0.427 C 
BRANCH  28  29
ATOM     29  N   UNL     1      12.394   5.631  23.925  0.00  0.00    +0.038 N 
ATOM     30  O   UNL     1      13.191   5.080  23.167  0.00  0.00    +0.034 OA
ATOM     31  O   UNL     1      12.667   6.380  24.876  0.00  0.00    -0.582 OA
ENDBRANCH  28  29
ENDBRANCH  27  28
ENDBRANCH  26  27
ENDBRANCH  23  26
ENDBRANCH  21  22
ENDBRANCH  20  21
ENDBRANCH  17  20
ENDBRANCH  15  16
BRANCH  15  32
ATOM     32  O   UNL     1       5.935  -0.769  24.501  0.00  0.00    -0.382 OA
ATOM     33  H   UNL     1       5.787  -1.723  24.455  0.00  0.00    +0.210 HD
ENDBRANCH  15  32
ENDBRANCH  13  15
ENDBRANCH  11  13
ENDBRANCH  10  11
ENDBRANCH   6  10
ENDBRANCH   5   6
ENDBRANCH   1   5
BRANCH   1  34
ATOM     34  O   UNL     1       3.063  -2.061  28.450  0.00  0.00    -0.284 OA
BRANCH  34  35
ATOM     35  C   UNL     1       2.008  -2.838  27.907  0.00  0.00    +0.206 C 
BRANCH  35  36
ATOM     36  C   UNL     1       2.424  -4.291  27.749  0.00  0.00    +0.179 C 
ATOM     37  C   UNL     1       2.148  -4.851  26.358  0.00  0.00    +0.194 C 
ATOM     38  C   UNL     1       3.494  -4.698  25.625  0.00  0.00    +0.196 C 
ATOM     39  C   UNL     1       4.466  -4.161  26.694  0.00  0.00    +0.253 C 
ATOM     40  O   UNL     1       3.842  -4.408  27.962  0.00  0.00    -0.346 OA
BRANCH  39  41
ATOM     41  N   UNL     1       5.784  -4.754  26.680  0.00  0.00    -0.286 N 
ATOM     42  C   UNL     1       6.683  -4.621  25.656  0.00  0.00    +0.167 A 
ATOM     43  N   UNL     1       6.480  -4.042  24.451  0.00  0.00    -0.216 NA
ATOM     44  C   UNL     1       7.617  -4.061  23.723  0.00  0.00    +0.225 A 
ATOM     45  N   UNL     1       8.829  -4.562  24.061  0.00  0.00    -0.219 NA
ATOM     46  C   UNL     1       8.980  -5.117  25.284  0.00  0.00    +0.147 A 
ATOM     47  N   UNL     1      10.224  -5.614  25.637  0.00  0.00    -0.341 N 
ATOM     48  H   UNL     1      10.200  -6.274  26.406  0.00  0.00    +0.144 HD
ATOM     49  H   UNL     1      10.795  -5.841  24.835  0.00  0.00    +0.144 HD
ATOM     50  C   UNL     1       7.870  -5.160  26.137  0.00  0.00    +0.147 A 
ATOM     51  N   UNL     1       7.678  -5.671  27.390  0.00  0.00    -0.231 NA
ATOM     52  C   UNL     1       6.441  -5.356  27.713  0.00  0.00    +0.203 A 
ENDBRANCH  39  41
BRANCH  38  53
ATOM     53  O   UNL     1       3.341  -3.765  24.544  0.00  0.00    -0.385 OA
ATOM     54  H   UNL     1       3.133  -4.268  23.730  0.00  0.00    +0.210 HD
ENDBRANCH  38  53
BRANCH  37  55
ATOM     55  O   UNL     1       1.731  -6.199  26.606  0.00  0.00    -0.278 OA
BRANCH  55  56
ATOM     56  P   UNL     1       2.431  -7.454  25.643  0.00  0.00    +0.473 P 
ATOM     57  O   UNL     1       3.058  -8.577  24.780  0.00  0.00    -0.228 OA
BRANCH  56  58
ATOM     58  O   UNL     1       3.560  -7.502  26.821  0.00  0.00    -0.303 OA
ATOM     59  H   UNL     1       3.163  -7.175  27.648  0.00  0.00    +0.222 HD
ENDBRANCH  56  58
BRANCH  56  60
ATOM     60  O   UNL     1       1.374  -8.471  26.357  0.00  0.00    -0.303 OA
ATOM     61  H   UNL     1       1.386  -8.216  27.304  0.00  0.00    +0.222 HD
ENDBRANCH  56  60
ENDBRANCH  55  56
ENDBRANCH  37  55
ENDBRANCH  35  36
ENDBRANCH  34  35
ENDBRANCH   1  34
TORSDOF 26
ENDMDL
