MODEL 1
REMARK VINA RESULT:      -6.4      0.000      0.000
REMARK  Name = 
REMARK  8 active torsions:
REMARK  status: ('A' for Active; 'I' for Inactive)
REMARK    1  A    between atoms: C_1  and  C_2
REMARK    2  A    between atoms: C_2  and  C_3
REMARK    3  A    between atoms: C_2  and  N_4
REMARK    4  A    between atoms: N_4  and  C_5
REMARK    5  A    between atoms: C_5  and  C_6
REMARK    6  A    between atoms: C_11  and  C_12
REMARK    7  A    between atoms: C_12  and  O_13
REMARK    8  A    between atoms: C_14  and  N_18
REMARK                            x       y       z     vdW  Elec       q    Type
REMARK                         _______ _______ _______ _____ _____    ______ ____
ROOT
ATOM      1  C   UNL     1       8.765   0.313  22.413  0.00  0.00    +0.084 C 
ATOM      2  N   UNL     1       8.340  -0.979  21.848  0.00  0.00    -0.339 N 
ATOM      3  H   UNL     1       7.402  -0.932  21.461  0.00  0.00    +0.146 HD
ATOM      4  C   UNL     1       8.455  -2.061  22.742  0.00  0.00    +0.037 A 
ATOM      5  C   UNL     1       9.368  -2.048  23.804  0.00  0.00    -0.026 A 
ATOM      6  C   UNL     1       9.462  -3.159  24.658  0.00  0.00    +0.018 A 
ATOM      7  C   UNL     1       8.693  -4.322  24.454  0.00  0.00    +0.055 A 
ATOM      8  C   UNL     1       7.824  -4.346  23.344  0.00  0.00    +0.280 A 
ATOM      9  C   UNL     1      10.201  -0.824  24.094  0.00  0.00    +0.039 C 
ATOM     10  C   UNL     1       7.729  -3.228  22.490  0.00  0.00    +0.107 A 
ATOM     11  C   UNL     1      10.194   0.171  22.935  0.00  0.00    +0.028 C 
ENDROOT
BRANCH   8  12
ATOM     12  N   UNL     1       6.963  -5.503  23.022  0.00  0.00    +0.080 N 
ATOM     13  O   UNL     1       7.321  -6.253  22.104  0.00  0.00    +0.041 OA
ATOM     14  O   UNL     1       5.916  -5.668  23.666  0.00  0.00    -0.576 OA
ENDBRANCH   8  12
BRANCH   1  15
ATOM     15  C   UNL     1       8.666   1.435  21.347  0.00  0.00    +0.103 C 
BRANCH  15  16
ATOM     16  N   UNL     1       9.129   2.722  21.895  0.00  0.00    -0.312 NA
ATOM     17  H   UNL     1      10.028   2.561  22.348  0.00  0.00    +0.122 HD
BRANCH  16  19
ATOM     18  C   UNL     1       9.096   3.993  23.952  0.00  0.00    +0.023 C 
ATOM     19  C   UNL     1       8.224   3.309  22.893  0.00  0.00    +0.048 C 
ATOM     20  C   UNL     1       7.253   4.331  22.301  0.00  0.00    +0.023 C 
ENDBRANCH  16  19
ENDBRANCH  15  16
ENDBRANCH   1  15
BRANCH   7  21
ATOM     21  C   UNL     1       8.865  -5.446  25.442  0.00  0.00    +0.197 C 
BRANCH  21  22
ATOM     22  O   UNL     1      10.245  -5.677  25.671  0.00  0.00    -0.390 OA
ATOM     23  H   UNL     1      10.702  -4.864  25.372  0.00  0.00    +0.210 HD
ENDBRANCH  21  22
ENDBRANCH   7  21
TORSDOF 6
ENDMDL
MODEL 2
REMARK VINA RESULT:      -6.3      2.506      3.430
REMARK  Name = 
REMARK  8 active torsions:
REMARK  status: ('A' for Active; 'I' for Inactive)
REMARK    1  A    between atoms: C_1  and  C_2
REMARK    2  A    between atoms: C_2  and  C_3
REMARK    3  A    between atoms: C_2  and  N_4
REMARK    4  A    between atoms: N_4  and  C_5
REMARK    5  A    between atoms: C_5  and  C_6
REMARK    6  A    between atoms: C_11  and  C_12
REMARK    7  A    between atoms: C_12  and  O_13
REMARK    8  A    between atoms: C_14  and  N_18
REMARK                            x       y       z     vdW  Elec       q    Type
REMARK                         _______ _______ _______ _____ _____    ______ ____
ROOT
ATOM      1  C   UNL     1      10.216   1.832  23.255  0.00  0.00    +0.084 C 
ATOM      2  N   UNL     1       9.392   1.240  24.322  0.00  0.00    -0.339 N 
ATOM      3  H   UNL     1       9.806   1.377  25.240  0.00  0.00    +0.146 HD
ATOM      4  C   UNL     1       9.076  -0.117  24.118  0.00  0.00    +0.037 A 
ATOM      5  C   UNL     1       9.042  -0.682  22.837  0.00  0.00    -0.026 A 
ATOM      6  C   UNL     1       8.702  -2.036  22.679  0.00  0.00    +0.018 A 
ATOM      7  C   UNL     1       8.344  -2.846  23.775  0.00  0.00    +0.055 A 
ATOM      8  C   UNL     1       8.322  -2.248  25.051  0.00  0.00    +0.280 A 
ATOM      9  C   UNL     1       9.442   0.122  21.624  0.00  0.00    +0.039 C 
ATOM     10  C   UNL     1       8.666  -0.890  25.207  0.00  0.00    +0.107 A 
ATOM     11  C   UNL     1       9.508   1.620  21.917  0.00  0.00    +0.028 C 
ENDROOT
BRANCH   8  12
ATOM     12  N   UNL     1       7.966  -2.988  26.280  0.00  0.00    +0.080 N 
ATOM     13  O   UNL     1       6.850  -2.784  26.776  0.00  0.00    +0.041 OA
ATOM     14  O   UNL     1       8.796  -3.766  26.772  0.00  0.00    -0.576 OA
ENDBRANCH   8  12
BRANCH   1  15
ATOM     15  C   UNL     1      10.463   3.338  23.526  0.00  0.00    +0.103 C 
BRANCH  15  16
ATOM     16  N   UNL     1      11.594   3.837  22.724  0.00  0.00    -0.312 NA
ATOM     17  H   UNL     1      12.249   3.067  22.597  0.00  0.00    +0.122 HD
BRANCH  16  19
ATOM     18  C   UNL     1      13.152   5.623  22.243  0.00  0.00    +0.023 C 
ATOM     19  C   UNL     1      12.324   4.950  23.345  0.00  0.00    +0.048 C 
ATOM     20  C   UNL     1      11.408   5.988  23.993  0.00  0.00    +0.023 C 
ENDBRANCH  16  19
ENDBRANCH  15  16
ENDBRANCH   1  15
BRANCH   7  21
ATOM     21  C   UNL     1       8.013  -4.288  23.490  0.00  0.00    +0.197 C 
BRANCH  21  22
ATOM     22  O   UNL     1       8.964  -5.132  24.116  0.00  0.00    -0.390 OA
ATOM     23  H   UNL     1       8.874  -6.002  23.677  0.00  0.00    +0.210 HD
ENDBRANCH  21  22
ENDBRANCH   7  21
TORSDOF 6
ENDMDL
MODEL 3
REMARK VINA RESULT:      -6.0      2.690      4.017
REMARK  Name = 
REMARK  8 active torsions:
REMARK  status: ('A' for Active; 'I' for Inactive)
REMARK    1  A    between atoms: C_1  and  C_2
REMARK    2  A    between atoms: C_2  and  C_3
REMARK    3  A    between atoms: C_2  and  N_4
REMARK    4  A    between atoms: N_4  and  C_5
REMARK    5  A    between atoms: C_5  and  C_6
REMARK    6  A    between atoms: C_11  and  C_12
REMARK    7  A    between atoms: C_12  and  O_13
REMARK    8  A    between atoms: C_14  and  N_18
REMARK                            x       y       z     vdW  Elec       q    Type
REMARK                         _______ _______ _______ _____ _____    ______ ____
ROOT
ATOM      1  C   UNL     1       9.192  -2.609  23.197  0.00  0.00    +0.084 C 
ATOM      2  N   UNL     1       8.671  -2.643  24.575  0.00  0.00    -0.339 N 
ATOM      3  H   UNL     1       9.419  -2.692  25.260  0.00  0.00    +0.146 HD
ATOM      4  C   UNL     1       7.719  -3.656  24.803  0.00  0.00    +0.037 A 
ATOM      5  C   UNL     1       6.941  -4.186  23.767  0.00  0.00    -0.026 A 
ATOM      6  C   UNL     1       5.990  -5.181  24.046  0.00  0.00    +0.018 A 
ATOM      7  C   UNL     1       5.755  -5.640  25.357  0.00  0.00    +0.055 A 
ATOM      8  C   UNL     1       6.501  -5.053  26.399  0.00  0.00    +0.280 A 
ATOM      9  C   UNL     1       7.162  -3.760  22.336  0.00  0.00    +0.039 C 
ATOM     10  C   UNL     1       7.457  -4.056  26.116  0.00  0.00    +0.107 A 
ATOM     11  C   UNL     1       8.012  -2.494  22.232  0.00  0.00    +0.028 C 
ENDROOT
BRANCH   8  12
ATOM     12  N   UNL     1       6.351  -5.446  27.816  0.00  0.00    +0.080 N 
ATOM     13  O   UNL     1       7.141  -6.283  28.272  0.00  0.00    +0.041 OA
ATOM     14  O   UNL     1       5.437  -4.939  28.483  0.00  0.00    -0.576 OA
ENDBRANCH   8  12
BRANCH   1  15
ATOM     15  C   UNL     1      10.182  -1.430  23.016  0.00  0.00    +0.103 C 
BRANCH  15  16
ATOM     16  N   UNL     1       9.890  -0.349  23.972  0.00  0.00    -0.312 NA
ATOM     17  H   UNL     1       9.173  -0.685  24.613  0.00  0.00    +0.122 HD
BRANCH  16  19
ATOM     18  C   UNL     1      10.083   2.061  24.047  0.00  0.00    +0.023 C 
ATOM     19  C   UNL     1       9.391   0.885  23.348  0.00  0.00    +0.048 C 
ATOM     20  C   UNL     1       9.667   0.957  21.846  0.00  0.00    +0.023 C 
ENDBRANCH  16  19
ENDBRANCH  15  16
ENDBRANCH   1  15
BRANCH   7  21
ATOM     21  C   UNL     1       4.722  -6.721  25.537  0.00  0.00    +0.197 C 
BRANCH  21  22
ATOM     22  O   UNL     1       4.540  -7.419  24.316  0.00  0.00    -0.390 OA
ATOM     23  H   UNL     1       5.429  -7.476  23.910  0.00  0.00    +0.210 HD
ENDBRANCH  21  22
ENDBRANCH   7  21
TORSDOF 6
ENDMDL
MODEL 4
REMARK VINA RESULT:      -5.9      2.900      4.368
REMARK  Name = 
REMARK  8 active torsions:
REMARK  status: ('A' for Active; 'I' for Inactive)
REMARK    1  A    between atoms: C_1  and  C_2
REMARK    2  A    between atoms: C_2  and  C_3
REMARK    3  A    between atoms: C_2  and  N_4
REMARK    4  A    between atoms: N_4  and  C_5
REMARK    5  A    between atoms: C_5  and  C_6
REMARK    6  A    between atoms: C_11  and  C_12
REMARK    7  A    between atoms: C_12  and  O_13
REMARK    8  A    between atoms: C_14  and  N_18
REMARK                            x       y       z     vdW  Elec       q    Type
REMARK                         _______ _______ _______ _____ _____    ______ ____
ROOT
ATOM      1  C   UNL     1       8.162  -2.990  23.879  0.00  0.00    +0.084 C 
ATOM      2  N   UNL     1       7.251  -4.065  23.449  0.00  0.00    -0.339 N 
ATOM      3  H   UNL     1       6.567  -3.734  22.775  0.00  0.00    +0.146 HD
ATOM      4  C   UNL     1       6.617  -4.738  24.511  0.00  0.00    +0.037 A 
ATOM      5  C   UNL     1       7.180  -4.793  25.792  0.00  0.00    -0.026 A 
ATOM      6  C   UNL     1       6.521  -5.494  26.816  0.00  0.00    +0.018 A 
ATOM      7  C   UNL     1       5.319  -6.192  26.586  0.00  0.00    +0.055 A 
ATOM      8  C   UNL     1       4.796  -6.181  25.276  0.00  0.00    +0.280 A 
ATOM      9  C   UNL     1       8.450  -4.043  26.112  0.00  0.00    +0.039 C 
ATOM     10  C   UNL     1       5.458  -5.475  24.251  0.00  0.00    +0.107 A 
ATOM     11  C   UNL     1       9.181  -3.576  24.856  0.00  0.00    +0.028 C 
ENDROOT
BRANCH   8  12
ATOM     12  N   UNL     1       3.544  -6.872  24.906  0.00  0.00    +0.080 N 
ATOM     13  O   UNL     1       3.616  -8.064  24.576  0.00  0.00    +0.041 OA
ATOM     14  O   UNL     1       2.481  -6.235  24.922  0.00  0.00    -0.576 OA
ENDBRANCH   8  12
BRANCH   1  15
ATOM     15  C   UNL     1       8.863  -2.346  22.655  0.00  0.00    +0.103 C 
BRANCH  15  16
ATOM     16  N   UNL     1      10.242  -1.951  22.989  0.00  0.00    -0.312 NA
ATOM     17  H   UNL     1      10.425  -2.240  23.949  0.00  0.00    +0.122 HD
BRANCH  16  19
ATOM     18  C   UNL     1       9.538   0.056  21.838  0.00  0.00    +0.023 C 
ATOM     19  C   UNL     1      10.490  -0.506  22.901  0.00  0.00    +0.048 C 
ATOM     20  C   UNL     1      10.260   0.228  24.223  0.00  0.00    +0.023 C 
ENDBRANCH  16  19
ENDBRANCH  15  16
ENDBRANCH   1  15
BRANCH   7  21
ATOM     21  C   UNL     1       4.693  -6.896  27.761  0.00  0.00    +0.197 C 
BRANCH  21  22
ATOM     22  O   UNL     1       5.684  -7.619  28.472  0.00  0.00    -0.390 OA
ATOM     23  H   UNL     1       5.327  -7.737  29.376  0.00  0.00    +0.210 HD
ENDBRANCH  21  22
ENDBRANCH   7  21
TORSDOF 6
ENDMDL
MODEL 5
REMARK VINA RESULT:      -5.9      1.752      2.827
REMARK  Name = 
REMARK  8 active torsions:
REMARK  status: ('A' for Active; 'I' for Inactive)
REMARK    1  A    between atoms: C_1  and  C_2
REMARK    2  A    between atoms: C_2  and  C_3
REMARK    3  A    between atoms: C_2  and  N_4
REMARK    4  A    between atoms: N_4  and  C_5
REMARK    5  A    between atoms: C_5  and  C_6
REMARK    6  A    between atoms: C_11  and  C_12
REMARK    7  A    between atoms: C_12  and  O_13
REMARK    8  A    between atoms: C_14  and  N_18
REMARK                            x       y       z     vdW  Elec       q    Type
REMARK                         _______ _______ _______ _____ _____    ______ ____
ROOT
ATOM      1  C   UNL     1      10.060  -0.471  23.842  0.00  0.00    +0.084 C 
ATOM      2  N   UNL     1       9.123  -1.115  24.780  0.00  0.00    -0.339 N 
ATOM      3  H   UNL     1       9.553  -1.289  25.684  0.00  0.00    +0.146 HD
ATOM      4  C   UNL     1       8.526  -2.288  24.279  0.00  0.00    +0.037 A 
ATOM      5  C   UNL     1       8.378  -2.512  22.905  0.00  0.00    -0.026 A 
ATOM      6  C   UNL     1       7.757  -3.688  22.452  0.00  0.00    +0.018 A 
ATOM      7  C   UNL     1       7.229  -4.642  23.344  0.00  0.00    +0.055 A 
ATOM      8  C   UNL     1       7.329  -4.373  24.724  0.00  0.00    +0.280 A 
ATOM      9  C   UNL     1       8.945  -1.544  21.896  0.00  0.00    +0.039 C 
ATOM     10  C   UNL     1       7.955  -3.194  25.176  0.00  0.00    +0.107 A 
ATOM     11  C   UNL     1       9.329  -0.207  22.526  0.00  0.00    +0.028 C 
ENDROOT
BRANCH   8  12
ATOM     12  N   UNL     1       6.817  -5.293  25.761  0.00  0.00    +0.080 N 
ATOM     13  O   UNL     1       7.643  -5.867  26.485  0.00  0.00    +0.041 OA
ATOM     14  O   UNL     1       5.594  -5.467  25.856  0.00  0.00    -0.576 OA
ENDBRANCH   8  12
BRANCH   1  15
ATOM     15  C   UNL     1      10.622   0.841  24.446  0.00  0.00    +0.103 C 
BRANCH  15  16
ATOM     16  N   UNL     1       9.530   1.736  24.864  0.00  0.00    -0.312 NA
ATOM     17  H   UNL     1       8.648   1.281  24.632  0.00  0.00    +0.122 HD
BRANCH  16  19
ATOM     18  C   UNL     1      10.836   3.130  23.381  0.00  0.00    +0.023 C 
ATOM     19  C   UNL     1       9.545   3.049  24.204  0.00  0.00    +0.048 C 
ATOM     20  C   UNL     1       8.344   3.277  23.285  0.00  0.00    +0.023 C 
ENDBRANCH  16  19
ENDBRANCH  15  16
ENDBRANCH   1  15
BRANCH   7  21
ATOM     21  C   UNL     1       6.598  -5.873  22.746  0.00  0.00    +0.197 C 
BRANCH  21  22
ATOM     22  O   UNL     1       5.186  -5.767  22.808  0.00  0.00    -0.390 OA
ATOM     23  H   UNL     1       4.845  -6.405  22.148  0.00  0.00    +0.210 HD
ENDBRANCH  21  22
ENDBRANCH   7  21
TORSDOF 6
ENDMDL
MODEL 6
REMARK VINA RESULT:      -5.8      3.600      6.554
REMARK  Name = 
REMARK  8 active torsions:
REMARK  status: ('A' for Active; 'I' for Inactive)
REMARK    1  A    between atoms: C_1  and  C_2
REMARK    2  A    between atoms: C_2  and  C_3
REMARK    3  A    between atoms: C_2  and  N_4
REMARK    4  A    between atoms: N_4  and  C_5
REMARK    5  A    between atoms: C_5  and  C_6
REMARK    6  A    between atoms: C_11  and  C_12
REMARK    7  A    between atoms: C_12  and  O_13
REMARK    8  A    between atoms: C_14  and  N_18
REMARK                            x       y       z     vdW  Elec       q    Type
REMARK                         _______ _______ _______ _____ _____    ______ ____
ROOT
ATOM      1  C   UNL     1       7.264  -5.044  22.694  0.00  0.00    +0.084 C 
ATOM      2  N   UNL     1       6.850  -3.644  22.493  0.00  0.00    -0.339 N 
ATOM      3  H   UNL     1       6.587  -3.464  21.528  0.00  0.00    +0.146 HD
ATOM      4  C   UNL     1       7.792  -2.697  22.937  0.00  0.00    +0.037 A 
ATOM      5  C   UNL     1       8.721  -2.995  23.941  0.00  0.00    -0.026 A 
ATOM      6  C   UNL     1       9.629  -2.012  24.367  0.00  0.00    +0.018 A 
ATOM      7  C   UNL     1       9.608  -0.703  23.845  0.00  0.00    +0.055 A 
ATOM      8  C   UNL     1       8.627  -0.399  22.880  0.00  0.00    +0.280 A 
ATOM      9  C   UNL     1       8.815  -4.385  24.522  0.00  0.00    +0.039 C 
ATOM     10  C   UNL     1       7.718  -1.389  22.452  0.00  0.00    +0.107 A 
ATOM     11  C   UNL     1       7.602  -5.244  24.171  0.00  0.00    +0.028 C 
ENDROOT
BRANCH   8  12
ATOM     12  N   UNL     1       8.500   0.934  22.254  0.00  0.00    +0.080 N 
ATOM     13  O   UNL     1       8.940   1.078  21.105  0.00  0.00    +0.041 OA
ATOM     14  O   UNL     1       7.980   1.852  22.903  0.00  0.00    -0.576 OA
ENDBRANCH   8  12
BRANCH   1  15
ATOM     15  C   UNL     1       6.147  -6.017  22.237  0.00  0.00    +0.103 C 
BRANCH  15  16
ATOM     16  N   UNL     1       4.832  -5.355  22.264  0.00  0.00    -0.312 NA
ATOM     17  H   UNL     1       4.990  -4.349  22.317  0.00  0.00    +0.122 HD
BRANCH  16  19
ATOM     18  C   UNL     1       3.853  -4.500  24.303  0.00  0.00    +0.023 C 
ATOM     19  C   UNL     1       3.992  -5.737  23.407  0.00  0.00    +0.048 C 
ATOM     20  C   UNL     1       2.601  -6.223  23.000  0.00  0.00    +0.023 C 
ENDBRANCH  16  19
ENDBRANCH  15  16
ENDBRANCH   1  15
BRANCH   7  21
ATOM     21  C   UNL     1      10.639   0.265  24.365  0.00  0.00    +0.197 C 
BRANCH  21  22
ATOM     22  O   UNL     1      10.012   1.248  25.170  0.00  0.00    -0.390 OA
ATOM     23  H   UNL     1       9.517   0.752  25.855  0.00  0.00    +0.210 HD
ENDBRANCH  21  22
ENDBRANCH   7  21
TORSDOF 6
ENDMDL
MODEL 7
REMARK VINA RESULT:      -5.8      3.908      7.209
REMARK  Name = 
REMARK  8 active torsions:
REMARK  status: ('A' for Active; 'I' for Inactive)
REMARK    1  A    between atoms: C_1  and  C_2
REMARK    2  A    between atoms: C_2  and  C_3
REMARK    3  A    between atoms: C_2  and  N_4
REMARK    4  A    between atoms: N_4  and  C_5
REMARK    5  A    between atoms: C_5  and  C_6
REMARK    6  A    between atoms: C_11  and  C_12
REMARK    7  A    between atoms: C_12  and  O_13
REMARK    8  A    between atoms: C_14  and  N_18
REMARK                            x       y       z     vdW  Elec       q    Type
REMARK                         _______ _______ _______ _____ _____    ______ ____
ROOT
ATOM      1  C   UNL     1       7.858  -4.141  25.232  0.00  0.00    +0.084 C 
ATOM      2  N   UNL     1       8.818  -3.048  25.463  0.00  0.00    -0.339 N 
ATOM      3  H   UNL     1       8.749  -2.679  26.407  0.00  0.00    +0.146 HD
ATOM      4  C   UNL     1       8.743  -2.008  24.516  0.00  0.00    +0.037 A 
ATOM      5  C   UNL     1       8.252  -2.222  23.222  0.00  0.00    -0.026 A 
ATOM      6  C   UNL     1       8.215  -1.160  22.305  0.00  0.00    +0.018 A 
ATOM      7  C   UNL     1       8.703   0.122  22.629  0.00  0.00    +0.055 A 
ATOM      8  C   UNL     1       9.252   0.307  23.915  0.00  0.00    +0.280 A 
ATOM      9  C   UNL     1       7.688  -3.563  22.819  0.00  0.00    +0.039 C 
ATOM     10  C   UNL     1       9.286  -0.761  24.835  0.00  0.00    +0.107 A 
ATOM     11  C   UNL     1       8.052  -4.667  23.810  0.00  0.00    +0.028 C 
ENDROOT
BRANCH   8  12
ATOM     12  N   UNL     1       9.795   1.601  24.378  0.00  0.00    +0.080 N 
ATOM     13  O   UNL     1       9.016   2.393  24.926  0.00  0.00    +0.041 OA
ATOM     14  O   UNL     1      10.994   1.849  24.188  0.00  0.00    -0.576 OA
ENDBRANCH   8  12
BRANCH   1  15
ATOM     15  C   UNL     1       8.050  -5.269  26.278  0.00  0.00    +0.103 C 
BRANCH  15  16
ATOM     16  N   UNL     1       7.315  -4.964  27.518  0.00  0.00    -0.312 NA
ATOM     17  H   UNL     1       7.533  -5.694  28.196  0.00  0.00    +0.122 HD
BRANCH  16  19
ATOM     18  C   UNL     1       5.411  -6.316  26.890  0.00  0.00    +0.023 C 
ATOM     19  C   UNL     1       5.856  -4.924  27.355  0.00  0.00    +0.048 C 
ATOM     20  C   UNL     1       5.113  -4.561  28.641  0.00  0.00    +0.023 C 
ENDBRANCH  16  19
ENDBRANCH  15  16
ENDBRANCH   1  15
BRANCH   7  21
ATOM     21  C   UNL     1       8.599   1.190  21.572  0.00  0.00    +0.197 C 
BRANCH  21  22
ATOM     22  O   UNL     1       9.828   1.887  21.470  0.00  0.00    -0.390 OA
ATOM     23  H   UNL     1      10.448   1.418  22.067  0.00  0.00    +0.210 HD
ENDBRANCH  21  22
ENDBRANCH   7  21
TORSDOF 6
ENDMDL
MODEL 8
REMARK VINA RESULT:      -5.7      2.274      3.327
REMARK  Name = 
REMARK  8 active torsions:
REMARK  status: ('A' for Active; 'I' for Inactive)
REMARK    1  A    between atoms: C_1  and  C_2
REMARK    2  A    between atoms: C_2  and  C_3
REMARK    3  A    between atoms: C_2  and  N_4
REMARK    4  A    between atoms: N_4  and  C_5
REMARK    5  A    between atoms: C_5  and  C_6
REMARK    6  A    between atoms: C_11  and  C_12
REMARK    7  A    between atoms: C_12  and  O_13
REMARK    8  A    between atoms: C_14  and  N_18
REMARK                            x       y       z     vdW  Elec       q    Type
REMARK                         _______ _______ _______ _____ _____    ______ ____
ROOT
ATOM      1  C   UNL     1       8.806  -0.479  25.030  0.00  0.00    +0.084 C 
ATOM      2  N   UNL     1       8.956  -1.545  24.024  0.00  0.00    -0.339 N 
ATOM      3  H   UNL     1       9.146  -1.168  23.100  0.00  0.00    +0.146 HD
ATOM      4  C   UNL     1       7.876  -2.448  23.980  0.00  0.00    +0.037 A 
ATOM      5  C   UNL     1       7.052  -2.669  25.091  0.00  0.00    -0.026 A 
ATOM      6  C   UNL     1       5.999  -3.594  25.007  0.00  0.00    +0.018 A 
ATOM      7  C   UNL     1       5.766  -4.353  23.843  0.00  0.00    +0.055 A 
ATOM      8  C   UNL     1       6.641  -4.165  22.754  0.00  0.00    +0.280 A 
ATOM      9  C   UNL     1       7.230  -1.870  26.359  0.00  0.00    +0.039 C 
ATOM     10  C   UNL     1       7.696  -3.235  22.840  0.00  0.00    +0.107 A 
ATOM     11  C   UNL     1       8.564  -1.126  26.394  0.00  0.00    +0.028 C 
ENDROOT
BRANCH   8  12
ATOM     12  N   UNL     1       6.504  -4.897  21.477  0.00  0.00    +0.080 N 
ATOM     13  O   UNL     1       7.184  -5.920  21.320  0.00  0.00    +0.041 OA
ATOM     14  O   UNL     1       5.733  -4.455  20.614  0.00  0.00    -0.576 OA
ENDBRANCH   8  12
BRANCH   1  15
ATOM     15  C   UNL     1      10.062   0.430  25.055  0.00  0.00    +0.103 C 
BRANCH  15  16
ATOM     16  N   UNL     1      10.692   0.491  23.725  0.00  0.00    -0.312 NA
ATOM     17  H   UNL     1      11.702   0.449  23.856  0.00  0.00    +0.122 HD
BRANCH  16  19
ATOM     18  C   UNL     1       9.438   1.330  21.835  0.00  0.00    +0.023 C 
ATOM     19  C   UNL     1      10.388   1.717  22.974  0.00  0.00    +0.048 C 
ATOM     20  C   UNL     1       9.734   2.803  23.829  0.00  0.00    +0.023 C 
ENDBRANCH  16  19
ENDBRANCH  15  16
ENDBRANCH   1  15
BRANCH   7  21
ATOM     21  C   UNL     1       4.598  -5.305  23.860  0.00  0.00    +0.197 C 
BRANCH  21  22
ATOM     22  O   UNL     1       3.625  -4.888  22.918  0.00  0.00    -0.390 OA
ATOM     23  H   UNL     1       4.043  -4.164  22.409  0.00  0.00    +0.210 HD
ENDBRANCH  21  22
ENDBRANCH   7  21
TORSDOF 6
ENDMDL
MODEL 9
REMARK VINA RESULT:      -5.6      4.612      7.704
REMARK  Name = 
REMARK  8 active torsions:
REMARK  status: ('A' for Active; 'I' for Inactive)
REMARK    1  A    between atoms: C_1  and  C_2
REMARK    2  A    between atoms: C_2  and  C_3
REMARK    3  A    between atoms: C_2  and  N_4
REMARK    4  A    between atoms: N_4  and  C_5
REMARK    5  A    between atoms: C_5  and  C_6
REMARK    6  A    between atoms: C_11  and  C_12
REMARK    7  A    between atoms: C_12  and  O_13
REMARK    8  A    between atoms: C_14  and  N_18
REMARK                            x       y       z     vdW  Elec       q    Type
REMARK                         _______ _______ _______ _____ _____    ______ ____
ROOT
ATOM      1  C   UNL     1       9.338  -1.271  23.356  0.00  0.00    +0.084 C 
ATOM      2  N   UNL     1       9.600  -0.164  24.291  0.00  0.00    -0.339 N 
ATOM      3  H   UNL     1       9.277  -0.378  25.230  0.00  0.00    +0.146 HD
ATOM      4  C   UNL     1       9.095   1.080  23.863  0.00  0.00    +0.037 A 
ATOM      5  C   UNL     1       8.888   1.366  22.509  0.00  0.00    -0.026 A 
ATOM      6  C   UNL     1       8.403   2.627  22.127  0.00  0.00    +0.018 A 
ATOM      7  C   UNL     1       8.156   3.646  23.069  0.00  0.00    +0.055 A 
ATOM      8  C   UNL     1       8.429   3.365  24.423  0.00  0.00    +0.280 A 
ATOM      9  C   UNL     1       9.105   0.310  21.452  0.00  0.00    +0.039 C 
ATOM     10  C   UNL     1       8.914   2.097  24.804  0.00  0.00    +0.107 A 
ATOM     11  C   UNL     1       9.887  -0.890  21.982  0.00  0.00    +0.028 C 
ENDROOT
BRANCH   8  12
ATOM     12  N   UNL     1       8.212   4.346  25.507  0.00  0.00    +0.080 N 
ATOM     13  O   UNL     1       7.325   4.106  26.337  0.00  0.00    +0.041 OA
ATOM     14  O   UNL     1       8.909   5.371  25.535  0.00  0.00    -0.576 OA
ENDBRANCH   8  12
BRANCH   1  15
ATOM     15  C   UNL     1       9.979  -2.586  23.871  0.00  0.00    +0.103 C 
BRANCH  15  16
ATOM     16  N   UNL     1       8.998  -3.685  23.866  0.00  0.00    -0.312 NA
ATOM     17  H   UNL     1       8.280  -3.458  23.179  0.00  0.00    +0.122 HD
BRANCH  16  19
ATOM     18  C   UNL     1       7.076  -4.738  24.889  0.00  0.00    +0.023 C 
ATOM     19  C   UNL     1       8.330  -3.898  25.158  0.00  0.00    +0.048 C 
ATOM     20  C   UNL     1       9.210  -4.617  26.181  0.00  0.00    +0.023 C 
ENDBRANCH  16  19
ENDBRANCH  15  16
ENDBRANCH   1  15
BRANCH   7  21
ATOM     21  C   UNL     1       7.622   4.955  22.548  0.00  0.00    +0.197 C 
BRANCH  21  22
ATOM     22  O   UNL     1       8.659   5.921  22.524  0.00  0.00    -0.390 OA
ATOM     23  H   UNL     1       8.285   6.697  22.059  0.00  0.00    +0.210 HD
ENDBRANCH  21  22
ENDBRANCH   7  21
TORSDOF 6
ENDMDL
