MODEL 1
REMARK VINA RESULT:      -7.8      0.000      0.000
REMARK  Name = 
REMARK  13 active torsions:
REMARK  status: ('A' for Active; 'I' for Inactive)
REMARK    1  A    between atoms: C_1  and  C_2
REMARK    2  A    between atoms: C_2  and  C_3
REMARK    3  A    between atoms: C_3  and  C_5
REMARK    4  A    between atoms: C_3  and  C_6
REMARK    5  A    between atoms: C_6  and  N_8
REMARK    6  A    between atoms: C_6  and  C_9
REMARK    7  A    between atoms: N_11  and  S_12
REMARK    8  A    between atoms: S_12  and  N_15
REMARK    9  A    between atoms: N_15  and  C_16
REMARK   10  A    between atoms: C_16  and  C_17
REMARK   11  A    between atoms: C_20  and  N_28
REMARK   12  A    between atoms: C_22  and  O_24
REMARK   13  A    between atoms: C_25  and  O_27
REMARK                            x       y       z     vdW  Elec       q    Type
REMARK                         _______ _______ _______ _____ _____    ______ ____
ROOT
ATOM      1  C   UNL     1       8.578  -4.185  26.499  0.00  0.00    +0.167 C 
ATOM      2  C   UNL     1       8.859  -5.197  25.386  0.00  0.00    +0.177 C 
ATOM      3  C   UNL     1       8.659  -4.428  24.081  0.00  0.00    +0.195 C 
ATOM      4  C   UNL     1       8.229  -3.023  24.519  0.00  0.00    +0.253 C 
ATOM      5  O   UNL     1       8.680  -2.884  25.881  0.00  0.00    -0.347 OA
ENDROOT
BRANCH   4   6
ATOM      6  N   UNL     1       8.775  -1.943  23.715  0.00  0.00    -0.286 N 
ATOM      7  C   UNL     1       8.179  -0.733  23.463  0.00  0.00    +0.167 A 
ATOM      8  N   UNL     1       6.967  -0.309  23.870  0.00  0.00    -0.216 NA
ATOM      9  C   UNL     1       6.703   0.923  23.379  0.00  0.00    +0.225 A 
ATOM     10  N   UNL     1       7.482   1.701  22.597  0.00  0.00    -0.219 NA
ATOM     11  C   UNL     1       8.690   1.228  22.218  0.00  0.00    +0.147 A 
ATOM     12  N   UNL     1       9.477   2.026  21.399  0.00  0.00    -0.341 N 
ATOM     13  H   UNL     1      10.463   1.794  21.423  0.00  0.00    +0.144 HD
ATOM     14  H   UNL     1       9.216   3.002  21.437  0.00  0.00    +0.144 HD
ATOM     15  C   UNL     1       9.084  -0.044  22.670  0.00  0.00    +0.147 A 
ATOM     16  N   UNL     1      10.234  -0.783  22.489  0.00  0.00    -0.231 NA
ATOM     17  C   UNL     1      10.019  -1.908  23.136  0.00  0.00    +0.203 A 
ENDBRANCH   4   6
BRANCH   2  18
ATOM     18  O   UNL     1      10.218  -5.656  25.474  0.00  0.00    -0.386 OA
ATOM     19  H   UNL     1      10.546  -5.849  24.579  0.00  0.00    +0.210 HD
ENDBRANCH   2  18
BRANCH   3  20
ATOM     20  O   UNL     1       7.652  -5.044  23.276  0.00  0.00    -0.385 OA
ATOM     21  H   UNL     1       7.582  -5.969  23.596  0.00  0.00    +0.210 HD
ENDBRANCH   3  20
BRANCH   1  22
ATOM     22  C   UNL     1       7.181  -4.410  27.116  0.00  0.00    +0.141 C 
BRANCH  22  23
ATOM     23  N   UNL     1       7.151  -5.684  27.886  0.00  0.00    -0.175 NA
ATOM     24  H   UNL     1       7.716  -6.404  27.421  0.00  0.00    +0.149 HD
BRANCH  23  25
ATOM     25  S   UNL     1       5.608  -6.330  28.074  0.00  0.00    +0.111 S 
ATOM     26  O   UNL     1       5.743  -7.667  28.594  0.00  0.00    -0.138 OA
ATOM     27  O   UNL     1       4.797  -5.338  28.735  0.00  0.00    -0.138 OA
BRANCH  25  29
ATOM     28  C   UNL     1       3.868  -6.836  26.081  0.00  0.00    +0.250 C 
ATOM     29  N   UNL     1       5.145  -6.446  26.508  0.00  0.00    -0.174 N 
ATOM     30  H   UNL     1       5.882  -6.366  25.810  0.00  0.00    +0.178 HD
ATOM     31  O   UNL     1       2.942  -7.020  26.863  0.00  0.00    -0.272 OA
BRANCH  28  32
ATOM     32  C   UNL     1       3.696  -6.937  24.548  0.00  0.00    +0.142 C 
BRANCH  32  33
ATOM     33  N   UNL     1       3.008  -8.206  24.190  0.00  0.00    -0.320 NA
ATOM     34  H   UNL     1       3.245  -8.439  23.224  0.00  0.00    +0.119 HD
ATOM     35  H   UNL     1       3.414  -8.962  24.751  0.00  0.00    +0.119 HD
ENDBRANCH  32  33
BRANCH  32  36
ATOM     36  C   UNL     1       3.001  -5.711  23.896  0.00  0.00    +0.011 C 
ATOM     37  C   UNL     1       1.894  -6.152  22.928  0.00  0.00    +0.009 C 
BRANCH  36  39
ATOM     38  C   UNL     1       4.521  -3.667  24.180  0.00  0.00    +0.004 C 
ATOM     39  C   UNL     1       3.979  -4.725  23.222  0.00  0.00    +0.002 C 
ENDBRANCH  36  39
ENDBRANCH  32  36
ENDBRANCH  28  32
ENDBRANCH  25  29
ENDBRANCH  23  25
ENDBRANCH  22  23
ENDBRANCH   1  22
TORSDOF 11
ENDMDL
MODEL 2
REMARK VINA RESULT:      -7.5      2.980      8.583
REMARK  Name = 
REMARK  13 active torsions:
REMARK  status: ('A' for Active; 'I' for Inactive)
REMARK    1  A    between atoms: C_1  and  C_2
REMARK    2  A    between atoms: C_2  and  C_3
REMARK    3  A    between atoms: C_3  and  C_5
REMARK    4  A    between atoms: C_3  and  C_6
REMARK    5  A    between atoms: C_6  and  N_8
REMARK    6  A    between atoms: C_6  and  C_9
REMARK    7  A    between atoms: N_11  and  S_12
REMARK    8  A    between atoms: S_12  and  N_15
REMARK    9  A    between atoms: N_15  and  C_16
REMARK   10  A    between atoms: C_16  and  C_17
REMARK   11  A    between atoms: C_20  and  N_28
REMARK   12  A    between atoms: C_22  and  O_24
REMARK   13  A    between atoms: C_25  and  O_27
REMARK                            x       y       z     vdW  Elec       q    Type
REMARK                         _______ _______ _______ _____ _____    ______ ____
ROOT
ATOM      1  C   UNL     1       6.168  -3.394  22.326  0.00  0.00    +0.167 C 
ATOM      2  C   UNL     1       7.138  -4.572  22.203  0.00  0.00    +0.177 C 
ATOM      3  C   UNL     1       7.132  -5.244  23.575  0.00  0.00    +0.195 C 
ATOM      4  C   UNL     1       6.188  -4.386  24.426  0.00  0.00    +0.253 C 
ATOM      5  O   UNL     1       5.357  -3.673  23.489  0.00  0.00    -0.347 OA
ENDROOT
BRANCH   4   6
ATOM      6  N   UNL     1       5.349  -5.135  25.346  0.00  0.00    -0.286 N 
ATOM      7  C   UNL     1       5.739  -5.683  26.542  0.00  0.00    +0.167 A 
ATOM      8  N   UNL     1       6.968  -5.675  27.092  0.00  0.00    -0.216 NA
ATOM      9  C   UNL     1       6.974  -6.365  28.255  0.00  0.00    +0.225 A 
ATOM     10  N   UNL     1       5.947  -6.992  28.866  0.00  0.00    -0.219 NA
ATOM     11  C   UNL     1       4.733  -6.968  28.271  0.00  0.00    +0.147 A 
ATOM     12  N   UNL     1       3.686  -7.631  28.896  0.00  0.00    -0.341 N 
ATOM     13  H   UNL     1       2.768  -7.311  28.612  0.00  0.00    +0.144 HD
ATOM     14  H   UNL     1       3.852  -7.783  29.882  0.00  0.00    +0.144 HD
ATOM     15  C   UNL     1       4.596  -6.276  27.055  0.00  0.00    +0.147 A 
ATOM     16  N   UNL     1       3.515  -6.047  26.230  0.00  0.00    -0.231 NA
ATOM     17  C   UNL     1       4.000  -5.352  25.222  0.00  0.00    +0.203 A 
ENDBRANCH   4   6
BRANCH   2  18
ATOM     18  O   UNL     1       6.662  -5.493  21.209  0.00  0.00    -0.386 OA
ATOM     19  H   UNL     1       5.867  -5.942  21.547  0.00  0.00    +0.210 HD
ENDBRANCH   2  18
BRANCH   3  20
ATOM     20  O   UNL     1       8.446  -5.271  24.135  0.00  0.00    -0.385 OA
ATOM     21  H   UNL     1       8.321  -5.311  25.107  0.00  0.00    +0.210 HD
ENDBRANCH   3  20
BRANCH   1  22
ATOM     22  C   UNL     1       6.929  -2.059  22.475  0.00  0.00    +0.141 C 
BRANCH  22  23
ATOM     23  N   UNL     1       8.359  -2.231  22.099  0.00  0.00    -0.175 NA
ATOM     24  H   UNL     1       8.570  -3.217  21.911  0.00  0.00    +0.149 HD
BRANCH  23  25
ATOM     25  S   UNL     1       9.442  -1.726  23.286  0.00  0.00    +0.111 S 
ATOM     26  O   UNL     1       8.755  -1.737  24.552  0.00  0.00    -0.138 OA
ATOM     27  O   UNL     1      10.675  -2.446  23.086  0.00  0.00    -0.138 OA
BRANCH  25  29
ATOM     28  C   UNL     1      10.391   0.778  23.577  0.00  0.00    +0.250 C 
ATOM     29  N   UNL     1       9.654  -0.164  22.845  0.00  0.00    -0.174 N 
ATOM     30  H   UNL     1       9.092   0.167  22.063  0.00  0.00    +0.178 HD
ATOM     31  O   UNL     1      11.040   0.474  24.571  0.00  0.00    -0.272 OA
BRANCH  28  32
ATOM     32  C   UNL     1      10.386   2.208  22.989  0.00  0.00    +0.142 C 
BRANCH  32  33
ATOM     33  N   UNL     1       9.935   2.179  21.571  0.00  0.00    -0.320 NA
ATOM     34  H   UNL     1       9.895   3.141  21.227  0.00  0.00    +0.119 HD
ATOM     35  H   UNL     1      10.665   1.729  21.010  0.00  0.00    +0.119 HD
ENDBRANCH  32  33
BRANCH  32  36
ATOM     36  C   UNL     1       9.582   3.243  23.819  0.00  0.00    +0.011 C 
ATOM     37  C   UNL     1       8.128   3.333  23.334  0.00  0.00    +0.009 C 
BRANCH  36  39
ATOM     38  C   UNL     1      11.691   4.640  23.410  0.00  0.00    +0.004 C 
ATOM     39  C   UNL     1      10.241   4.638  23.886  0.00  0.00    +0.002 C 
ENDBRANCH  36  39
ENDBRANCH  32  36
ENDBRANCH  28  32
ENDBRANCH  25  29
ENDBRANCH  23  25
ENDBRANCH  22  23
ENDBRANCH   1  22
TORSDOF 11
ENDMDL
MODEL 3
REMARK VINA RESULT:      -7.5      1.773      2.372
REMARK  Name = 
REMARK  13 active torsions:
REMARK  status: ('A' for Active; 'I' for Inactive)
REMARK    1  A    between atoms: C_1  and  C_2
REMARK    2  A    between atoms: C_2  and  C_3
REMARK    3  A    between atoms: C_3  and  C_5
REMARK    4  A    between atoms: C_3  and  C_6
REMARK    5  A    between atoms: C_6  and  N_8
REMARK    6  A    between atoms: C_6  and  C_9
REMARK    7  A    between atoms: N_11  and  S_12
REMARK    8  A    between atoms: S_12  and  N_15
REMARK    9  A    between atoms: N_15  and  C_16
REMARK   10  A    between atoms: C_16  and  C_17
REMARK   11  A    between atoms: C_20  and  N_28
REMARK   12  A    between atoms: C_22  and  O_24
REMARK   13  A    between atoms: C_25  and  O_27
REMARK                            x       y       z     vdW  Elec       q    Type
REMARK                         _______ _______ _______ _____ _____    ______ ____
ROOT
ATOM      1  C   UNL     1       8.950  -5.062  24.649  0.00  0.00    +0.167 C 
ATOM      2  C   UNL     1       7.588  -5.071  23.950  0.00  0.00    +0.177 C 
ATOM      3  C   UNL     1       7.306  -3.612  23.599  0.00  0.00    +0.195 C 
ATOM      4  C   UNL     1       8.506  -2.837  24.156  0.00  0.00    +0.253 C 
ATOM      5  O   UNL     1       9.565  -3.804  24.295  0.00  0.00    -0.347 OA
ENDROOT
BRANCH   4   6
ATOM      6  N   UNL     1       8.959  -1.737  23.322  0.00  0.00    -0.286 N 
ATOM      7  C   UNL     1       9.186  -0.446  23.727  0.00  0.00    +0.167 A 
ATOM      8  N   UNL     1       9.007   0.077  24.955  0.00  0.00    -0.216 NA
ATOM      9  C   UNL     1       9.287   1.400  24.956  0.00  0.00    +0.225 A 
ATOM     10  N   UNL     1       9.707   2.171  23.930  0.00  0.00    -0.219 NA
ATOM     11  C   UNL     1       9.873   1.594  22.718  0.00  0.00    +0.147 A 
ATOM     12  N   UNL     1      10.286   2.398  21.664  0.00  0.00    -0.341 N 
ATOM     13  H   UNL     1      10.710   1.887  20.899  0.00  0.00    +0.144 HD
ATOM     14  H   UNL     1      10.734   3.249  21.974  0.00  0.00    +0.144 HD
ATOM     15  C   UNL     1       9.617   0.218  22.589  0.00  0.00    +0.147 A 
ATOM     16  N   UNL     1       9.714  -0.652  21.524  0.00  0.00    -0.231 NA
ATOM     17  C   UNL     1       9.323  -1.815  22.001  0.00  0.00    +0.203 A 
ENDBRANCH   4   6
BRANCH   2  18
ATOM     18  O   UNL     1       7.662  -5.855  22.749  0.00  0.00    -0.386 OA
ATOM     19  H   UNL     1       6.792  -6.257  22.579  0.00  0.00    +0.210 HD
ENDBRANCH   2  18
BRANCH   3  20
ATOM     20  O   UNL     1       6.087  -3.169  24.199  0.00  0.00    -0.385 OA
ATOM     21  H   UNL     1       5.947  -3.749  24.978  0.00  0.00    +0.210 HD
ENDBRANCH   3  20
BRANCH   1  22
ATOM     22  C   UNL     1       8.792  -5.202  26.178  0.00  0.00    +0.141 C 
BRANCH  22  23
ATOM     23  N   UNL     1       7.448  -5.747  26.516  0.00  0.00    -0.175 NA
ATOM     24  H   UNL     1       6.932  -5.995  25.663  0.00  0.00    +0.149 HD
BRANCH  23  25
ATOM     25  S   UNL     1       6.472  -4.675  27.372  0.00  0.00    +0.111 S 
ATOM     26  O   UNL     1       6.252  -5.222  28.687  0.00  0.00    -0.138 OA
ATOM     27  O   UNL     1       7.008  -3.350  27.182  0.00  0.00    -0.138 OA
BRANCH  25  29
ATOM     28  C   UNL     1       4.538  -6.026  26.072  0.00  0.00    +0.250 C 
ATOM     29  N   UNL     1       5.074  -4.814  26.531  0.00  0.00    -0.174 N 
ATOM     30  H   UNL     1       4.653  -3.946  26.204  0.00  0.00    +0.178 HD
ATOM     31  O   UNL     1       5.025  -7.111  26.363  0.00  0.00    -0.272 OA
BRANCH  28  32
ATOM     32  C   UNL     1       3.241  -5.890  25.240  0.00  0.00    +0.142 C 
BRANCH  32  33
ATOM     33  N   UNL     1       3.204  -4.567  24.560  0.00  0.00    -0.320 NA
ATOM     34  H   UNL     1       3.223  -4.725  23.550  0.00  0.00    +0.119 HD
ATOM     35  H   UNL     1       2.293  -4.137  24.743  0.00  0.00    +0.119 HD
ENDBRANCH  32  33
BRANCH  32  36
ATOM     36  C   UNL     1       2.995  -7.050  24.239  0.00  0.00    +0.011 C 
ATOM     37  C   UNL     1       2.338  -6.539  22.950  0.00  0.00    +0.009 C 
BRANCH  36  39
ATOM     38  C   UNL     1       1.166  -8.811  23.885  0.00  0.00    +0.004 C 
ATOM     39  C   UNL     1       2.209  -8.236  24.840  0.00  0.00    +0.002 C 
ENDBRANCH  36  39
ENDBRANCH  32  36
ENDBRANCH  28  32
ENDBRANCH  25  29
ENDBRANCH  23  25
ENDBRANCH  22  23
ENDBRANCH   1  22
TORSDOF 11
ENDMDL
MODEL 4
REMARK VINA RESULT:      -7.3      3.237      4.705
REMARK  Name = 
REMARK  13 active torsions:
REMARK  status: ('A' for Active; 'I' for Inactive)
REMARK    1  A    between atoms: C_1  and  C_2
REMARK    2  A    between atoms: C_2  and  C_3
REMARK    3  A    between atoms: C_3  and  C_5
REMARK    4  A    between atoms: C_3  and  C_6
REMARK    5  A    between atoms: C_6  and  N_8
REMARK    6  A    between atoms: C_6  and  C_9
REMARK    7  A    between atoms: N_11  and  S_12
REMARK    8  A    between atoms: S_12  and  N_15
REMARK    9  A    between atoms: N_15  and  C_16
REMARK   10  A    between atoms: C_16  and  C_17
REMARK   11  A    between atoms: C_20  and  N_28
REMARK   12  A    between atoms: C_22  and  O_24
REMARK   13  A    between atoms: C_25  and  O_27
REMARK                            x       y       z     vdW  Elec       q    Type
REMARK                         _______ _______ _______ _____ _____    ______ ____
ROOT
ATOM      1  C   UNL     1       7.569  -1.970  23.599  0.00  0.00    +0.167 C 
ATOM      2  C   UNL     1       9.027  -2.342  23.322  0.00  0.00    +0.177 C 
ATOM      3  C   UNL     1       9.638  -1.111  22.655  0.00  0.00    +0.195 C 
ATOM      4  C   UNL     1       8.481  -0.111  22.547  0.00  0.00    +0.253 C 
ATOM      5  O   UNL     1       7.511  -0.528  23.528  0.00  0.00    -0.347 OA
ENDROOT
BRANCH   4   6
ATOM      6  N   UNL     1       8.849   1.273  22.787  0.00  0.00    -0.286 N 
ATOM      7  C   UNL     1       8.031   2.368  22.667  0.00  0.00    +0.167 A 
ATOM      8  N   UNL     1       6.743   2.396  22.273  0.00  0.00    -0.216 NA
ATOM      9  C   UNL     1       6.286   3.668  22.229  0.00  0.00    +0.225 A 
ATOM     10  N   UNL     1       6.942   4.808  22.529  0.00  0.00    -0.219 NA
ATOM     11  C   UNL     1       8.234   4.723  22.921  0.00  0.00    +0.147 A 
ATOM     12  N   UNL     1       8.908   5.902  23.210  0.00  0.00    -0.341 N 
ATOM     13  H   UNL     1       9.720   5.777  23.802  0.00  0.00    +0.144 HD
ATOM     14  H   UNL     1       8.283   6.669  23.416  0.00  0.00    +0.144 HD
ATOM     15  C   UNL     1       8.825   3.451  23.012  0.00  0.00    +0.147 A 
ATOM     16  N   UNL     1      10.081   3.032  23.396  0.00  0.00    -0.231 NA
ATOM     17  C   UNL     1      10.057   1.723  23.259  0.00  0.00    +0.203 A 
ENDBRANCH   4   6
BRANCH   2  18
ATOM     18  O   UNL     1       9.706  -2.612  24.559  0.00  0.00    -0.386 OA
ATOM     19  H   UNL     1      10.486  -2.033  24.625  0.00  0.00    +0.210 HD
ENDBRANCH   2  18
BRANCH   3  20
ATOM     20  O   UNL     1      10.158  -1.435  21.364  0.00  0.00    -0.385 OA
ATOM     21  H   UNL     1      10.369  -2.393  21.394  0.00  0.00    +0.210 HD
ENDBRANCH   3  20
BRANCH   1  22
ATOM     22  C   UNL     1       6.622  -2.624  22.569  0.00  0.00    +0.141 C 
BRANCH  22  23
ATOM     23  N   UNL     1       7.173  -3.928  22.109  0.00  0.00    -0.175 NA
ATOM     24  H   UNL     1       7.253  -3.948  21.086  0.00  0.00    +0.149 HD
BRANCH  23  25
ATOM     25  S   UNL     1       6.235  -5.256  22.544  0.00  0.00    +0.111 S 
ATOM     26  O   UNL     1       4.851  -4.915  22.336  0.00  0.00    -0.138 OA
ATOM     27  O   UNL     1       6.828  -6.425  21.941  0.00  0.00    -0.138 OA
BRANCH  25  29
ATOM     28  C   UNL     1       7.767  -5.434  24.753  0.00  0.00    +0.250 C 
ATOM     29  N   UNL     1       6.505  -5.290  24.159  0.00  0.00    -0.174 N 
ATOM     30  H   UNL     1       5.682  -5.355  24.755  0.00  0.00    +0.178 HD
ATOM     31  O   UNL     1       8.804  -5.435  24.100  0.00  0.00    -0.272 OA
BRANCH  28  32
ATOM     32  C   UNL     1       7.755  -5.508  26.298  0.00  0.00    +0.142 C 
BRANCH  32  33
ATOM     33  N   UNL     1       8.907  -4.750  26.857  0.00  0.00    -0.320 NA
ATOM     34  H   UNL     1       8.617  -4.334  27.745  0.00  0.00    +0.119 HD
ATOM     35  H   UNL     1       9.642  -5.418  27.106  0.00  0.00    +0.119 HD
ENDBRANCH  32  33
BRANCH  32  36
ATOM     36  C   UNL     1       6.417  -5.072  26.952  0.00  0.00    +0.011 C 
ATOM     37  C   UNL     1       6.368  -3.551  27.154  0.00  0.00    +0.009 C 
BRANCH  36  39
ATOM     38  C   UNL     1       5.259  -4.995  29.238  0.00  0.00    +0.004 C 
ATOM     39  C   UNL     1       6.089  -5.824  28.260  0.00  0.00    +0.002 C 
ENDBRANCH  36  39
ENDBRANCH  32  36
ENDBRANCH  28  32
ENDBRANCH  25  29
ENDBRANCH  23  25
ENDBRANCH  22  23
ENDBRANCH   1  22
TORSDOF 11
ENDMDL
MODEL 5
REMARK VINA RESULT:      -7.2      2.528      3.167
REMARK  Name = 
REMARK  13 active torsions:
REMARK  status: ('A' for Active; 'I' for Inactive)
REMARK    1  A    between atoms: C_1  and  C_2
REMARK    2  A    between atoms: C_2  and  C_3
REMARK    3  A    between atoms: C_3  and  C_5
REMARK    4  A    between atoms: C_3  and  C_6
REMARK    5  A    between atoms: C_6  and  N_8
REMARK    6  A    between atoms: C_6  and  C_9
REMARK    7  A    between atoms: N_11  and  S_12
REMARK    8  A    between atoms: S_12  and  N_15
REMARK    9  A    between atoms: N_15  and  C_16
REMARK   10  A    between atoms: C_16  and  C_17
REMARK   11  A    between atoms: C_20  and  N_28
REMARK   12  A    between atoms: C_22  and  O_24
REMARK   13  A    between atoms: C_25  and  O_27
REMARK                            x       y       z     vdW  Elec       q    Type
REMARK                         _______ _______ _______ _____ _____    ______ ____
ROOT
ATOM      1  C   UNL     1       8.780  -2.203  24.841  0.00  0.00    +0.167 C 
ATOM      2  C   UNL     1       7.790  -2.145  23.676  0.00  0.00    +0.177 C 
ATOM      3  C   UNL     1       7.572  -0.658  23.405  0.00  0.00    +0.195 C 
ATOM      4  C   UNL     1       8.419   0.060  24.463  0.00  0.00    +0.253 C 
ATOM      5  O   UNL     1       9.404  -0.900  24.891  0.00  0.00    -0.347 OA
ENDROOT
BRANCH   4   6
ATOM      6  N   UNL     1       9.085   1.263  23.993  0.00  0.00    -0.286 N 
ATOM      7  C   UNL     1       8.892   2.538  24.463  0.00  0.00    +0.167 A 
ATOM      8  N   UNL     1       8.033   2.944  25.417  0.00  0.00    -0.216 NA
ATOM      9  C   UNL     1       8.091   4.287  25.569  0.00  0.00    +0.225 A 
ATOM     10  N   UNL     1       8.873   5.174  24.918  0.00  0.00    -0.219 NA
ATOM     11  C   UNL     1       9.719   4.712  23.970  0.00  0.00    +0.147 A 
ATOM     12  N   UNL     1      10.506   5.632  23.291  0.00  0.00    -0.341 N 
ATOM     13  H   UNL     1      11.329   5.231  22.860  0.00  0.00    +0.144 HD
ATOM     14  H   UNL     1      10.608   6.504  23.793  0.00  0.00    +0.144 HD
ATOM     15  C   UNL     1       9.756   3.329  23.721  0.00  0.00    +0.147 A 
ATOM     16  N   UNL     1      10.507   2.556  22.860  0.00  0.00    -0.231 NA
ATOM     17  C   UNL     1      10.087   1.324  23.058  0.00  0.00    +0.203 A 
ENDBRANCH   4   6
BRANCH   2  18
ATOM     18  O   UNL     1       8.364  -2.771  22.517  0.00  0.00    -0.386 OA
ATOM     19  H   UNL     1       9.028  -2.172  22.130  0.00  0.00    +0.210 HD
ENDBRANCH   2  18
BRANCH   3  20
ATOM     20  O   UNL     1       6.191  -0.313  23.534  0.00  0.00    -0.385 OA
ATOM     21  H   UNL     1       6.176   0.613  23.857  0.00  0.00    +0.210 HD
ENDBRANCH   3  20
BRANCH   1  22
ATOM     22  C   UNL     1       8.062  -2.535  26.166  0.00  0.00    +0.141 C 
BRANCH  22  23
ATOM     23  N   UNL     1       8.328  -3.945  26.564  0.00  0.00    -0.175 NA
ATOM     24  H   UNL     1       8.675  -4.488  25.765  0.00  0.00    +0.149 HD
BRANCH  23  25
ATOM     25  S   UNL     1       6.974  -4.757  27.146  0.00  0.00    +0.111 S 
ATOM     26  O   UNL     1       7.426  -5.893  27.909  0.00  0.00    -0.138 OA
ATOM     27  O   UNL     1       6.082  -3.773  27.707  0.00  0.00    -0.138 OA
BRANCH  25  29
ATOM     28  C   UNL     1       5.470  -6.411  25.642  0.00  0.00    +0.250 C 
ATOM     29  N   UNL     1       6.341  -5.317  25.743  0.00  0.00    -0.174 N 
ATOM     30  H   UNL     1       6.727  -4.927  24.885  0.00  0.00    +0.178 HD
ATOM     31  O   UNL     1       5.015  -6.981  26.627  0.00  0.00    -0.272 OA
BRANCH  28  32
ATOM     32  C   UNL     1       5.065  -6.790  24.199  0.00  0.00    +0.142 C 
BRANCH  32  33
ATOM     33  N   UNL     1       3.831  -7.621  24.213  0.00  0.00    -0.320 NA
ATOM     34  H   UNL     1       3.773  -8.124  23.325  0.00  0.00    +0.119 HD
ATOM     35  H   UNL     1       3.943  -8.351  24.923  0.00  0.00    +0.119 HD
ENDBRANCH  32  33
BRANCH  32  36
ATOM     36  C   UNL     1       4.927  -5.584  23.232  0.00  0.00    +0.011 C 
ATOM     37  C   UNL     1       3.460  -5.155  23.088  0.00  0.00    +0.009 C 
BRANCH  36  39
ATOM     38  C   UNL     1       7.101  -5.961  21.928  0.00  0.00    +0.004 C 
ATOM     39  C   UNL     1       5.584  -5.811  21.853  0.00  0.00    +0.002 C 
ENDBRANCH  36  39
ENDBRANCH  32  36
ENDBRANCH  28  32
ENDBRANCH  25  29
ENDBRANCH  23  25
ENDBRANCH  22  23
ENDBRANCH   1  22
TORSDOF 11
ENDMDL
MODEL 6
REMARK VINA RESULT:      -7.1      2.489      7.911
REMARK  Name = 
REMARK  13 active torsions:
REMARK  status: ('A' for Active; 'I' for Inactive)
REMARK    1  A    between atoms: C_1  and  C_2
REMARK    2  A    between atoms: C_2  and  C_3
REMARK    3  A    between atoms: C_3  and  C_5
REMARK    4  A    between atoms: C_3  and  C_6
REMARK    5  A    between atoms: C_6  and  N_8
REMARK    6  A    between atoms: C_6  and  C_9
REMARK    7  A    between atoms: N_11  and  S_12
REMARK    8  A    between atoms: S_12  and  N_15
REMARK    9  A    between atoms: N_15  and  C_16
REMARK   10  A    between atoms: C_16  and  C_17
REMARK   11  A    between atoms: C_20  and  N_28
REMARK   12  A    between atoms: C_22  and  O_24
REMARK   13  A    between atoms: C_25  and  O_27
REMARK                            x       y       z     vdW  Elec       q    Type
REMARK                         _______ _______ _______ _____ _____    ______ ____
ROOT
ATOM      1  C   UNL     1       8.386  -4.244  23.959  0.00  0.00    +0.167 C 
ATOM      2  C   UNL     1       8.885  -4.738  25.318  0.00  0.00    +0.177 C 
ATOM      3  C   UNL     1       7.631  -5.160  26.080  0.00  0.00    +0.195 C 
ATOM      4  C   UNL     1       6.471  -4.843  25.128  0.00  0.00    +0.253 C 
ATOM      5  O   UNL     1       7.053  -4.781  23.811  0.00  0.00    -0.347 OA
ENDROOT
BRANCH   4   6
ATOM      6  N   UNL     1       5.394  -5.818  25.137  0.00  0.00    -0.286 N 
ATOM      7  C   UNL     1       4.439  -5.969  26.111  0.00  0.00    +0.167 A 
ATOM      8  N   UNL     1       4.321  -5.282  27.264  0.00  0.00    -0.216 NA
ATOM      9  C   UNL     1       3.284  -5.752  27.994  0.00  0.00    +0.225 A 
ATOM     10  N   UNL     1       2.426  -6.750  27.691  0.00  0.00    -0.219 NA
ATOM     11  C   UNL     1       2.589  -7.406  26.520  0.00  0.00    +0.147 A 
ATOM     12  N   UNL     1       1.715  -8.443  26.225  0.00  0.00    -0.341 N 
ATOM     13  H   UNL     1       1.658  -8.665  25.238  0.00  0.00    +0.144 HD
ATOM     14  H   UNL     1       0.853  -8.390  26.751  0.00  0.00    +0.144 HD
ATOM     15  C   UNL     1       3.633  -7.006  25.668  0.00  0.00    +0.147 A 
ATOM     16  N   UNL     1       4.040  -7.442  24.424  0.00  0.00    -0.231 NA
ATOM     17  C   UNL     1       5.089  -6.702  24.133  0.00  0.00    +0.203 A 
ENDBRANCH   4   6
BRANCH   2  18
ATOM     18  O   UNL     1       9.749  -5.872  25.138  0.00  0.00    -0.386 OA
ATOM     19  H   UNL     1       9.204  -6.660  24.963  0.00  0.00    +0.210 HD
ENDBRANCH   2  18
BRANCH   3  20
ATOM     20  O   UNL     1       7.505  -4.429  27.302  0.00  0.00    -0.385 OA
ATOM     21  H   UNL     1       6.650  -3.952  27.241  0.00  0.00    +0.210 HD
ENDBRANCH   3  20
BRANCH   1  22
ATOM     22  C   UNL     1       8.383  -2.702  23.894  0.00  0.00    +0.141 C 
BRANCH  22  23
ATOM     23  N   UNL     1       9.165  -2.131  25.025  0.00  0.00    -0.175 NA
ATOM     24  H   UNL     1       9.536  -2.878  25.624  0.00  0.00    +0.149 HD
BRANCH  23  25
ATOM     25  S   UNL     1       8.273  -1.111  26.025  0.00  0.00    +0.111 S 
ATOM     26  O   UNL     1       6.941  -1.648  26.139  0.00  0.00    -0.138 OA
ATOM     27  O   UNL     1       9.079  -0.826  27.186  0.00  0.00    -0.138 OA
BRANCH  25  29
ATOM     28  C   UNL     1       9.300   1.002  24.707  0.00  0.00    +0.250 C 
ATOM     29  N   UNL     1       8.195   0.227  25.084  0.00  0.00    -0.174 N 
ATOM     30  H   UNL     1       7.263   0.588  24.887  0.00  0.00    +0.178 HD
ATOM     31  O   UNL     1      10.452   0.672  24.966  0.00  0.00    -0.272 OA
BRANCH  28  32
ATOM     32  C   UNL     1       8.960   2.259  23.872  0.00  0.00    +0.142 C 
BRANCH  32  33
ATOM     33  N   UNL     1       9.891   3.368  24.213  0.00  0.00    -0.320 NA
ATOM     34  H   UNL     1      10.750   2.962  24.589  0.00  0.00    +0.119 HD
ATOM     35  H   UNL     1      10.176   3.828  23.343  0.00  0.00    +0.119 HD
ENDBRANCH  32  33
BRANCH  32  36
ATOM     36  C   UNL     1       8.902   2.017  22.340  0.00  0.00    +0.011 C 
ATOM     37  C   UNL     1       7.478   1.660  21.890  0.00  0.00    +0.009 C 
BRANCH  36  39
ATOM     38  C   UNL     1       9.281  -0.284  21.275  0.00  0.00    +0.004 C 
ATOM     39  C   UNL     1       9.929   0.981  21.832  0.00  0.00    +0.002 C 
ENDBRANCH  36  39
ENDBRANCH  32  36
ENDBRANCH  28  32
ENDBRANCH  25  29
ENDBRANCH  23  25
ENDBRANCH  22  23
ENDBRANCH   1  22
TORSDOF 11
ENDMDL
MODEL 7
REMARK VINA RESULT:      -7.1      2.988      8.539
REMARK  Name = 
REMARK  13 active torsions:
REMARK  status: ('A' for Active; 'I' for Inactive)
REMARK    1  A    between atoms: C_1  and  C_2
REMARK    2  A    between atoms: C_2  and  C_3
REMARK    3  A    between atoms: C_3  and  C_5
REMARK    4  A    between atoms: C_3  and  C_6
REMARK    5  A    between atoms: C_6  and  N_8
REMARK    6  A    between atoms: C_6  and  C_9
REMARK    7  A    between atoms: N_11  and  S_12
REMARK    8  A    between atoms: S_12  and  N_15
REMARK    9  A    between atoms: N_15  and  C_16
REMARK   10  A    between atoms: C_16  and  C_17
REMARK   11  A    between atoms: C_20  and  N_28
REMARK   12  A    between atoms: C_22  and  O_24
REMARK   13  A    between atoms: C_25  and  O_27
REMARK                            x       y       z     vdW  Elec       q    Type
REMARK                         _______ _______ _______ _____ _____    ______ ____
ROOT
ATOM      1  C   UNL     1       9.079  -3.591  24.577  0.00  0.00    +0.167 C 
ATOM      2  C   UNL     1       9.311  -4.606  25.699  0.00  0.00    +0.177 C 
ATOM      3  C   UNL     1       7.942  -5.228  25.969  0.00  0.00    +0.195 C 
ATOM      4  C   UNL     1       6.988  -4.502  25.013  0.00  0.00    +0.253 C 
ATOM      5  O   UNL     1       7.820  -3.957  23.971  0.00  0.00    -0.347 OA
ENDROOT
BRANCH   4   6
ATOM      6  N   UNL     1       5.961  -5.345  24.424  0.00  0.00    -0.286 N 
ATOM      7  C   UNL     1       4.924  -5.950  25.088  0.00  0.00    +0.167 A 
ATOM      8  N   UNL     1       4.660  -5.922  26.408  0.00  0.00    -0.216 NA
ATOM      9  C   UNL     1       3.580  -6.683  26.695  0.00  0.00    +0.225 A 
ATOM     10  N   UNL     1       2.803  -7.392  25.850  0.00  0.00    -0.219 NA
ATOM     11  C   UNL     1       3.110  -7.385  24.532  0.00  0.00    +0.147 A 
ATOM     12  N   UNL     1       2.319  -8.133  23.672  0.00  0.00    -0.341 N 
ATOM     13  H   UNL     1       2.369  -7.837  22.705  0.00  0.00    +0.144 HD
ATOM     14  H   UNL     1       1.408  -8.339  24.060  0.00  0.00    +0.144 HD
ATOM     15  C   UNL     1       4.214  -6.625  24.106  0.00  0.00    +0.147 A 
ATOM     16  N   UNL     1       4.760  -6.392  22.862  0.00  0.00    -0.231 NA
ATOM     17  C   UNL     1       5.798  -5.614  23.089  0.00  0.00    +0.203 A 
ENDBRANCH   4   6
BRANCH   2  18
ATOM     18  O   UNL     1      10.227  -5.621  25.258  0.00  0.00    -0.386 OA
ATOM     19  H   UNL     1      10.953  -5.199  24.766  0.00  0.00    +0.210 HD
ENDBRANCH   2  18
BRANCH   3  20
ATOM     20  O   UNL     1       7.552  -5.032  27.330  0.00  0.00    -0.385 OA
ATOM     21  H   UNL     1       7.524  -5.926  27.732  0.00  0.00    +0.210 HD
ENDBRANCH   3  20
BRANCH   1  22
ATOM     22  C   UNL     1       9.042  -2.150  25.128  0.00  0.00    +0.141 C 
BRANCH  22  23
ATOM     23  N   UNL     1       9.968  -1.274  24.360  0.00  0.00    -0.175 NA
ATOM     24  H   UNL     1      10.247  -0.460  24.919  0.00  0.00    +0.149 HD
BRANCH  23  25
ATOM     25  S   UNL     1       9.310  -0.673  22.931  0.00  0.00    +0.111 S 
ATOM     26  O   UNL     1       9.967  -1.325  21.827  0.00  0.00    -0.138 OA
ATOM     27  O   UNL     1       7.875  -0.682  23.074  0.00  0.00    -0.138 OA
BRANCH  25  29
ATOM     28  C   UNL     1       9.610   1.758  24.052  0.00  0.00    +0.250 C 
ATOM     29  N   UNL     1       9.845   0.873  22.990  0.00  0.00    -0.174 N 
ATOM     30  H   UNL     1      10.249   1.246  22.132  0.00  0.00    +0.178 HD
ATOM     31  O   UNL     1       9.067   1.406  25.092  0.00  0.00    -0.272 OA
BRANCH  28  32
ATOM     32  C   UNL     1      10.160   3.189  23.841  0.00  0.00    +0.142 C 
BRANCH  32  33
ATOM     33  N   UNL     1      10.914   3.266  22.561  0.00  0.00    -0.320 NA
ATOM     34  H   UNL     1      10.444   2.670  21.876  0.00  0.00    +0.119 HD
ATOM     35  H   UNL     1      10.823   4.216  22.190  0.00  0.00    +0.119 HD
ENDBRANCH  32  33
BRANCH  32  36
ATOM     36  C   UNL     1       9.091   4.309  23.939  0.00  0.00    +0.011 C 
ATOM     37  C   UNL     1       7.910   4.032  22.997  0.00  0.00    +0.009 C 
BRANCH  36  39
ATOM     38  C   UNL     1       9.554   6.608  24.974  0.00  0.00    +0.004 C 
ATOM     39  C   UNL     1       9.656   5.731  23.729  0.00  0.00    +0.002 C 
ENDBRANCH  36  39
ENDBRANCH  32  36
ENDBRANCH  28  32
ENDBRANCH  25  29
ENDBRANCH  23  25
ENDBRANCH  22  23
ENDBRANCH   1  22
TORSDOF 11
ENDMDL
MODEL 8
REMARK VINA RESULT:      -7.0      4.252      8.911
REMARK  Name = 
REMARK  13 active torsions:
REMARK  status: ('A' for Active; 'I' for Inactive)
REMARK    1  A    between atoms: C_1  and  C_2
REMARK    2  A    between atoms: C_2  and  C_3
REMARK    3  A    between atoms: C_3  and  C_5
REMARK    4  A    between atoms: C_3  and  C_6
REMARK    5  A    between atoms: C_6  and  N_8
REMARK    6  A    between atoms: C_6  and  C_9
REMARK    7  A    between atoms: N_11  and  S_12
REMARK    8  A    between atoms: S_12  and  N_15
REMARK    9  A    between atoms: N_15  and  C_16
REMARK   10  A    between atoms: C_16  and  C_17
REMARK   11  A    between atoms: C_20  and  N_28
REMARK   12  A    between atoms: C_22  and  O_24
REMARK   13  A    between atoms: C_25  and  O_27
REMARK                            x       y       z     vdW  Elec       q    Type
REMARK                         _______ _______ _______ _____ _____    ______ ____
ROOT
ATOM      1  C   UNL     1       8.997  -0.189  21.723  0.00  0.00    +0.167 C 
ATOM      2  C   UNL     1      10.207  -0.628  22.550  0.00  0.00    +0.177 C 
ATOM      3  C   UNL     1       9.629  -1.154  23.863  0.00  0.00    +0.195 C 
ATOM      4  C   UNL     1       8.115  -0.946  23.734  0.00  0.00    +0.253 C 
ATOM      5  O   UNL     1       7.855  -0.842  22.320  0.00  0.00    -0.347 OA
ENDROOT
BRANCH   4   6
ATOM      6  N   UNL     1       7.306  -2.012  24.299  0.00  0.00    -0.286 N 
ATOM      7  C   UNL     1       7.111  -3.260  23.764  0.00  0.00    +0.167 A 
ATOM      8  N   UNL     1       7.591  -3.744  22.602  0.00  0.00    -0.216 NA
ATOM      9  C   UNL     1       7.140  -5.000  22.386  0.00  0.00    +0.225 A 
ATOM     10  N   UNL     1       6.335  -5.751  23.168  0.00  0.00    -0.219 NA
ATOM     11  C   UNL     1       5.882  -5.217  24.325  0.00  0.00    +0.147 A 
ATOM     12  N   UNL     1       5.039  -5.987  25.114  0.00  0.00    -0.341 N 
ATOM     13  H   UNL     1       5.006  -5.699  26.084  0.00  0.00    +0.144 HD
ATOM     14  H   UNL     1       5.111  -6.976  24.913  0.00  0.00    +0.144 HD
ATOM     15  C   UNL     1       6.286  -3.914  24.666  0.00  0.00    +0.147 A 
ATOM     16  N   UNL     1       6.028  -3.115  25.759  0.00  0.00    -0.231 NA
ATOM     17  C   UNL     1       6.663  -1.988  25.512  0.00  0.00    +0.203 A 
ENDBRANCH   4   6
BRANCH   2  18
ATOM     18  O   UNL     1      10.906  -1.683  21.870  0.00  0.00    -0.386 OA
ATOM     19  H   UNL     1      10.536  -1.782  20.975  0.00  0.00    +0.210 HD
ENDBRANCH   2  18
BRANCH   3  20
ATOM     20  O   UNL     1      10.153  -0.429  24.978  0.00  0.00    -0.385 OA
ATOM     21  H   UNL     1       9.840   0.494  24.866  0.00  0.00    +0.210 HD
ENDBRANCH   3  20
BRANCH   1  22
ATOM     22  C   UNL     1       8.840   1.347  21.738  0.00  0.00    +0.141 C 
BRANCH  22  23
ATOM     23  N   UNL     1      10.161   2.003  21.940  0.00  0.00    -0.175 NA
ATOM     24  H   UNL     1      10.896   1.303  22.087  0.00  0.00    +0.149 HD
BRANCH  23  25
ATOM     25  S   UNL     1      10.212   3.040  23.265  0.00  0.00    +0.111 S 
ATOM     26  O   UNL     1       9.768   2.308  24.424  0.00  0.00    -0.138 OA
ATOM     27  O   UNL     1      11.483   3.721  23.237  0.00  0.00    -0.138 OA
BRANCH  25  29
ATOM     28  C   UNL     1       8.702   5.248  23.587  0.00  0.00    +0.250 C 
ATOM     29  N   UNL     1       9.029   4.097  22.857  0.00  0.00    -0.174 N 
ATOM     30  H   UNL     1       8.406   3.811  22.104  0.00  0.00    +0.178 HD
ATOM     31  O   UNL     1       9.361   5.624  24.549  0.00  0.00    -0.272 OA
BRANCH  28  32
ATOM     32  C   UNL     1       7.499   6.049  23.036  0.00  0.00    +0.142 C 
BRANCH  32  33
ATOM     33  N   UNL     1       7.532   6.067  21.549  0.00  0.00    -0.320 NA
ATOM     34  H   UNL     1       7.035   5.242  21.207  0.00  0.00    +0.119 HD
ATOM     35  H   UNL     1       6.976   6.864  21.224  0.00  0.00    +0.119 HD
ENDBRANCH  32  33
BRANCH  32  36
ATOM     36  C   UNL     1       6.118   5.582  23.568  0.00  0.00    +0.011 C 
ATOM     37  C   UNL     1       6.224   5.073  25.013  0.00  0.00    +0.009 C 
BRANCH  36  39
ATOM     38  C   UNL     1       5.606   3.109  23.125  0.00  0.00    +0.004 C 
ATOM     39  C   UNL     1       5.416   4.550  22.658  0.00  0.00    +0.002 C 
ENDBRANCH  36  39
ENDBRANCH  32  36
ENDBRANCH  28  32
ENDBRANCH  25  29
ENDBRANCH  23  25
ENDBRANCH  22  23
ENDBRANCH   1  22
TORSDOF 11
ENDMDL
MODEL 9
REMARK VINA RESULT:      -6.9      2.981      8.445
REMARK  Name = 
REMARK  13 active torsions:
REMARK  status: ('A' for Active; 'I' for Inactive)
REMARK    1  A    between atoms: C_1  and  C_2
REMARK    2  A    between atoms: C_2  and  C_3
REMARK    3  A    between atoms: C_3  and  C_5
REMARK    4  A    between atoms: C_3  and  C_6
REMARK    5  A    between atoms: C_6  and  N_8
REMARK    6  A    between atoms: C_6  and  C_9
REMARK    7  A    between atoms: N_11  and  S_12
REMARK    8  A    between atoms: S_12  and  N_15
REMARK    9  A    between atoms: N_15  and  C_16
REMARK   10  A    between atoms: C_16  and  C_17
REMARK   11  A    between atoms: C_20  and  N_28
REMARK   12  A    between atoms: C_22  and  O_24
REMARK   13  A    between atoms: C_25  and  O_27
REMARK                            x       y       z     vdW  Elec       q    Type
REMARK                         _______ _______ _______ _____ _____    ______ ____
ROOT
ATOM      1  C   UNL     1       5.933  -2.672  22.796  0.00  0.00    +0.167 C 
ATOM      2  C   UNL     1       6.592  -3.746  21.927  0.00  0.00    +0.177 C 
ATOM      3  C   UNL     1       6.678  -4.986  22.814  0.00  0.00    +0.195 C 
ATOM      4  C   UNL     1       6.101  -4.541  24.163  0.00  0.00    +0.253 C 
ATOM      5  O   UNL     1       5.294  -3.382  23.880  0.00  0.00    -0.347 OA
ENDROOT
BRANCH   4   6
ATOM      6  N   UNL     1       5.293  -5.542  24.838  0.00  0.00    -0.286 N 
ATOM      7  C   UNL     1       4.165  -6.148  24.344  0.00  0.00    +0.167 A 
ATOM      8  N   UNL     1       3.556  -5.921  23.164  0.00  0.00    -0.216 NA
ATOM      9  C   UNL     1       2.438  -6.673  23.053  0.00  0.00    +0.225 A 
ATOM     10  N   UNL     1       1.930  -7.561  23.934  0.00  0.00    -0.219 NA
ATOM     11  C   UNL     1       2.582  -7.751  25.103  0.00  0.00    +0.147 A 
ATOM     12  N   UNL     1       2.043  -8.651  26.012  0.00  0.00    -0.341 N 
ATOM     13  H   UNL     1       2.711  -9.004  26.687  0.00  0.00    +0.144 HD
ATOM     14  H   UNL     1       1.409  -9.310  25.581  0.00  0.00    +0.144 HD
ATOM     15  C   UNL     1       3.765  -7.029  25.337  0.00  0.00    +0.147 A 
ATOM     16  N   UNL     1       4.656  -7.015  26.389  0.00  0.00    -0.231 NA
ATOM     17  C   UNL     1       5.563  -6.122  26.052  0.00  0.00    +0.203 A 
ENDBRANCH   4   6
BRANCH   2  18
ATOM     18  O   UNL     1       5.767  -4.022  20.784  0.00  0.00    -0.386 OA
ATOM     19  H   UNL     1       4.957  -4.473  21.080  0.00  0.00    +0.210 HD
ENDBRANCH   2  18
BRANCH   3  20
ATOM     20  O   UNL     1       8.033  -5.420  22.954  0.00  0.00    -0.385 OA
ATOM     21  H   UNL     1       8.335  -5.077  23.822  0.00  0.00    +0.210 HD
ENDBRANCH   3  20
BRANCH   1  22
ATOM     22  C   UNL     1       6.977  -1.662  23.320  0.00  0.00    +0.141 C 
BRANCH  22  23
ATOM     23  N   UNL     1       8.176  -1.648  22.439  0.00  0.00    -0.175 NA
ATOM     24  H   UNL     1       8.177  -2.462  21.812  0.00  0.00    +0.149 HD
BRANCH  23  25
ATOM     25  S   UNL     1       9.637  -1.685  23.275  0.00  0.00    +0.111 S 
ATOM     26  O   UNL     1       9.478  -2.549  24.417  0.00  0.00    -0.138 OA
ATOM     27  O   UNL     1      10.688  -1.890  22.308  0.00  0.00    -0.138 OA
BRANCH  25  29
ATOM     28  C   UNL     1       9.634   0.995  23.003  0.00  0.00    +0.250 C 
ATOM     29  N   UNL     1       9.703  -0.142  23.820  0.00  0.00    -0.174 N 
ATOM     30  H   UNL     1       9.953  -0.017  24.799  0.00  0.00    +0.178 HD
ATOM     31  O   UNL     1       9.404   0.927  21.801  0.00  0.00    -0.272 OA
BRANCH  28  32
ATOM     32  C   UNL     1       9.788   2.342  23.747  0.00  0.00    +0.142 C 
BRANCH  32  33
ATOM     33  N   UNL     1      10.799   3.193  23.063  0.00  0.00    -0.320 NA
ATOM     34  H   UNL     1      11.613   3.280  23.676  0.00  0.00    +0.119 HD
ATOM     35  H   UNL     1      11.143   2.688  22.241  0.00  0.00    +0.119 HD
ENDBRANCH  32  33
BRANCH  32  36
ATOM     36  C   UNL     1       8.458   3.109  23.971  0.00  0.00    +0.011 C 
ATOM     37  C   UNL     1       7.361   2.174  24.499  0.00  0.00    +0.009 C 
BRANCH  36  39
ATOM     38  C   UNL     1       6.599   3.465  22.243  0.00  0.00    +0.004 C 
ATOM     39  C   UNL     1       7.978   3.899  22.733  0.00  0.00    +0.002 C 
ENDBRANCH  36  39
ENDBRANCH  32  36
ENDBRANCH  28  32
ENDBRANCH  25  29
ENDBRANCH  23  25
ENDBRANCH  22  23
ENDBRANCH   1  22
TORSDOF 11
ENDMDL
