MODEL 1
REMARK VINA RESULT:      -7.7      0.000      0.000
REMARK  Name = 
REMARK  10 active torsions:
REMARK  status: ('A' for Active; 'I' for Inactive)
REMARK    1  A    between atoms: C_2  and  C_3
REMARK    2  A    between atoms: C_2  and  N_19
REMARK    3  A    between atoms: C_2  and  C_35
REMARK    4  A    between atoms: C_3  and  C_4
REMARK    5  A    between atoms: C_7  and  C_10
REMARK    6  A    between atoms: C_20  and  C_22
REMARK    7  A    between atoms: C_22  and  C_24
REMARK    8  A    between atoms: C_22  and  N_31
REMARK    9  A    between atoms: C_24  and  C_25
REMARK   10  A    between atoms: C_32  and  C_33
REMARK                            x       y       z     vdW  Elec       q    Type
REMARK                         _______ _______ _______ _____ _____    ______ ____
ROOT
ATOM      1  C   UNL     1       6.427   1.715  23.408  0.00  0.00    +0.163 C 
ENDROOT
BRANCH   1   2
ATOM      2  C   UNL     1       5.644   3.001  23.082  0.00  0.00    +0.231 C 
ATOM      3  O   UNL     1       4.737   3.417  23.801  0.00  0.00    -0.274 OA
ATOM      4  N   UNL     1       5.891   3.580  21.872  0.00  0.00    -0.328 N 
ATOM      5  H   UNL     1       5.267   4.326  21.597  0.00  0.00    +0.145 HD
ATOM      6  H   UNL     1       6.252   2.991  21.124  0.00  0.00    +0.145 HD
ENDBRANCH   1   2
BRANCH   1   7
ATOM      7  N   UNL     1       7.833   2.065  23.643  0.00  0.00    -0.302 N 
ATOM      8  H   UNL     1       8.142   2.107  24.608  0.00  0.00    +0.150 HD
ATOM      9  C   UNL     1       8.760   2.070  22.629  0.00  0.00    +0.234 C 
ATOM     10  O   UNL     1       8.463   1.711  21.484  0.00  0.00    -0.274 OA
BRANCH   9  11
ATOM     11  C   UNL     1      10.209   2.477  22.981  0.00  0.00    +0.163 C 
BRANCH  11  12
ATOM     12  N   UNL     1      10.095   3.883  23.395  0.00  0.00    -0.304 N 
ATOM     13  H   UNL     1       9.145   4.227  23.515  0.00  0.00    +0.149 HD
ATOM     14  C   UNL     1      11.143   4.752  23.477  0.00  0.00    +0.211 C 
ATOM     15  O   UNL     1      12.300   4.439  23.219  0.00  0.00    -0.276 OA
ATOM     16  C   UNL     1      10.767   6.124  23.972  0.00  0.00    +0.109 C 
ENDBRANCH  11  12
BRANCH  11  17
ATOM     17  C   UNL     1      10.891   1.572  24.030  0.00  0.00    +0.067 C 
BRANCH  17  18
ATOM     18  C   UNL     1      10.374   0.150  24.041  0.00  0.00    -0.045 A 
ATOM     19  C   UNL     1      10.566  -0.671  22.922  0.00  0.00    +0.004 A 
ATOM     20  C   UNL     1      10.247  -2.026  22.972  0.00  0.00    +0.000 A 
ATOM     21  C   UNL     1       9.699  -2.566  24.132  0.00  0.00    +0.000 A 
ATOM     22  C   UNL     1       9.436  -1.745  25.227  0.00  0.00    +0.000 A 
ATOM     23  C   UNL     1       9.766  -0.390  25.181  0.00  0.00    +0.004 A 
ENDBRANCH  17  18
ENDBRANCH  11  17
ENDBRANCH   9  11
ENDBRANCH   1   7
BRANCH   1  24
ATOM     24  C   UNL     1       5.823   0.825  24.519  0.00  0.00    +0.067 C 
BRANCH  24  25
ATOM     25  C   UNL     1       5.955  -0.671  24.337  0.00  0.00    -0.045 A 
ATOM     26  C   UNL     1       5.718  -1.522  25.425  0.00  0.00    +0.004 A 
ATOM     27  C   UNL     1       5.834  -2.909  25.291  0.00  0.00    +0.006 A 
ATOM     28  C   UNL     1       6.197  -3.478  24.064  0.00  0.00    -0.021 A 
ATOM     29  C   UNL     1       6.443  -2.616  22.986  0.00  0.00    +0.006 A 
ATOM     30  C   UNL     1       6.334  -1.233  23.120  0.00  0.00    +0.004 A 
BRANCH  28  31
ATOM     31  C   UNL     1       6.367  -4.983  23.964  0.00  0.00    +0.190 C 
ATOM     32  S   UNL     1       4.781  -5.831  23.919  0.00  0.00    +0.053 S 
ATOM     33  O   UNL     1       3.667  -4.988  24.282  0.00  0.00    -0.155 OA
ATOM     34  O   UNL     1       4.946  -7.166  24.456  0.00  0.00    -0.155 OA
ATOM     35  N   UNL     1       4.760  -5.978  22.238  0.00  0.00    -0.189 N 
ATOM     36  H   UNL     1       3.904  -5.676  21.775  0.00  0.00    +0.176 HD
ATOM     37  C   UNL     1       5.972  -5.575  21.652  0.00  0.00    +0.234 C 
ATOM     38  O   UNL     1       6.069  -5.306  20.468  0.00  0.00    -0.274 OA
ATOM     39  C   UNL     1       7.071  -5.432  22.675  0.00  0.00    +0.130 C 
ENDBRANCH  28  31
ENDBRANCH  24  25
ENDBRANCH   1  24
TORSDOF 9
ENDMDL
MODEL 2
REMARK VINA RESULT:      -7.4      2.123      3.116
REMARK  Name = 
REMARK  10 active torsions:
REMARK  status: ('A' for Active; 'I' for Inactive)
REMARK    1  A    between atoms: C_2  and  C_3
REMARK    2  A    between atoms: C_2  and  N_19
REMARK    3  A    between atoms: C_2  and  C_35
REMARK    4  A    between atoms: C_3  and  C_4
REMARK    5  A    between atoms: C_7  and  C_10
REMARK    6  A    between atoms: C_20  and  C_22
REMARK    7  A    between atoms: C_22  and  C_24
REMARK    8  A    between atoms: C_22  and  N_31
REMARK    9  A    between atoms: C_24  and  C_25
REMARK   10  A    between atoms: C_32  and  C_33
REMARK                            x       y       z     vdW  Elec       q    Type
REMARK                         _______ _______ _______ _____ _____    ______ ____
ROOT
ATOM      1  C   UNL     1       7.297   0.974  26.425  0.00  0.00    +0.163 C 
ENDROOT
BRANCH   1   2
ATOM      2  C   UNL     1       6.934   1.621  27.775  0.00  0.00    +0.231 C 
ATOM      3  O   UNL     1       6.172   2.583  27.857  0.00  0.00    -0.274 OA
ATOM      4  N   UNL     1       7.618   1.182  28.870  0.00  0.00    -0.328 N 
ATOM      5  H   UNL     1       7.492   1.714  29.721  0.00  0.00    +0.145 HD
ATOM      6  H   UNL     1       8.537   0.767  28.726  0.00  0.00    +0.145 HD
ENDBRANCH   1   2
BRANCH   1   7
ATOM      7  N   UNL     1       8.257   1.840  25.730  0.00  0.00    -0.302 N 
ATOM      8  H   UNL     1       9.229   1.767  26.011  0.00  0.00    +0.150 HD
ATOM      9  C   UNL     1       7.928   2.514  24.579  0.00  0.00    +0.234 C 
ATOM     10  O   UNL     1       6.827   2.365  24.039  0.00  0.00    -0.274 OA
BRANCH   9  11
ATOM     11  C   UNL     1       9.007   3.417  23.941  0.00  0.00    +0.163 C 
BRANCH  11  12
ATOM     12  N   UNL     1       9.119   4.552  24.869  0.00  0.00    -0.304 N 
ATOM     13  H   UNL     1       8.783   4.377  25.813  0.00  0.00    +0.149 HD
ATOM     14  C   UNL     1       9.493   5.813  24.508  0.00  0.00    +0.211 C 
ATOM     15  O   UNL     1       9.786   6.126  23.359  0.00  0.00    -0.276 OA
ATOM     16  C   UNL     1       9.574   6.783  25.656  0.00  0.00    +0.109 C 
ENDBRANCH  11  12
BRANCH  11  17
ATOM     17  C   UNL     1      10.351   2.709  23.659  0.00  0.00    +0.067 C 
BRANCH  17  18
ATOM     18  C   UNL     1      10.201   1.346  23.020  0.00  0.00    -0.045 A 
ATOM     19  C   UNL     1      10.611   0.200  23.715  0.00  0.00    +0.004 A 
ATOM     20  C   UNL     1      10.332  -1.071  23.217  0.00  0.00    +0.000 A 
ATOM     21  C   UNL     1       9.671  -1.208  22.000  0.00  0.00    +0.000 A 
ATOM     22  C   UNL     1       9.322  -0.077  21.264  0.00  0.00    +0.000 A 
ATOM     23  C   UNL     1       9.592   1.197  21.768  0.00  0.00    +0.004 A 
ENDBRANCH  17  18
ENDBRANCH  11  17
ENDBRANCH   9  11
ENDBRANCH   1   7
BRANCH   1  24
ATOM     24  C   UNL     1       7.739  -0.506  26.487  0.00  0.00    +0.067 C 
BRANCH  24  25
ATOM     25  C   UNL     1       7.092  -1.450  25.498  0.00  0.00    -0.045 A 
ATOM     26  C   UNL     1       6.813  -1.005  24.199  0.00  0.00    +0.004 A 
ATOM     27  C   UNL     1       6.214  -1.852  23.262  0.00  0.00    +0.006 A 
ATOM     28  C   UNL     1       5.872  -3.166  23.605  0.00  0.00    -0.021 A 
ATOM     29  C   UNL     1       6.145  -3.597  24.912  0.00  0.00    +0.006 A 
ATOM     30  C   UNL     1       6.737  -2.751  25.848  0.00  0.00    +0.004 A 
BRANCH  28  31
ATOM     31  C   UNL     1       5.174  -4.043  22.583  0.00  0.00    +0.190 C 
ATOM     32  S   UNL     1       6.321  -5.174  21.781  0.00  0.00    +0.053 S 
ATOM     33  O   UNL     1       7.707  -4.851  22.018  0.00  0.00    -0.155 OA
ATOM     34  O   UNL     1       5.818  -5.497  20.462  0.00  0.00    -0.155 OA
ATOM     35  N   UNL     1       5.939  -6.477  22.783  0.00  0.00    -0.189 N 
ATOM     36  H   UNL     1       6.731  -6.964  23.202  0.00  0.00    +0.176 HD
ATOM     37  C   UNL     1       4.849  -6.202  23.626  0.00  0.00    +0.234 C 
ATOM     38  O   UNL     1       4.608  -6.861  24.621  0.00  0.00    -0.274 OA
ATOM     39  C   UNL     1       4.106  -4.961  23.196  0.00  0.00    +0.130 C 
ENDBRANCH  28  31
ENDBRANCH  24  25
ENDBRANCH   1  24
TORSDOF 9
ENDMDL
MODEL 3
REMARK VINA RESULT:      -7.3      1.962      2.535
REMARK  Name = 
REMARK  10 active torsions:
REMARK  status: ('A' for Active; 'I' for Inactive)
REMARK    1  A    between atoms: C_2  and  C_3
REMARK    2  A    between atoms: C_2  and  N_19
REMARK    3  A    between atoms: C_2  and  C_35
REMARK    4  A    between atoms: C_3  and  C_4
REMARK    5  A    between atoms: C_7  and  C_10
REMARK    6  A    between atoms: C_20  and  C_22
REMARK    7  A    between atoms: C_22  and  C_24
REMARK    8  A    between atoms: C_22  and  N_31
REMARK    9  A    between atoms: C_24  and  C_25
REMARK   10  A    between atoms: C_32  and  C_33
REMARK                            x       y       z     vdW  Elec       q    Type
REMARK                         _______ _______ _______ _____ _____    ______ ____
ROOT
ATOM      1  C   UNL     1       7.283   1.416  26.079  0.00  0.00    +0.163 C 
ENDROOT
BRANCH   1   2
ATOM      2  C   UNL     1       6.808   2.509  27.054  0.00  0.00    +0.231 C 
ATOM      3  O   UNL     1       6.172   3.492  26.678  0.00  0.00    -0.274 OA
ATOM      4  N   UNL     1       7.259   2.425  28.339  0.00  0.00    -0.328 N 
ATOM      5  H   UNL     1       7.076   3.224  28.931  0.00  0.00    +0.145 HD
ATOM      6  H   UNL     1       8.129   1.924  28.509  0.00  0.00    +0.145 HD
ENDBRANCH   1   2
BRANCH   1   7
ATOM      7  N   UNL     1       8.177   2.025  25.087  0.00  0.00    -0.302 N 
ATOM      8  H   UNL     1       9.162   2.076  25.324  0.00  0.00    +0.150 HD
ATOM      9  C   UNL     1       7.773   2.267  23.796  0.00  0.00    +0.234 C 
ATOM     10  O   UNL     1       6.658   1.916  23.395  0.00  0.00    -0.274 OA
BRANCH   9  11
ATOM     11  C   UNL     1       8.786   2.934  22.838  0.00  0.00    +0.163 C 
BRANCH  11  12
ATOM     12  N   UNL     1       8.885   4.316  23.328  0.00  0.00    -0.304 N 
ATOM     13  H   UNL     1       9.486   4.449  24.138  0.00  0.00    +0.149 HD
ATOM     14  C   UNL     1       8.132   5.355  22.868  0.00  0.00    +0.211 C 
ATOM     15  O   UNL     1       7.293   5.239  21.982  0.00  0.00    -0.276 OA
ATOM     16  C   UNL     1       8.459   6.681  23.503  0.00  0.00    +0.109 C 
ENDBRANCH  11  12
BRANCH  11  17
ATOM     17  C   UNL     1      10.146   2.208  22.738  0.00  0.00    +0.067 C 
BRANCH  17  18
ATOM     18  C   UNL     1      10.031   0.705  22.621  0.00  0.00    -0.045 A 
ATOM     19  C   UNL     1      10.519  -0.115  23.647  0.00  0.00    +0.004 A 
ATOM     20  C   UNL     1      10.275  -1.487  23.637  0.00  0.00    +0.000 A 
ATOM     21  C   UNL     1       9.572  -2.058  22.580  0.00  0.00    +0.000 A 
ATOM     22  C   UNL     1       9.144  -1.264  21.517  0.00  0.00    +0.000 A 
ATOM     23  C   UNL     1       9.378   0.112  21.533  0.00  0.00    +0.004 A 
ENDBRANCH  17  18
ENDBRANCH  11  17
ENDBRANCH   9  11
ENDBRANCH   1   7
BRANCH   1  24
ATOM     24  C   UNL     1       7.869   0.143  26.732  0.00  0.00    +0.067 C 
BRANCH  24  25
ATOM     25  C   UNL     1       7.566  -1.172  26.049  0.00  0.00    -0.045 A 
ATOM     26  C   UNL     1       8.165  -2.348  26.518  0.00  0.00    +0.004 A 
ATOM     27  C   UNL     1       7.908  -3.579  25.907  0.00  0.00    +0.006 A 
ATOM     28  C   UNL     1       7.048  -3.662  24.805  0.00  0.00    -0.021 A 
ATOM     29  C   UNL     1       6.465  -2.476  24.336  0.00  0.00    +0.006 A 
ATOM     30  C   UNL     1       6.726  -1.248  24.941  0.00  0.00    +0.004 A 
BRANCH  28  31
ATOM     31  C   UNL     1       6.832  -5.003  24.130  0.00  0.00    +0.190 C 
ATOM     32  S   UNL     1       5.127  -5.558  24.282  0.00  0.00    +0.053 S 
ATOM     33  O   UNL     1       4.361  -4.806  25.247  0.00  0.00    -0.155 OA
ATOM     34  O   UNL     1       5.096  -7.005  24.230  0.00  0.00    -0.155 OA
ATOM     35  N   UNL     1       4.674  -5.004  22.754  0.00  0.00    -0.189 N 
ATOM     36  H   UNL     1       3.827  -4.436  22.718  0.00  0.00    +0.176 HD
ATOM     37  C   UNL     1       5.771  -4.549  22.003  0.00  0.00    +0.234 C 
ATOM     38  O   UNL     1       5.645  -3.835  21.025  0.00  0.00    -0.274 OA
ATOM     39  C   UNL     1       7.085  -4.972  22.615  0.00  0.00    +0.130 C 
ENDBRANCH  28  31
ENDBRANCH  24  25
ENDBRANCH   1  24
TORSDOF 9
ENDMDL
MODEL 4
REMARK VINA RESULT:      -7.1      2.271      2.662
REMARK  Name = 
REMARK  10 active torsions:
REMARK  status: ('A' for Active; 'I' for Inactive)
REMARK    1  A    between atoms: C_2  and  C_3
REMARK    2  A    between atoms: C_2  and  N_19
REMARK    3  A    between atoms: C_2  and  C_35
REMARK    4  A    between atoms: C_3  and  C_4
REMARK    5  A    between atoms: C_7  and  C_10
REMARK    6  A    between atoms: C_20  and  C_22
REMARK    7  A    between atoms: C_22  and  C_24
REMARK    8  A    between atoms: C_22  and  N_31
REMARK    9  A    between atoms: C_24  and  C_25
REMARK   10  A    between atoms: C_32  and  C_33
REMARK                            x       y       z     vdW  Elec       q    Type
REMARK                         _______ _______ _______ _____ _____    ______ ____
ROOT
ATOM      1  C   UNL     1       7.113   2.325  26.371  0.00  0.00    +0.163 C 
ENDROOT
BRANCH   1   2
ATOM      2  C   UNL     1       6.802   3.650  27.092  0.00  0.00    +0.231 C 
ATOM      3  O   UNL     1       7.295   3.936  28.182  0.00  0.00    -0.274 OA
ATOM      4  N   UNL     1       5.828   4.433  26.546  0.00  0.00    -0.328 N 
ATOM      5  H   UNL     1       5.518   5.218  27.103  0.00  0.00    +0.145 HD
ATOM      6  H   UNL     1       5.124   3.984  25.963  0.00  0.00    +0.145 HD
ENDBRANCH   1   2
BRANCH   1   7
ATOM      7  N   UNL     1       8.347   2.489  25.595  0.00  0.00    -0.302 N 
ATOM      8  H   UNL     1       9.162   1.976  25.912  0.00  0.00    +0.150 HD
ATOM      9  C   UNL     1       8.353   3.077  24.353  0.00  0.00    +0.234 C 
ATOM     10  O   UNL     1       7.303   3.432  23.804  0.00  0.00    -0.274 OA
BRANCH   9  11
ATOM     11  C   UNL     1       9.711   3.221  23.630  0.00  0.00    +0.163 C 
BRANCH  11  12
ATOM     12  N   UNL     1      10.231   4.513  24.101  0.00  0.00    -0.304 N 
ATOM     13  H   UNL     1       9.581   5.072  24.648  0.00  0.00    +0.149 HD
ATOM     14  C   UNL     1      11.434   5.042  23.735  0.00  0.00    +0.211 C 
ATOM     15  O   UNL     1      12.213   4.480  22.974  0.00  0.00    -0.276 OA
ATOM     16  C   UNL     1      11.754   6.357  24.395  0.00  0.00    +0.109 C 
ENDBRANCH  11  12
BRANCH  11  17
ATOM     17  C   UNL     1      10.682   2.040  23.850  0.00  0.00    +0.067 C 
BRANCH  17  18
ATOM     18  C   UNL     1      10.168   0.719  23.323  0.00  0.00    -0.045 A 
ATOM     19  C   UNL     1       9.765   0.610  21.985  0.00  0.00    +0.004 A 
ATOM     20  C   UNL     1       9.447  -0.631  21.438  0.00  0.00    +0.000 A 
ATOM     21  C   UNL     1       9.494  -1.772  22.234  0.00  0.00    +0.000 A 
ATOM     22  C   UNL     1       9.823  -1.667  23.585  0.00  0.00    +0.000 A 
ATOM     23  C   UNL     1      10.152  -0.425  24.130  0.00  0.00    +0.004 A 
ENDBRANCH  17  18
ENDBRANCH  11  17
ENDBRANCH   9  11
ENDBRANCH   1   7
BRANCH   1  24
ATOM     24  C   UNL     1       7.111   1.061  27.261  0.00  0.00    +0.067 C 
BRANCH  24  25
ATOM     25  C   UNL     1       6.819  -0.253  26.573  0.00  0.00    -0.045 A 
ATOM     26  C   UNL     1       5.632  -0.402  25.843  0.00  0.00    +0.004 A 
ATOM     27  C   UNL     1       5.331  -1.605  25.197  0.00  0.00    +0.006 A 
ATOM     28  C   UNL     1       6.210  -2.693  25.271  0.00  0.00    -0.021 A 
ATOM     29  C   UNL     1       7.388  -2.537  26.015  0.00  0.00    +0.006 A 
ATOM     30  C   UNL     1       7.686  -1.340  26.664  0.00  0.00    +0.004 A 
BRANCH  28  31
ATOM     31  C   UNL     1       5.830  -4.002  24.605  0.00  0.00    +0.190 C 
ATOM     32  S   UNL     1       5.914  -3.886  22.811  0.00  0.00    +0.053 S 
ATOM     33  O   UNL     1       6.026  -2.531  22.327  0.00  0.00    -0.155 OA
ATOM     34  O   UNL     1       4.988  -4.838  22.234  0.00  0.00    -0.155 OA
ATOM     35  N   UNL     1       7.451  -4.575  22.710  0.00  0.00    -0.189 N 
ATOM     36  H   UNL     1       8.133  -4.064  22.149  0.00  0.00    +0.176 HD
ATOM     37  C   UNL     1       7.897  -5.072  23.946  0.00  0.00    +0.234 C 
ATOM     38  O   UNL     1       9.068  -5.319  24.169  0.00  0.00    -0.274 OA
ATOM     39  C   UNL     1       6.776  -5.160  24.953  0.00  0.00    +0.130 C 
ENDBRANCH  28  31
ENDBRANCH  24  25
ENDBRANCH   1  24
TORSDOF 9
ENDMDL
MODEL 5
REMARK VINA RESULT:      -7.0      2.648      8.416
REMARK  Name = 
REMARK  10 active torsions:
REMARK  status: ('A' for Active; 'I' for Inactive)
REMARK    1  A    between atoms: C_2  and  C_3
REMARK    2  A    between atoms: C_2  and  N_19
REMARK    3  A    between atoms: C_2  and  C_35
REMARK    4  A    between atoms: C_3  and  C_4
REMARK    5  A    between atoms: C_7  and  C_10
REMARK    6  A    between atoms: C_20  and  C_22
REMARK    7  A    between atoms: C_22  and  C_24
REMARK    8  A    between atoms: C_22  and  N_31
REMARK    9  A    between atoms: C_24  and  C_25
REMARK   10  A    between atoms: C_32  and  C_33
REMARK                            x       y       z     vdW  Elec       q    Type
REMARK                         _______ _______ _______ _____ _____    ______ ____
ROOT
ATOM      1  C   UNL     1       6.510  -4.383  22.367  0.00  0.00    +0.163 C 
ENDROOT
BRANCH   1   2
ATOM      2  C   UNL     1       6.200  -5.560  21.422  0.00  0.00    +0.231 C 
ATOM      3  O   UNL     1       5.974  -5.397  20.224  0.00  0.00    -0.274 OA
ATOM      4  N   UNL     1       6.028  -6.783  22.001  0.00  0.00    -0.328 N 
ATOM      5  H   UNL     1       5.671  -7.516  21.402  0.00  0.00    +0.145 HD
ATOM      6  H   UNL     1       5.741  -6.814  22.977  0.00  0.00    +0.145 HD
ENDBRANCH   1   2
BRANCH   1   7
ATOM      7  N   UNL     1       6.100  -4.751  23.728  0.00  0.00    -0.302 N 
ATOM      8  H   UNL     1       6.768  -5.273  24.284  0.00  0.00    +0.150 HD
ATOM      9  C   UNL     1       4.998  -4.195  24.330  0.00  0.00    +0.234 C 
ATOM     10  O   UNL     1       4.341  -3.306  23.776  0.00  0.00    -0.274 OA
BRANCH   9  11
ATOM     11  C   UNL     1       4.641  -4.669  25.757  0.00  0.00    +0.163 C 
BRANCH  11  12
ATOM     12  N   UNL     1       4.213  -6.063  25.574  0.00  0.00    -0.304 N 
ATOM     13  H   UNL     1       4.963  -6.749  25.541  0.00  0.00    +0.149 HD
ATOM     14  C   UNL     1       2.932  -6.450  25.308  0.00  0.00    +0.211 C 
ATOM     15  O   UNL     1       1.998  -5.662  25.204  0.00  0.00    -0.276 OA
ATOM     16  C   UNL     1       2.747  -7.941  25.211  0.00  0.00    +0.109 C 
ENDBRANCH  11  12
BRANCH  11  17
ATOM     17  C   UNL     1       5.776  -4.496  26.791  0.00  0.00    +0.067 C 
BRANCH  17  18
ATOM     18  C   UNL     1       6.454  -3.145  26.736  0.00  0.00    -0.045 A 
ATOM     19  C   UNL     1       5.713  -1.981  26.980  0.00  0.00    +0.004 A 
ATOM     20  C   UNL     1       6.348  -0.747  27.097  0.00  0.00    +0.000 A 
ATOM     21  C   UNL     1       7.727  -0.659  26.936  0.00  0.00    +0.000 A 
ATOM     22  C   UNL     1       8.467  -1.797  26.621  0.00  0.00    +0.000 A 
ATOM     23  C   UNL     1       7.832  -3.036  26.514  0.00  0.00    +0.004 A 
ENDBRANCH  17  18
ENDBRANCH  11  17
ENDBRANCH   9  11
ENDBRANCH   1   7
BRANCH   1  24
ATOM     24  C   UNL     1       7.948  -3.822  22.290  0.00  0.00    +0.067 C 
BRANCH  24  25
ATOM     25  C   UNL     1       8.144  -2.392  22.741  0.00  0.00    -0.045 A 
ATOM     26  C   UNL     1       9.433  -1.932  23.039  0.00  0.00    +0.004 A 
ATOM     27  C   UNL     1       9.648  -0.616  23.461  0.00  0.00    +0.006 A 
ATOM     28  C   UNL     1       8.573   0.272  23.600  0.00  0.00    -0.021 A 
ATOM     29  C   UNL     1       7.286  -0.203  23.311  0.00  0.00    +0.006 A 
ATOM     30  C   UNL     1       7.071  -1.516  22.896  0.00  0.00    +0.004 A 
BRANCH  28  31
ATOM     31  C   UNL     1       8.832   1.677  24.111  0.00  0.00    +0.190 C 
ATOM     32  S   UNL     1       9.746   2.663  22.916  0.00  0.00    +0.053 S 
ATOM     33  O   UNL     1      10.320   1.883  21.846  0.00  0.00    -0.155 OA
ATOM     34  O   UNL     1      10.499   3.679  23.621  0.00  0.00    -0.155 OA
ATOM     35  N   UNL     1       8.371   3.417  22.292  0.00  0.00    -0.189 N 
ATOM     36  H   UNL     1       8.279   3.409  21.277  0.00  0.00    +0.176 HD
ATOM     37  C   UNL     1       7.215   3.117  23.033  0.00  0.00    +0.234 C 
ATOM     38  O   UNL     1       6.092   3.290  22.593  0.00  0.00    -0.274 OA
ATOM     39  C   UNL     1       7.547   2.481  24.360  0.00  0.00    +0.130 C 
ENDBRANCH  28  31
ENDBRANCH  24  25
ENDBRANCH   1  24
TORSDOF 9
ENDMDL
MODEL 6
REMARK VINA RESULT:      -6.9      2.889      3.688
REMARK  Name = 
REMARK  10 active torsions:
REMARK  status: ('A' for Active; 'I' for Inactive)
REMARK    1  A    between atoms: C_2  and  C_3
REMARK    2  A    between atoms: C_2  and  N_19
REMARK    3  A    between atoms: C_2  and  C_35
REMARK    4  A    between atoms: C_3  and  C_4
REMARK    5  A    between atoms: C_7  and  C_10
REMARK    6  A    between atoms: C_20  and  C_22
REMARK    7  A    between atoms: C_22  and  C_24
REMARK    8  A    between atoms: C_22  and  N_31
REMARK    9  A    between atoms: C_24  and  C_25
REMARK   10  A    between atoms: C_32  and  C_33
REMARK                            x       y       z     vdW  Elec       q    Type
REMARK                         _______ _______ _______ _____ _____    ______ ____
ROOT
ATOM      1  C   UNL     1       6.813   2.418  26.040  0.00  0.00    +0.163 C 
ENDROOT
BRANCH   1   2
ATOM      2  C   UNL     1       6.639   3.801  26.694  0.00  0.00    +0.231 C 
ATOM      3  O   UNL     1       7.426   4.234  27.534  0.00  0.00    -0.274 OA
ATOM      4  N   UNL     1       5.481   4.468  26.420  0.00  0.00    -0.328 N 
ATOM      5  H   UNL     1       5.300   5.297  26.971  0.00  0.00    +0.145 HD
ATOM      6  H   UNL     1       4.669   3.922  26.141  0.00  0.00    +0.145 HD
ENDBRANCH   1   2
BRANCH   1   7
ATOM      7  N   UNL     1       7.500   2.587  24.754  0.00  0.00    -0.302 N 
ATOM      8  H   UNL     1       8.490   2.367  24.728  0.00  0.00    +0.150 HD
ATOM      9  C   UNL     1       6.810   2.766  23.580  0.00  0.00    +0.234 C 
ATOM     10  O   UNL     1       5.575   2.722  23.546  0.00  0.00    -0.274 OA
BRANCH   9  11
ATOM     11  C   UNL     1       7.631   2.957  22.284  0.00  0.00    +0.163 C 
BRANCH  11  12
ATOM     12  N   UNL     1       7.295   4.320  21.846  0.00  0.00    -0.304 N 
ATOM     13  H   UNL     1       6.928   4.396  20.900  0.00  0.00    +0.149 HD
ATOM     14  C   UNL     1       7.575   5.451  22.555  0.00  0.00    +0.211 C 
ATOM     15  O   UNL     1       8.135   5.442  23.645  0.00  0.00    -0.276 OA
ATOM     16  C   UNL     1       7.084   6.720  21.908  0.00  0.00    +0.109 C 
ENDBRANCH  11  12
BRANCH  11  17
ATOM     17  C   UNL     1       9.148   2.712  22.445  0.00  0.00    +0.067 C 
BRANCH  17  18
ATOM     18  C   UNL     1       9.536   1.249  22.432  0.00  0.00    -0.045 A 
ATOM     19  C   UNL     1      10.200   0.693  23.533  0.00  0.00    +0.004 A 
ATOM     20  C   UNL     1      10.417  -0.681  23.611  0.00  0.00    +0.000 A 
ATOM     21  C   UNL     1      10.004  -1.508  22.571  0.00  0.00    +0.000 A 
ATOM     22  C   UNL     1       9.407  -0.959  21.438  0.00  0.00    +0.000 A 
ATOM     23  C   UNL     1       9.179   0.417  21.364  0.00  0.00    +0.004 A 
ENDBRANCH  17  18
ENDBRANCH  11  17
ENDBRANCH   9  11
ENDBRANCH   1   7
BRANCH   1  24
ATOM     24  C   UNL     1       7.447   1.328  26.935  0.00  0.00    +0.067 C 
BRANCH  24  25
ATOM     25  C   UNL     1       7.418  -0.088  26.404  0.00  0.00    -0.045 A 
ATOM     26  C   UNL     1       6.365  -0.492  25.571  0.00  0.00    +0.004 A 
ATOM     27  C   UNL     1       6.308  -1.794  25.066  0.00  0.00    +0.006 A 
ATOM     28  C   UNL     1       7.301  -2.728  25.388  0.00  0.00    -0.021 A 
ATOM     29  C   UNL     1       8.342  -2.316  26.233  0.00  0.00    +0.006 A 
ATOM     30  C   UNL     1       8.397  -1.020  26.741  0.00  0.00    +0.004 A 
BRANCH  28  31
ATOM     31  C   UNL     1       7.182  -4.149  24.868  0.00  0.00    +0.190 C 
ATOM     32  S   UNL     1       8.793  -4.928  24.682  0.00  0.00    +0.053 S 
ATOM     33  O   UNL     1       9.894  -3.998  24.764  0.00  0.00    -0.155 OA
ATOM     34  O   UNL     1       8.711  -5.938  23.648  0.00  0.00    -0.155 OA
ATOM     35  N   UNL     1       8.718  -5.734  26.162  0.00  0.00    -0.189 N 
ATOM     36  H   UNL     1       9.533  -5.634  26.767  0.00  0.00    +0.176 HD
ATOM     37  C   UNL     1       7.459  -5.612  26.775  0.00  0.00    +0.234 C 
ATOM     38  O   UNL     1       7.281  -5.840  27.958  0.00  0.00    -0.274 OA
ATOM     39  C   UNL     1       6.418  -5.083  25.819  0.00  0.00    +0.130 C 
ENDBRANCH  28  31
ENDBRANCH  24  25
ENDBRANCH   1  24
TORSDOF 9
ENDMDL
MODEL 7
REMARK VINA RESULT:      -6.9      2.554      3.076
REMARK  Name = 
REMARK  10 active torsions:
REMARK  status: ('A' for Active; 'I' for Inactive)
REMARK    1  A    between atoms: C_2  and  C_3
REMARK    2  A    between atoms: C_2  and  N_19
REMARK    3  A    between atoms: C_2  and  C_35
REMARK    4  A    between atoms: C_3  and  C_4
REMARK    5  A    between atoms: C_7  and  C_10
REMARK    6  A    between atoms: C_20  and  C_22
REMARK    7  A    between atoms: C_22  and  C_24
REMARK    8  A    between atoms: C_22  and  N_31
REMARK    9  A    between atoms: C_24  and  C_25
REMARK   10  A    between atoms: C_32  and  C_33
REMARK                            x       y       z     vdW  Elec       q    Type
REMARK                         _______ _______ _______ _____ _____    ______ ____
ROOT
ATOM      1  C   UNL     1       6.894   2.867  26.336  0.00  0.00    +0.163 C 
ENDROOT
BRANCH   1   2
ATOM      2  C   UNL     1       6.781   4.171  27.147  0.00  0.00    +0.231 C 
ATOM      3  O   UNL     1       7.405   4.351  28.192  0.00  0.00    -0.274 OA
ATOM      4  N   UNL     1       5.834   5.066  26.742  0.00  0.00    -0.328 N 
ATOM      5  H   UNL     1       5.656   5.842  27.365  0.00  0.00    +0.145 HD
ATOM      6  H   UNL     1       5.037   4.714  26.216  0.00  0.00    +0.145 HD
ENDBRANCH   1   2
BRANCH   1   7
ATOM      7  N   UNL     1       8.177   2.866  25.622  0.00  0.00    -0.302 N 
ATOM      8  H   UNL     1       8.904   2.259  25.983  0.00  0.00    +0.150 HD
ATOM      9  C   UNL     1       8.317   3.432  24.378  0.00  0.00    +0.234 C 
ATOM     10  O   UNL     1       7.348   3.907  23.774  0.00  0.00    -0.274 OA
BRANCH   9  11
ATOM     11  C   UNL     1       9.716   3.396  23.724  0.00  0.00    +0.163 C 
BRANCH  11  12
ATOM     12  N   UNL     1      10.355   4.638  24.179  0.00  0.00    -0.304 N 
ATOM     13  H   UNL     1       9.792   5.218  24.796  0.00  0.00    +0.149 HD
ATOM     14  C   UNL     1      11.551   5.107  23.719  0.00  0.00    +0.211 C 
ATOM     15  O   UNL     1      12.223   4.524  22.875  0.00  0.00    -0.276 OA
ATOM     16  C   UNL     1      12.009   6.380  24.380  0.00  0.00    +0.109 C 
ENDBRANCH  11  12
BRANCH  11  17
ATOM     17  C   UNL     1      10.536   2.123  24.034  0.00  0.00    +0.067 C 
BRANCH  17  18
ATOM     18  C   UNL     1      10.262   0.974  23.090  0.00  0.00    -0.045 A 
ATOM     19  C   UNL     1      10.673  -0.322  23.430  0.00  0.00    +0.004 A 
ATOM     20  C   UNL     1      10.287  -1.415  22.657  0.00  0.00    +0.000 A 
ATOM     21  C   UNL     1       9.516  -1.219  21.515  0.00  0.00    +0.000 A 
ATOM     22  C   UNL     1       9.161   0.072  21.126  0.00  0.00    +0.000 A 
ATOM     23  C   UNL     1       9.538   1.166  21.907  0.00  0.00    +0.004 A 
ENDBRANCH  17  18
ENDBRANCH  11  17
ENDBRANCH   9  11
ENDBRANCH   1   7
BRANCH   1  24
ATOM     24  C   UNL     1       6.629   1.563  27.122  0.00  0.00    +0.067 C 
BRANCH  24  25
ATOM     25  C   UNL     1       7.121   0.279  26.493  0.00  0.00    -0.045 A 
ATOM     26  C   UNL     1       6.476  -0.225  25.355  0.00  0.00    +0.004 A 
ATOM     27  C   UNL     1       6.905  -1.411  24.751  0.00  0.00    +0.006 A 
ATOM     28  C   UNL     1       7.988  -2.127  25.277  0.00  0.00    -0.021 A 
ATOM     29  C   UNL     1       8.617  -1.620  26.423  0.00  0.00    +0.006 A 
ATOM     30  C   UNL     1       8.187  -0.442  27.029  0.00  0.00    +0.004 A 
BRANCH  28  31
ATOM     31  C   UNL     1       8.395  -3.438  24.631  0.00  0.00    +0.190 C 
ATOM     32  S   UNL     1       8.197  -4.826  25.759  0.00  0.00    +0.053 S 
ATOM     33  O   UNL     1       7.985  -4.428  27.129  0.00  0.00    -0.155 OA
ATOM     34  O   UNL     1       9.135  -5.867  25.393  0.00  0.00    -0.155 OA
ATOM     35  N   UNL     1       6.695  -5.281  25.140  0.00  0.00    -0.189 N 
ATOM     36  H   UNL     1       5.955  -5.428  25.826  0.00  0.00    +0.176 HD
ATOM     37  C   UNL     1       6.351  -4.559  23.985  0.00  0.00    +0.234 C 
ATOM     38  O   UNL     1       5.209  -4.500  23.565  0.00  0.00    -0.274 OA
ATOM     39  C   UNL     1       7.533  -3.813  23.416  0.00  0.00    +0.130 C 
ENDBRANCH  28  31
ENDBRANCH  24  25
ENDBRANCH   1  24
TORSDOF 9
ENDMDL
MODEL 8
REMARK VINA RESULT:      -6.8      3.549      8.821
REMARK  Name = 
REMARK  10 active torsions:
REMARK  status: ('A' for Active; 'I' for Inactive)
REMARK    1  A    between atoms: C_2  and  C_3
REMARK    2  A    between atoms: C_2  and  N_19
REMARK    3  A    between atoms: C_2  and  C_35
REMARK    4  A    between atoms: C_3  and  C_4
REMARK    5  A    between atoms: C_7  and  C_10
REMARK    6  A    between atoms: C_20  and  C_22
REMARK    7  A    between atoms: C_22  and  C_24
REMARK    8  A    between atoms: C_22  and  N_31
REMARK    9  A    between atoms: C_24  and  C_25
REMARK   10  A    between atoms: C_32  and  C_33
REMARK                            x       y       z     vdW  Elec       q    Type
REMARK                         _______ _______ _______ _____ _____    ______ ____
ROOT
ATOM      1  C   UNL     1       5.223  -4.058  27.643  0.00  0.00    +0.163 C 
ENDROOT
BRANCH   1   2
ATOM      2  C   UNL     1       4.891  -4.572  29.057  0.00  0.00    +0.231 C 
ATOM      3  O   UNL     1       5.726  -5.134  29.763  0.00  0.00    -0.274 OA
ATOM      4  N   UNL     1       3.582  -4.520  29.437  0.00  0.00    -0.328 N 
ATOM      5  H   UNL     1       3.345  -5.000  30.296  0.00  0.00    +0.145 HD
ATOM      6  H   UNL     1       2.871  -4.518  28.708  0.00  0.00    +0.145 HD
ENDBRANCH   1   2
BRANCH   1   7
ATOM      7  N   UNL     1       4.448  -4.833  26.666  0.00  0.00    -0.302 N 
ATOM      8  H   UNL     1       3.646  -4.375  26.247  0.00  0.00    +0.150 HD
ATOM      9  C   UNL     1       4.920  -6.006  26.129  0.00  0.00    +0.234 C 
ATOM     10  O   UNL     1       6.052  -6.425  26.395  0.00  0.00    -0.274 OA
BRANCH   9  11
ATOM     11  C   UNL     1       4.014  -6.755  25.125  0.00  0.00    +0.163 C 
BRANCH  11  12
ATOM     12  N   UNL     1       2.915  -7.271  25.953  0.00  0.00    -0.304 N 
ATOM     13  H   UNL     1       2.841  -6.866  26.883  0.00  0.00    +0.149 HD
ATOM     14  C   UNL     1       2.118  -8.324  25.611  0.00  0.00    +0.211 C 
ATOM     15  O   UNL     1       2.236  -8.945  24.560  0.00  0.00    -0.276 OA
ATOM     16  C   UNL     1       1.033  -8.626  26.612  0.00  0.00    +0.109 C 
ENDBRANCH  11  12
BRANCH  11  17
ATOM     17  C   UNL     1       3.544  -5.901  23.927  0.00  0.00    +0.067 C 
BRANCH  17  18
ATOM     18  C   UNL     1       4.673  -5.250  23.159  0.00  0.00    -0.045 A 
ATOM     19  C   UNL     1       5.623  -6.046  22.505  0.00  0.00    +0.004 A 
ATOM     20  C   UNL     1       6.569  -5.472  21.659  0.00  0.00    +0.000 A 
ATOM     21  C   UNL     1       6.598  -4.091  21.487  0.00  0.00    +0.000 A 
ATOM     22  C   UNL     1       5.706  -3.282  22.188  0.00  0.00    +0.000 A 
ATOM     23  C   UNL     1       4.749  -3.858  23.027  0.00  0.00    +0.004 A 
ENDBRANCH  17  18
ENDBRANCH  11  17
ENDBRANCH   9  11
ENDBRANCH   1   7
BRANCH   1  24
ATOM     24  C   UNL     1       5.111  -2.530  27.441  0.00  0.00    +0.067 C 
BRANCH  24  25
ATOM     25  C   UNL     1       5.900  -1.937  26.295  0.00  0.00    -0.045 A 
ATOM     26  C   UNL     1       5.370  -0.856  25.577  0.00  0.00    +0.004 A 
ATOM     27  C   UNL     1       6.073  -0.287  24.511  0.00  0.00    +0.006 A 
ATOM     28  C   UNL     1       7.323  -0.791  24.132  0.00  0.00    -0.021 A 
ATOM     29  C   UNL     1       7.838  -1.881  24.849  0.00  0.00    +0.006 A 
ATOM     30  C   UNL     1       7.135  -2.452  25.908  0.00  0.00    +0.004 A 
BRANCH  28  31
ATOM     31  C   UNL     1       8.036  -0.187  22.937  0.00  0.00    +0.190 C 
ATOM     32  S   UNL     1       9.289   1.003  23.439  0.00  0.00    +0.053 S 
ATOM     33  O   UNL     1       9.191   1.389  24.826  0.00  0.00    -0.155 OA
ATOM     34  O   UNL     1       9.471   1.972  22.379  0.00  0.00    -0.155 OA
ATOM     35  N   UNL     1      10.564  -0.096  23.323  0.00  0.00    -0.189 N 
ATOM     36  H   UNL     1      11.185  -0.147  24.130  0.00  0.00    +0.176 HD
ATOM     37  C   UNL     1      10.167  -1.318  22.754  0.00  0.00    +0.234 C 
ATOM     38  O   UNL     1      10.828  -2.336  22.861  0.00  0.00    -0.274 OA
ATOM     39  C   UNL     1       8.809  -1.220  22.102  0.00  0.00    +0.130 C 
ENDBRANCH  28  31
ENDBRANCH  24  25
ENDBRANCH   1  24
TORSDOF 9
ENDMDL
MODEL 9
REMARK VINA RESULT:      -6.8      2.292      4.403
REMARK  Name = 
REMARK  10 active torsions:
REMARK  status: ('A' for Active; 'I' for Inactive)
REMARK    1  A    between atoms: C_2  and  C_3
REMARK    2  A    between atoms: C_2  and  N_19
REMARK    3  A    between atoms: C_2  and  C_35
REMARK    4  A    between atoms: C_3  and  C_4
REMARK    5  A    between atoms: C_7  and  C_10
REMARK    6  A    between atoms: C_20  and  C_22
REMARK    7  A    between atoms: C_22  and  C_24
REMARK    8  A    between atoms: C_22  and  N_31
REMARK    9  A    between atoms: C_24  and  C_25
REMARK   10  A    between atoms: C_32  and  C_33
REMARK                            x       y       z     vdW  Elec       q    Type
REMARK                         _______ _______ _______ _____ _____    ______ ____
ROOT
ATOM      1  C   UNL     1       9.631  -0.887  24.719  0.00  0.00    +0.163 C 
ENDROOT
BRANCH   1   2
ATOM      2  C   UNL     1       9.673  -1.951  23.605  0.00  0.00    +0.231 C 
ATOM      3  O   UNL     1      10.240  -3.032  23.752  0.00  0.00    -0.274 OA
ATOM      4  N   UNL     1       9.189  -1.582  22.385  0.00  0.00    -0.328 N 
ATOM      5  H   UNL     1       9.363  -2.223  21.621  0.00  0.00    +0.145 HD
ATOM      6  H   UNL     1       9.182  -0.591  22.152  0.00  0.00    +0.145 HD
ENDBRANCH   1   2
BRANCH   1   7
ATOM      7  N   UNL     1       9.291   0.409  24.119  0.00  0.00    -0.302 N 
ATOM      8  H   UNL     1       8.307   0.608  23.980  0.00  0.00    +0.150 HD
ATOM      9  C   UNL     1      10.214   1.419  24.001  0.00  0.00    +0.234 C 
ATOM     10  O   UNL     1      11.357   1.304  24.460  0.00  0.00    -0.274 OA
BRANCH   9  11
ATOM     11  C   UNL     1       9.759   2.737  23.334  0.00  0.00    +0.163 C 
BRANCH  11  12
ATOM     12  N   UNL     1      11.016   3.421  22.999  0.00  0.00    -0.304 N 
ATOM     13  H   UNL     1      11.718   2.844  22.543  0.00  0.00    +0.149 HD
ATOM     14  C   UNL     1      11.332   4.691  23.384  0.00  0.00    +0.211 C 
ATOM     15  O   UNL     1      10.584   5.399  24.049  0.00  0.00    -0.276 OA
ATOM     16  C   UNL     1      12.662   5.177  22.872  0.00  0.00    +0.109 C 
ENDBRANCH  11  12
BRANCH  11  17
ATOM     17  C   UNL     1       8.810   2.550  22.129  0.00  0.00    +0.067 C 
BRANCH  17  18
ATOM     18  C   UNL     1       7.482   3.257  22.280  0.00  0.00    -0.045 A 
ATOM     19  C   UNL     1       6.297   2.512  22.340  0.00  0.00    +0.004 A 
ATOM     20  C   UNL     1       5.085   3.128  22.644  0.00  0.00    +0.000 A 
ATOM     21  C   UNL     1       5.040   4.502  22.856  0.00  0.00    +0.000 A 
ATOM     22  C   UNL     1       6.199   5.266  22.729  0.00  0.00    +0.000 A 
ATOM     23  C   UNL     1       7.416   4.647  22.435  0.00  0.00    +0.004 A 
ENDBRANCH  17  18
ENDBRANCH  11  17
ENDBRANCH   9  11
ENDBRANCH   1   7
BRANCH   1  24
ATOM     24  C   UNL     1       8.765  -1.239  25.950  0.00  0.00    +0.067 C 
BRANCH  24  25
ATOM     25  C   UNL     1       7.512  -2.045  25.691  0.00  0.00    -0.045 A 
ATOM     26  C   UNL     1       6.430  -1.448  25.031  0.00  0.00    +0.004 A 
ATOM     27  C   UNL     1       5.257  -2.165  24.778  0.00  0.00    +0.006 A 
ATOM     28  C   UNL     1       5.135  -3.499  25.187  0.00  0.00    -0.021 A 
ATOM     29  C   UNL     1       6.219  -4.083  25.858  0.00  0.00    +0.006 A 
ATOM     30  C   UNL     1       7.386  -3.366  26.115  0.00  0.00    +0.004 A 
BRANCH  28  31
ATOM     31  C   UNL     1       3.829  -4.233  24.947  0.00  0.00    +0.190 C 
ATOM     32  S   UNL     1       3.837  -5.110  23.375  0.00  0.00    +0.053 S 
ATOM     33  O   UNL     1       4.925  -4.727  22.509  0.00  0.00    -0.155 OA
ATOM     34  O   UNL     1       2.476  -5.233  22.898  0.00  0.00    -0.155 OA
ATOM     35  N   UNL     1       4.253  -6.596  24.059  0.00  0.00    -0.189 N 
ATOM     36  H   UNL     1       5.033  -7.086  23.622  0.00  0.00    +0.176 HD
ATOM     37  C   UNL     1       4.236  -6.562  25.464  0.00  0.00    +0.234 C 
ATOM     38  O   UNL     1       4.792  -7.403  26.146  0.00  0.00    -0.274 OA
ATOM     39  C   UNL     1       3.544  -5.327  25.988  0.00  0.00    +0.130 C 
ENDBRANCH  28  31
ENDBRANCH  24  25
ENDBRANCH   1  24
TORSDOF 9
ENDMDL
