MODEL 1
REMARK VINA RESULT:      -5.4      0.000      0.000
REMARK  Name = 
REMARK  12 active torsions:
REMARK  status: ('A' for Active; 'I' for Inactive)
REMARK    1  A    between atoms: C_2  and  C_3
REMARK    2  A    between atoms: C_2  and  C_12
REMARK    3  A    between atoms: C_2  and  C_15
REMARK    4  A    between atoms: C_3  and  C_4
REMARK    5  A    between atoms: N_6  and  C_7
REMARK    6  A    between atoms: C_7  and  C_8
REMARK    7  A    between atoms: C_7  and  C_10
REMARK    8  A    between atoms: C_8  and  C_9
REMARK    9  A    between atoms: C_10  and  C_11
REMARK   10  A    between atoms: C_15  and  C_16
REMARK   11  A    between atoms: C_15  and  C_17
REMARK   12  A    between atoms: C_15  and  C_18
REMARK                            x       y       z     vdW  Elec       q    Type
REMARK                         _______ _______ _______ _____ _____    ______ ____
ROOT
ATOM      1  C   UNL     1       8.327  -3.967  24.511  0.00  0.00    +0.089 C 
ENDROOT
BRANCH   1   2
ATOM      2  C   UNL     1       8.978  -4.686  25.701  0.00  0.00    +0.215 C 
ATOM      3  O   UNL     1       8.769  -4.335  26.859  0.00  0.00    -0.276 OA
ATOM      4  N   UNL     1       9.798  -5.738  25.454  0.00  0.00    -0.329 N 
ATOM      5  H   UNL     1      10.080  -6.250  26.279  0.00  0.00    +0.145 HD
ATOM      6  H   UNL     1       9.579  -6.343  24.663  0.00  0.00    +0.145 HD
ENDBRANCH   1   2
BRANCH   1   7
ATOM      7  C   UNL     1       7.010  -4.629  23.962  0.00  0.00    -0.026 C 
ATOM      8  C   UNL     1       7.361  -5.544  22.765  0.00  0.00    +0.011 C 
ATOM      9  C   UNL     1       6.052  -3.538  23.431  0.00  0.00    +0.011 C 
ATOM     10  C   UNL     1       6.236  -5.477  24.984  0.00  0.00    +0.011 C 
ENDBRANCH   1   7
BRANCH   1  11
ATOM     11  C   UNL     1       8.336  -2.437  24.701  0.00  0.00    +0.109 C 
BRANCH  11  12
ATOM     12  C   UNL     1       9.430  -1.690  23.973  0.00  0.00    +0.214 C 
ATOM     13  N   UNL     1       9.317  -0.320  23.987  0.00  0.00    -0.312 N 
ATOM     14  H   UNL     1       8.465   0.103  24.333  0.00  0.00    +0.149 HD
ATOM     15  O   UNL     1      10.365  -2.269  23.425  0.00  0.00    -0.276 OA
BRANCH  13  16
ATOM     16  C   UNL     1      10.260   0.525  23.258  0.00  0.00    +0.072 C 
BRANCH  16  17
ATOM     17  C   UNL     1      10.705   1.721  24.106  0.00  0.00    +0.019 C 
ATOM     18  C   UNL     1      10.867   2.997  23.288  0.00  0.00    +0.006 C 
ENDBRANCH  16  17
BRANCH  16  19
ATOM     19  C   UNL     1       9.671   0.944  21.897  0.00  0.00    +0.019 C 
ATOM     20  C   UNL     1       8.164   1.177  21.907  0.00  0.00    +0.006 C 
ENDBRANCH  16  19
ENDBRANCH  13  16
ENDBRANCH  11  12
ENDBRANCH   1  11
TORSDOF 7
ENDMDL
MODEL 2
REMARK VINA RESULT:      -5.4      1.912      6.073
REMARK  Name = 
REMARK  12 active torsions:
REMARK  status: ('A' for Active; 'I' for Inactive)
REMARK    1  A    between atoms: C_2  and  C_3
REMARK    2  A    between atoms: C_2  and  C_12
REMARK    3  A    between atoms: C_2  and  C_15
REMARK    4  A    between atoms: C_3  and  C_4
REMARK    5  A    between atoms: N_6  and  C_7
REMARK    6  A    between atoms: C_7  and  C_8
REMARK    7  A    between atoms: C_7  and  C_10
REMARK    8  A    between atoms: C_8  and  C_9
REMARK    9  A    between atoms: C_10  and  C_11
REMARK   10  A    between atoms: C_15  and  C_16
REMARK   11  A    between atoms: C_15  and  C_17
REMARK   12  A    between atoms: C_15  and  C_18
REMARK                            x       y       z     vdW  Elec       q    Type
REMARK                         _______ _______ _______ _____ _____    ______ ____
ROOT
ATOM      1  C   UNL     1       9.269   0.195  23.663  0.00  0.00    +0.089 C 
ENDROOT
BRANCH   1   2
ATOM      2  C   UNL     1      10.077   0.244  24.967  0.00  0.00    +0.215 C 
ATOM      3  O   UNL     1      11.263   0.561  24.980  0.00  0.00    -0.276 OA
ATOM      4  N   UNL     1       9.452  -0.066  26.131  0.00  0.00    -0.329 N 
ATOM      5  H   UNL     1       9.997   0.121  26.961  0.00  0.00    +0.145 HD
ATOM      6  H   UNL     1       8.470   0.190  26.231  0.00  0.00    +0.145 HD
ENDBRANCH   1   2
BRANCH   1   7
ATOM      7  C   UNL     1       8.948   1.591  23.015  0.00  0.00    -0.026 C 
ATOM      8  C   UNL     1       7.646   1.481  22.188  0.00  0.00    +0.011 C 
ATOM      9  C   UNL     1      10.074   1.990  22.034  0.00  0.00    +0.011 C 
ATOM     10  C   UNL     1       8.766   2.743  24.015  0.00  0.00    +0.011 C 
ENDBRANCH   1   7
BRANCH   1  11
ATOM     11  C   UNL     1       9.765  -0.931  22.733  0.00  0.00    +0.109 C 
BRANCH  11  12
ATOM     12  C   UNL     1       9.399  -2.338  23.148  0.00  0.00    +0.214 C 
ATOM     13  N   UNL     1       8.160  -2.769  22.737  0.00  0.00    -0.312 N 
ATOM     14  H   UNL     1       7.515  -2.105  22.328  0.00  0.00    +0.149 HD
ATOM     15  O   UNL     1      10.166  -3.050  23.791  0.00  0.00    -0.276 OA
BRANCH  13  16
ATOM     16  C   UNL     1       7.645  -4.078  23.133  0.00  0.00    +0.072 C 
BRANCH  16  17
ATOM     17  C   UNL     1       6.776  -4.689  22.029  0.00  0.00    +0.019 C 
ATOM     18  C   UNL     1       6.971  -6.194  21.889  0.00  0.00    +0.006 C 
ENDBRANCH  16  17
BRANCH  16  19
ATOM     19  C   UNL     1       6.913  -3.984  24.486  0.00  0.00    +0.019 C 
ATOM     20  C   UNL     1       7.481  -4.887  25.575  0.00  0.00    +0.006 C 
ENDBRANCH  16  19
ENDBRANCH  13  16
ENDBRANCH  11  12
ENDBRANCH   1  11
TORSDOF 7
ENDMDL
MODEL 3
REMARK VINA RESULT:      -5.3      2.436      3.490
REMARK  Name = 
REMARK  12 active torsions:
REMARK  status: ('A' for Active; 'I' for Inactive)
REMARK    1  A    between atoms: C_2  and  C_3
REMARK    2  A    between atoms: C_2  and  C_12
REMARK    3  A    between atoms: C_2  and  C_15
REMARK    4  A    between atoms: C_3  and  C_4
REMARK    5  A    between atoms: N_6  and  C_7
REMARK    6  A    between atoms: C_7  and  C_8
REMARK    7  A    between atoms: C_7  and  C_10
REMARK    8  A    between atoms: C_8  and  C_9
REMARK    9  A    between atoms: C_10  and  C_11
REMARK   10  A    between atoms: C_15  and  C_16
REMARK   11  A    between atoms: C_15  and  C_17
REMARK   12  A    between atoms: C_15  and  C_18
REMARK                            x       y       z     vdW  Elec       q    Type
REMARK                         _______ _______ _______ _____ _____    ______ ____
ROOT
ATOM      1  C   UNL     1       6.416  -4.432  23.255  0.00  0.00    +0.089 C 
ENDROOT
BRANCH   1   2
ATOM      2  C   UNL     1       6.038  -5.012  21.885  0.00  0.00    +0.215 C 
ATOM      3  O   UNL     1       5.773  -4.288  20.929  0.00  0.00    -0.276 OA
ATOM      4  N   UNL     1       6.007  -6.360  21.737  0.00  0.00    -0.329 N 
ATOM      5  H   UNL     1       5.890  -6.673  20.783  0.00  0.00    +0.145 HD
ATOM      6  H   UNL     1       6.681  -6.917  22.261  0.00  0.00    +0.145 HD
ENDBRANCH   1   2
BRANCH   1   7
ATOM      7  C   UNL     1       5.209  -4.135  24.218  0.00  0.00    -0.026 C 
ATOM      8  C   UNL     1       5.191  -2.627  24.560  0.00  0.00    +0.011 C 
ATOM      9  C   UNL     1       5.395  -4.898  25.550  0.00  0.00    +0.011 C 
ATOM     10  C   UNL     1       3.826  -4.500  23.656  0.00  0.00    +0.011 C 
ENDBRANCH   1   7
BRANCH   1  11
ATOM     11  C   UNL     1       7.649  -5.143  23.849  0.00  0.00    +0.109 C 
BRANCH  11  12
ATOM     12  C   UNL     1       8.823  -4.251  24.187  0.00  0.00    +0.214 C 
ATOM     13  N   UNL     1       8.731  -2.959  23.730  0.00  0.00    -0.312 N 
ATOM     14  H   UNL     1       7.991  -2.713  23.084  0.00  0.00    +0.149 HD
ATOM     15  O   UNL     1       9.781  -4.653  24.843  0.00  0.00    -0.276 OA
BRANCH  13  16
ATOM     16  C   UNL     1       9.827  -2.010  23.918  0.00  0.00    +0.072 C 
BRANCH  16  17
ATOM     17  C   UNL     1       9.422  -0.873  24.862  0.00  0.00    +0.019 C 
ATOM     18  C   UNL     1      10.436   0.264  24.884  0.00  0.00    +0.006 C 
ENDBRANCH  16  17
BRANCH  16  19
ATOM     19  C   UNL     1      10.340  -1.501  22.556  0.00  0.00    +0.019 C 
ATOM     20  C   UNL     1       9.242  -1.080  21.585  0.00  0.00    +0.006 C 
ENDBRANCH  16  19
ENDBRANCH  13  16
ENDBRANCH  11  12
ENDBRANCH   1  11
TORSDOF 7
ENDMDL
MODEL 4
REMARK VINA RESULT:      -5.3      2.288      6.497
REMARK  Name = 
REMARK  12 active torsions:
REMARK  status: ('A' for Active; 'I' for Inactive)
REMARK    1  A    between atoms: C_2  and  C_3
REMARK    2  A    between atoms: C_2  and  C_12
REMARK    3  A    between atoms: C_2  and  C_15
REMARK    4  A    between atoms: C_3  and  C_4
REMARK    5  A    between atoms: N_6  and  C_7
REMARK    6  A    between atoms: C_7  and  C_8
REMARK    7  A    between atoms: C_7  and  C_10
REMARK    8  A    between atoms: C_8  and  C_9
REMARK    9  A    between atoms: C_10  and  C_11
REMARK   10  A    between atoms: C_15  and  C_16
REMARK   11  A    between atoms: C_15  and  C_17
REMARK   12  A    between atoms: C_15  and  C_18
REMARK                            x       y       z     vdW  Elec       q    Type
REMARK                         _______ _______ _______ _____ _____    ______ ____
ROOT
ATOM      1  C   UNL     1       8.718   0.439  23.141  0.00  0.00    +0.089 C 
ENDROOT
BRANCH   1   2
ATOM      2  C   UNL     1       8.551   1.471  22.019  0.00  0.00    +0.215 C 
ATOM      3  O   UNL     1       7.442   1.863  21.662  0.00  0.00    -0.276 OA
ATOM      4  N   UNL     1       9.663   1.963  21.417  0.00  0.00    -0.329 N 
ATOM      5  H   UNL     1       9.491   2.736  20.789  0.00  0.00    +0.145 HD
ATOM      6  H   UNL     1      10.501   2.087  21.984  0.00  0.00    +0.145 HD
ENDBRANCH   1   2
BRANCH   1   7
ATOM      7  C   UNL     1       9.195   1.017  24.524  0.00  0.00    -0.026 C 
ATOM      8  C   UNL     1      10.720   0.804  24.666  0.00  0.00    +0.011 C 
ATOM      9  C   UNL     1       8.521   0.243  25.681  0.00  0.00    +0.011 C 
ATOM     10  C   UNL     1       8.914   2.513  24.733  0.00  0.00    +0.011 C 
ENDBRANCH   1   7
BRANCH   1  11
ATOM     11  C   UNL     1       7.561  -0.580  23.150  0.00  0.00    +0.109 C 
BRANCH  11  12
ATOM     12  C   UNL     1       7.947  -2.018  22.887  0.00  0.00    +0.214 C 
ATOM     13  N   UNL     1       7.416  -2.939  23.759  0.00  0.00    -0.312 N 
ATOM     14  H   UNL     1       6.940  -2.615  24.592  0.00  0.00    +0.149 HD
ATOM     15  O   UNL     1       8.669  -2.339  21.947  0.00  0.00    -0.276 OA
BRANCH  13  16
ATOM     16  C   UNL     1       7.767  -4.354  23.671  0.00  0.00    +0.072 C 
BRANCH  16  17
ATOM     17  C   UNL     1       6.655  -5.161  22.991  0.00  0.00    +0.019 C 
ATOM     18  C   UNL     1       7.100  -5.786  21.675  0.00  0.00    +0.006 C 
ENDBRANCH  16  17
BRANCH  16  19
ATOM     19  C   UNL     1       8.140  -4.906  25.061  0.00  0.00    +0.019 C 
ATOM     20  C   UNL     1       9.639  -4.982  25.328  0.00  0.00    +0.006 C 
ENDBRANCH  16  19
ENDBRANCH  13  16
ENDBRANCH  11  12
ENDBRANCH   1  11
TORSDOF 7
ENDMDL
MODEL 5
REMARK VINA RESULT:      -5.2      2.252      5.973
REMARK  Name = 
REMARK  12 active torsions:
REMARK  status: ('A' for Active; 'I' for Inactive)
REMARK    1  A    between atoms: C_2  and  C_3
REMARK    2  A    between atoms: C_2  and  C_12
REMARK    3  A    between atoms: C_2  and  C_15
REMARK    4  A    between atoms: C_3  and  C_4
REMARK    5  A    between atoms: N_6  and  C_7
REMARK    6  A    between atoms: C_7  and  C_8
REMARK    7  A    between atoms: C_7  and  C_10
REMARK    8  A    between atoms: C_8  and  C_9
REMARK    9  A    between atoms: C_10  and  C_11
REMARK   10  A    between atoms: C_15  and  C_16
REMARK   11  A    between atoms: C_15  and  C_17
REMARK   12  A    between atoms: C_15  and  C_18
REMARK                            x       y       z     vdW  Elec       q    Type
REMARK                         _______ _______ _______ _____ _____    ______ ____
ROOT
ATOM      1  C   UNL     1       8.766  -0.893  23.487  0.00  0.00    +0.089 C 
ENDROOT
BRANCH   1   2
ATOM      2  C   UNL     1       9.744  -1.158  22.335  0.00  0.00    +0.215 C 
ATOM      3  O   UNL     1      10.676  -1.950  22.449  0.00  0.00    -0.276 OA
ATOM      4  N   UNL     1       9.560  -0.501  21.162  0.00  0.00    -0.329 N 
ATOM      5  H   UNL     1      10.148  -0.823  20.406  0.00  0.00    +0.145 HD
ATOM      6  H   UNL     1       8.604  -0.301  20.869  0.00  0.00    +0.145 HD
ENDBRANCH   1   2
BRANCH   1   7
ATOM      7  C   UNL     1       9.169   0.276  24.459  0.00  0.00    -0.026 C 
ATOM      8  C   UNL     1       8.438   0.090  25.809  0.00  0.00    +0.011 C 
ATOM      9  C   UNL     1       8.704   1.631  23.876  0.00  0.00    +0.011 C 
ATOM     10  C   UNL     1      10.672   0.384  24.756  0.00  0.00    +0.011 C 
ENDBRANCH   1   7
BRANCH   1  11
ATOM     11  C   UNL     1       7.301  -0.958  23.011  0.00  0.00    +0.109 C 
BRANCH  11  12
ATOM     12  C   UNL     1       6.676  -2.335  22.987  0.00  0.00    +0.214 C 
ATOM     13  N   UNL     1       7.212  -3.239  23.873  0.00  0.00    -0.312 N 
ATOM     14  H   UNL     1       8.062  -3.003  24.369  0.00  0.00    +0.149 HD
ATOM     15  O   UNL     1       5.742  -2.616  22.241  0.00  0.00    -0.276 OA
BRANCH  13  16
ATOM     16  C   UNL     1       6.758  -4.628  23.904  0.00  0.00    +0.072 C 
BRANCH  16  17
ATOM     17  C   UNL     1       6.744  -5.176  25.335  0.00  0.00    +0.019 C 
ATOM     18  C   UNL     1       8.138  -5.267  25.945  0.00  0.00    +0.006 C 
ENDBRANCH  16  17
BRANCH  16  19
ATOM     19  C   UNL     1       7.596  -5.492  22.941  0.00  0.00    +0.019 C 
ATOM     20  C   UNL     1       6.837  -5.989  21.716  0.00  0.00    +0.006 C 
ENDBRANCH  16  19
ENDBRANCH  13  16
ENDBRANCH  11  12
ENDBRANCH   1  11
TORSDOF 7
ENDMDL
MODEL 6
REMARK VINA RESULT:      -5.2      1.972      6.275
REMARK  Name = 
REMARK  12 active torsions:
REMARK  status: ('A' for Active; 'I' for Inactive)
REMARK    1  A    between atoms: C_2  and  C_3
REMARK    2  A    between atoms: C_2  and  C_12
REMARK    3  A    between atoms: C_2  and  C_15
REMARK    4  A    between atoms: C_3  and  C_4
REMARK    5  A    between atoms: N_6  and  C_7
REMARK    6  A    between atoms: C_7  and  C_8
REMARK    7  A    between atoms: C_7  and  C_10
REMARK    8  A    between atoms: C_8  and  C_9
REMARK    9  A    between atoms: C_10  and  C_11
REMARK   10  A    between atoms: C_15  and  C_16
REMARK   11  A    between atoms: C_15  and  C_17
REMARK   12  A    between atoms: C_15  and  C_18
REMARK                            x       y       z     vdW  Elec       q    Type
REMARK                         _______ _______ _______ _____ _____    ______ ____
ROOT
ATOM      1  C   UNL     1       8.735   0.032  23.797  0.00  0.00    +0.089 C 
ENDROOT
BRANCH   1   2
ATOM      2  C   UNL     1       7.249   0.399  23.906  0.00  0.00    +0.215 C 
ATOM      3  O   UNL     1       6.680   0.473  24.993  0.00  0.00    -0.276 OA
ATOM      4  N   UNL     1       6.557   0.656  22.767  0.00  0.00    -0.329 N 
ATOM      5  H   UNL     1       5.629   1.025  22.916  0.00  0.00    +0.145 HD
ATOM      6  H   UNL     1       7.050   1.108  21.998  0.00  0.00    +0.145 HD
ENDBRANCH   1   2
BRANCH   1   7
ATOM      7  C   UNL     1       9.720   1.247  23.638  0.00  0.00    -0.026 C 
ATOM      8  C   UNL     1       9.992   1.489  22.135  0.00  0.00    +0.011 C 
ATOM      9  C   UNL     1      11.080   0.914  24.295  0.00  0.00    +0.011 C 
ATOM     10  C   UNL     1       9.220   2.570  24.238  0.00  0.00    +0.011 C 
ENDBRANCH   1   7
BRANCH   1  11
ATOM     11  C   UNL     1       9.118  -1.077  24.798  0.00  0.00    +0.109 C 
BRANCH  11  12
ATOM     12  C   UNL     1       9.108  -2.488  24.254  0.00  0.00    +0.214 C 
ATOM     13  N   UNL     1       7.866  -3.066  24.143  0.00  0.00    -0.312 N 
ATOM     14  H   UNL     1       7.065  -2.604  24.556  0.00  0.00    +0.149 HD
ATOM     15  O   UNL     1      10.138  -3.066  23.917  0.00  0.00    -0.276 OA
BRANCH  13  16
ATOM     16  C   UNL     1       7.713  -4.452  23.706  0.00  0.00    +0.072 C 
BRANCH  16  17
ATOM     17  C   UNL     1       7.165  -4.527  22.277  0.00  0.00    +0.019 C 
ATOM     18  C   UNL     1       7.029  -5.957  21.771  0.00  0.00    +0.006 C 
ENDBRANCH  16  17
BRANCH  16  19
ATOM     19  C   UNL     1       6.860  -5.246  24.714  0.00  0.00    +0.019 C 
ATOM     20  C   UNL     1       7.460  -5.340  26.113  0.00  0.00    +0.006 C 
ENDBRANCH  16  19
ENDBRANCH  13  16
ENDBRANCH  11  12
ENDBRANCH   1  11
TORSDOF 7
ENDMDL
MODEL 7
REMARK VINA RESULT:      -5.0      1.560      2.009
REMARK  Name = 
REMARK  12 active torsions:
REMARK  status: ('A' for Active; 'I' for Inactive)
REMARK    1  A    between atoms: C_2  and  C_3
REMARK    2  A    between atoms: C_2  and  C_12
REMARK    3  A    between atoms: C_2  and  C_15
REMARK    4  A    between atoms: C_3  and  C_4
REMARK    5  A    between atoms: N_6  and  C_7
REMARK    6  A    between atoms: C_7  and  C_8
REMARK    7  A    between atoms: C_7  and  C_10
REMARK    8  A    between atoms: C_8  and  C_9
REMARK    9  A    between atoms: C_10  and  C_11
REMARK   10  A    between atoms: C_15  and  C_16
REMARK   11  A    between atoms: C_15  and  C_17
REMARK   12  A    between atoms: C_15  and  C_18
REMARK                            x       y       z     vdW  Elec       q    Type
REMARK                         _______ _______ _______ _____ _____    ______ ____
ROOT
ATOM      1  C   UNL     1       7.887  -3.522  23.263  0.00  0.00    +0.089 C 
ENDROOT
BRANCH   1   2
ATOM      2  C   UNL     1       7.949  -3.016  24.711  0.00  0.00    +0.215 C 
ATOM      3  O   UNL     1       7.200  -2.133  25.119  0.00  0.00    -0.276 OA
ATOM      4  N   UNL     1       8.854  -3.574  25.555  0.00  0.00    -0.329 N 
ATOM      5  H   UNL     1       8.749  -3.298  26.521  0.00  0.00    +0.145 HD
ATOM      6  H   UNL     1       9.070  -4.564  25.442  0.00  0.00    +0.145 HD
ENDBRANCH   1   2
BRANCH   1   7
ATOM      7  C   UNL     1       6.704  -4.507  22.943  0.00  0.00    -0.026 C 
ATOM      8  C   UNL     1       7.153  -5.502  21.847  0.00  0.00    +0.011 C 
ATOM      9  C   UNL     1       5.500  -3.721  22.375  0.00  0.00    +0.011 C 
ATOM     10  C   UNL     1       6.204  -5.331  24.140  0.00  0.00    +0.011 C 
ENDBRANCH   1   7
BRANCH   1  11
ATOM     11  C   UNL     1       8.169  -2.389  22.256  0.00  0.00    +0.109 C 
BRANCH  11  12
ATOM     12  C   UNL     1       9.421  -1.580  22.508  0.00  0.00    +0.214 C 
ATOM     13  N   UNL     1       9.214  -0.301  22.968  0.00  0.00    -0.312 N 
ATOM     14  H   UNL     1       8.275   0.078  22.970  0.00  0.00    +0.149 HD
ATOM     15  O   UNL     1      10.545  -2.044  22.331  0.00  0.00    -0.276 OA
BRANCH  13  16
ATOM     16  C   UNL     1      10.330   0.617  23.180  0.00  0.00    +0.072 C 
BRANCH  16  17
ATOM     17  C   UNL     1      10.820   0.570  24.631  0.00  0.00    +0.019 C 
ATOM     18  C   UNL     1       9.727   0.163  25.611  0.00  0.00    +0.006 C 
ENDBRANCH  16  17
BRANCH  16  19
ATOM     19  C   UNL     1       9.953   2.040  22.723  0.00  0.00    +0.019 C 
ATOM     20  C   UNL     1      10.799   3.147  23.342  0.00  0.00    +0.006 C 
ENDBRANCH  16  19
ENDBRANCH  13  16
ENDBRANCH  11  12
ENDBRANCH   1  11
TORSDOF 7
ENDMDL
MODEL 8
REMARK VINA RESULT:      -5.0      1.785      2.153
REMARK  Name = 
REMARK  12 active torsions:
REMARK  status: ('A' for Active; 'I' for Inactive)
REMARK    1  A    between atoms: C_2  and  C_3
REMARK    2  A    between atoms: C_2  and  C_12
REMARK    3  A    between atoms: C_2  and  C_15
REMARK    4  A    between atoms: C_3  and  C_4
REMARK    5  A    between atoms: N_6  and  C_7
REMARK    6  A    between atoms: C_7  and  C_8
REMARK    7  A    between atoms: C_7  and  C_10
REMARK    8  A    between atoms: C_8  and  C_9
REMARK    9  A    between atoms: C_10  and  C_11
REMARK   10  A    between atoms: C_15  and  C_16
REMARK   11  A    between atoms: C_15  and  C_17
REMARK   12  A    between atoms: C_15  and  C_18
REMARK                            x       y       z     vdW  Elec       q    Type
REMARK                         _______ _______ _______ _____ _____    ______ ____
ROOT
ATOM      1  C   UNL     1       7.934  -3.769  25.010  0.00  0.00    +0.089 C 
ENDROOT
BRANCH   1   2
ATOM      2  C   UNL     1       8.613  -5.083  25.420  0.00  0.00    +0.215 C 
ATOM      3  O   UNL     1       9.375  -5.679  24.664  0.00  0.00    -0.276 OA
ATOM      4  N   UNL     1       8.362  -5.584  26.656  0.00  0.00    -0.329 N 
ATOM      5  H   UNL     1       8.944  -6.370  26.914  0.00  0.00    +0.145 HD
ATOM      6  H   UNL     1       8.215  -4.927  27.421  0.00  0.00    +0.145 HD
ENDBRANCH   1   2
BRANCH   1   7
ATOM      7  C   UNL     1       6.730  -3.915  24.009  0.00  0.00    -0.026 C 
ATOM      8  C   UNL     1       6.015  -5.263  24.267  0.00  0.00    +0.011 C 
ATOM      9  C   UNL     1       7.253  -3.953  22.555  0.00  0.00    +0.011 C 
ATOM     10  C   UNL     1       5.672  -2.804  24.099  0.00  0.00    +0.011 C 
ENDBRANCH   1   7
BRANCH   1  11
ATOM     11  C   UNL     1       7.753  -2.825  26.216  0.00  0.00    +0.109 C 
BRANCH  11  12
ATOM     12  C   UNL     1       8.582  -1.561  26.193  0.00  0.00    +0.214 C 
ATOM     13  N   UNL     1       8.845  -1.052  24.943  0.00  0.00    -0.312 N 
ATOM     14  H   UNL     1       8.615  -1.603  24.125  0.00  0.00    +0.149 HD
ATOM     15  O   UNL     1       8.976  -1.018  27.222  0.00  0.00    -0.276 OA
BRANCH  13  16
ATOM     16  C   UNL     1       9.698   0.121  24.768  0.00  0.00    +0.072 C 
BRANCH  16  17
ATOM     17  C   UNL     1       8.878   1.415  24.797  0.00  0.00    +0.019 C 
ATOM     18  C   UNL     1       9.559   2.562  24.061  0.00  0.00    +0.006 C 
ENDBRANCH  16  17
BRANCH  16  19
ATOM     19  C   UNL     1      10.550  -0.017  23.491  0.00  0.00    +0.019 C 
ATOM     20  C   UNL     1      10.225  -1.243  22.644  0.00  0.00    +0.006 C 
ENDBRANCH  16  19
ENDBRANCH  13  16
ENDBRANCH  11  12
ENDBRANCH   1  11
TORSDOF 7
ENDMDL
MODEL 9
REMARK VINA RESULT:      -5.0      2.569      3.447
REMARK  Name = 
REMARK  12 active torsions:
REMARK  status: ('A' for Active; 'I' for Inactive)
REMARK    1  A    between atoms: C_2  and  C_3
REMARK    2  A    between atoms: C_2  and  C_12
REMARK    3  A    between atoms: C_2  and  C_15
REMARK    4  A    between atoms: C_3  and  C_4
REMARK    5  A    between atoms: N_6  and  C_7
REMARK    6  A    between atoms: C_7  and  C_8
REMARK    7  A    between atoms: C_7  and  C_10
REMARK    8  A    between atoms: C_8  and  C_9
REMARK    9  A    between atoms: C_10  and  C_11
REMARK   10  A    between atoms: C_15  and  C_16
REMARK   11  A    between atoms: C_15  and  C_17
REMARK   12  A    between atoms: C_15  and  C_18
REMARK                            x       y       z     vdW  Elec       q    Type
REMARK                         _______ _______ _______ _____ _____    ______ ____
ROOT
ATOM      1  C   UNL     1       6.102  -4.515  23.632  0.00  0.00    +0.089 C 
ENDROOT
BRANCH   1   2
ATOM      2  C   UNL     1       5.315  -5.501  22.758  0.00  0.00    +0.215 C 
ATOM      3  O   UNL     1       4.108  -5.375  22.571  0.00  0.00    -0.276 OA
ATOM      4  N   UNL     1       5.982  -6.529  22.176  0.00  0.00    -0.329 N 
ATOM      5  H   UNL     1       5.438  -7.054  21.506  0.00  0.00    +0.145 HD
ATOM      6  H   UNL     1       6.943  -6.368  21.873  0.00  0.00    +0.145 HD
ENDBRANCH   1   2
BRANCH   1   7
ATOM      7  C   UNL     1       6.204  -4.897  25.154  0.00  0.00    -0.026 C 
ATOM      8  C   UNL     1       5.760  -3.689  26.012  0.00  0.00    +0.011 C 
ATOM      9  C   UNL     1       7.674  -5.199  25.526  0.00  0.00    +0.011 C 
ATOM     10  C   UNL     1       5.354  -6.104  25.579  0.00  0.00    +0.011 C 
ENDBRANCH   1   7
BRANCH   1  11
ATOM     11  C   UNL     1       7.385  -4.033  22.926  0.00  0.00    +0.109 C 
BRANCH  11  12
ATOM     12  C   UNL     1       7.604  -2.537  22.905  0.00  0.00    +0.214 C 
ATOM     13  N   UNL     1       8.915  -2.135  22.821  0.00  0.00    -0.312 N 
ATOM     14  H   UNL     1       9.652  -2.821  22.928  0.00  0.00    +0.149 HD
ATOM     15  O   UNL     1       6.670  -1.740  22.942  0.00  0.00    -0.276 OA
BRANCH  13  16
ATOM     16  C   UNL     1       9.277  -0.720  22.870  0.00  0.00    +0.072 C 
BRANCH  16  17
ATOM     17  C   UNL     1       9.402  -0.129  21.462  0.00  0.00    +0.019 C 
ATOM     18  C   UNL     1       8.832   1.280  21.360  0.00  0.00    +0.006 C 
ENDBRANCH  16  17
BRANCH  16  19
ATOM     19  C   UNL     1      10.549  -0.517  23.718  0.00  0.00    +0.019 C 
ATOM     20  C   UNL     1      10.464   0.632  24.717  0.00  0.00    +0.006 C 
ENDBRANCH  16  19
ENDBRANCH  13  16
ENDBRANCH  11  12
ENDBRANCH   1  11
TORSDOF 7
ENDMDL
