MODEL 1
REMARK VINA RESULT:      -4.5      0.000      0.000
REMARK  Name = 
REMARK  4 active torsions:
REMARK  status: ('A' for Active; 'I' for Inactive)
REMARK    1  A    between atoms: C_1  and  C_2
REMARK    2  A    between atoms: C_5  and  O_7
REMARK    3  A    between atoms: C_8  and  O_10
REMARK    4  A    between atoms: C_12  and  O_14
REMARK                            x       y       z     vdW  Elec       q    Type
REMARK                         _______ _______ _______ _____ _____    ______ ____
ROOT
ATOM      1  C   UNL     1       7.971  -2.791  22.846  0.00  0.00    +0.040 C 
ATOM      2  C   UNL     1       8.354  -1.315  22.828  0.00  0.00    +0.147 C 
ATOM      3  C   UNL     1       9.371  -1.015  21.712  0.00  0.00    +0.146 C 
ATOM      4  C   UNL     1       9.652   0.481  21.627  0.00  0.00    +0.070 C 
ATOM      5  C   UNL     1       8.364   1.291  21.576  0.00  0.00    +0.173 C 
ATOM      6  C   UNL     1       7.412   0.846  22.707  0.00  0.00    +0.276 C 
ATOM      7  O   UNL     1       7.155  -0.556  22.659  0.00  0.00    -0.343 OA
ENDROOT
BRANCH   3   8
ATOM      8  O   UNL     1      10.595  -1.713  21.930  0.00  0.00    -0.389 OA
ATOM      9  H   UNL     1      10.690  -2.400  21.251  0.00  0.00    +0.210 HD
ENDBRANCH   3   8
BRANCH   5  10
ATOM     10  O   UNL     1       8.736   2.671  21.693  0.00  0.00    -0.387 OA
ATOM     11  H   UNL     1       8.281   3.032  22.473  0.00  0.00    +0.210 HD
ENDBRANCH   5  10
BRANCH   6  12
ATOM     12  O   UNL     1       6.177   1.528  22.569  0.00  0.00    -0.365 OA
ATOM     13  H   UNL     1       6.078   1.649  21.607  0.00  0.00    +0.213 HD
ENDBRANCH   6  12
TORSDOF 3
ENDMDL
MODEL 2
REMARK VINA RESULT:      -4.5      5.674      6.733
REMARK  Name = 
REMARK  4 active torsions:
REMARK  status: ('A' for Active; 'I' for Inactive)
REMARK    1  A    between atoms: C_1  and  C_2
REMARK    2  A    between atoms: C_5  and  O_7
REMARK    3  A    between atoms: C_8  and  O_10
REMARK    4  A    between atoms: C_12  and  O_14
REMARK                            x       y       z     vdW  Elec       q    Type
REMARK                         _______ _______ _______ _____ _____    ______ ____
ROOT
ATOM      1  C   UNL     1       7.156  -5.693  21.748  0.00  0.00    +0.040 C 
ATOM      2  C   UNL     1       7.391  -5.098  23.132  0.00  0.00    +0.147 C 
ATOM      3  C   UNL     1       6.202  -5.380  24.070  0.00  0.00    +0.146 C 
ATOM      4  C   UNL     1       6.501  -4.887  25.482  0.00  0.00    +0.070 C 
ATOM      5  C   UNL     1       7.855  -5.380  25.973  0.00  0.00    +0.173 C 
ATOM      6  C   UNL     1       8.941  -5.092  24.913  0.00  0.00    +0.276 C 
ATOM      7  O   UNL     1       8.603  -5.654  23.646  0.00  0.00    -0.343 OA
ENDROOT
BRANCH   3   8
ATOM      8  O   UNL     1       5.012  -4.755  23.594  0.00  0.00    -0.389 OA
ATOM      9  H   UNL     1       4.458  -4.515  24.354  0.00  0.00    +0.210 HD
ENDBRANCH   3   8
BRANCH   5  10
ATOM     10  O   UNL     1       8.118  -4.709  27.212  0.00  0.00    -0.387 OA
ATOM     11  H   UNL     1       9.034  -4.384  27.181  0.00  0.00    +0.210 HD
ENDBRANCH   5  10
BRANCH   6  12
ATOM     12  O   UNL     1      10.167  -5.664  25.338  0.00  0.00    -0.365 OA
ATOM     13  H   UNL     1      10.786  -4.911  25.355  0.00  0.00    +0.213 HD
ENDBRANCH   6  12
TORSDOF 3
ENDMDL
MODEL 3
REMARK VINA RESULT:      -4.4      4.034      6.485
REMARK  Name = 
REMARK  4 active torsions:
REMARK  status: ('A' for Active; 'I' for Inactive)
REMARK    1  A    between atoms: C_1  and  C_2
REMARK    2  A    between atoms: C_5  and  O_7
REMARK    3  A    between atoms: C_8  and  O_10
REMARK    4  A    between atoms: C_12  and  O_14
REMARK                            x       y       z     vdW  Elec       q    Type
REMARK                         _______ _______ _______ _____ _____    ______ ____
ROOT
ATOM      1  C   UNL     1       7.810  -3.013  22.432  0.00  0.00    +0.040 C 
ATOM      2  C   UNL     1       7.911  -3.430  23.895  0.00  0.00    +0.147 C 
ATOM      3  C   UNL     1       6.590  -4.042  24.395  0.00  0.00    +0.146 C 
ATOM      4  C   UNL     1       6.743  -4.564  25.820  0.00  0.00    +0.070 C 
ATOM      5  C   UNL     1       7.973  -5.450  25.963  0.00  0.00    +0.173 C 
ATOM      6  C   UNL     1       9.209  -4.743  25.367  0.00  0.00    +0.276 C 
ATOM      7  O   UNL     1       8.993  -4.357  24.010  0.00  0.00    -0.343 OA
ENDROOT
BRANCH   3   8
ATOM      8  O   UNL     1       5.532  -3.088  24.354  0.00  0.00    -0.389 OA
ATOM      9  H   UNL     1       5.653  -2.453  25.078  0.00  0.00    +0.210 HD
ENDBRANCH   3   8
BRANCH   5  10
ATOM     10  O   UNL     1       8.128  -5.723  27.362  0.00  0.00    -0.387 OA
ATOM     11  H   UNL     1       8.813  -6.408  27.453  0.00  0.00    +0.210 HD
ENDBRANCH   5  10
BRANCH   6  12
ATOM     12  O   UNL     1      10.314  -5.631  25.404  0.00  0.00    -0.365 OA
ATOM     13  H   UNL     1      10.728  -5.459  26.270  0.00  0.00    +0.213 HD
ENDBRANCH   6  12
TORSDOF 3
ENDMDL
MODEL 4
REMARK VINA RESULT:      -4.3      2.033      2.094
REMARK  Name = 
REMARK  4 active torsions:
REMARK  status: ('A' for Active; 'I' for Inactive)
REMARK    1  A    between atoms: C_1  and  C_2
REMARK    2  A    between atoms: C_5  and  O_7
REMARK    3  A    between atoms: C_8  and  O_10
REMARK    4  A    between atoms: C_12  and  O_14
REMARK                            x       y       z     vdW  Elec       q    Type
REMARK                         _______ _______ _______ _____ _____    ______ ____
ROOT
ATOM      1  C   UNL     1       9.486  -2.311  24.200  0.00  0.00    +0.040 C 
ATOM      2  C   UNL     1       9.880  -0.907  23.757  0.00  0.00    +0.147 C 
ATOM      3  C   UNL     1       9.532  -0.670  22.275  0.00  0.00    +0.146 C 
ATOM      4  C   UNL     1       9.820   0.773  21.878  0.00  0.00    +0.070 C 
ATOM      5  C   UNL     1       9.205   1.759  22.862  0.00  0.00    +0.173 C 
ATOM      6  C   UNL     1       9.581   1.368  24.308  0.00  0.00    +0.276 C 
ATOM      7  O   UNL     1       9.207   0.024  24.606  0.00  0.00    -0.343 OA
ENDROOT
BRANCH   3   8
ATOM      8  O   UNL     1      10.268  -1.549  21.427  0.00  0.00    -0.389 OA
ATOM      9  H   UNL     1      11.213  -1.468  21.635  0.00  0.00    +0.210 HD
ENDBRANCH   3   8
BRANCH   5  10
ATOM     10  O   UNL     1       9.694   3.059  22.509  0.00  0.00    -0.387 OA
ATOM     11  H   UNL     1       9.212   3.710  23.048  0.00  0.00    +0.210 HD
ENDBRANCH   5  10
BRANCH   6  12
ATOM     12  O   UNL     1       8.903   2.227  25.212  0.00  0.00    -0.365 OA
ATOM     13  H   UNL     1       9.547   2.936  25.393  0.00  0.00    +0.213 HD
ENDBRANCH   6  12
TORSDOF 3
ENDMDL
MODEL 5
REMARK VINA RESULT:      -4.3      3.068      5.643
REMARK  Name = 
REMARK  4 active torsions:
REMARK  status: ('A' for Active; 'I' for Inactive)
REMARK    1  A    between atoms: C_1  and  C_2
REMARK    2  A    between atoms: C_5  and  O_7
REMARK    3  A    between atoms: C_8  and  O_10
REMARK    4  A    between atoms: C_12  and  O_14
REMARK                            x       y       z     vdW  Elec       q    Type
REMARK                         _______ _______ _______ _____ _____    ______ ____
ROOT
ATOM      1  C   UNL     1      10.358  -1.624  22.767  0.00  0.00    +0.040 C 
ATOM      2  C   UNL     1       9.503  -2.407  23.756  0.00  0.00    +0.147 C 
ATOM      3  C   UNL     1       8.112  -2.716  23.171  0.00  0.00    +0.146 C 
ATOM      4  C   UNL     1       7.312  -3.601  24.121  0.00  0.00    +0.070 C 
ATOM      5  C   UNL     1       8.118  -4.811  24.572  0.00  0.00    +0.173 C 
ATOM      6  C   UNL     1       9.509  -4.366  25.074  0.00  0.00    +0.276 C 
ATOM      7  O   UNL     1      10.207  -3.605  24.090  0.00  0.00    -0.343 OA
ENDROOT
BRANCH   3   8
ATOM      8  O   UNL     1       7.383  -1.518  22.916  0.00  0.00    -0.389 OA
ATOM      9  H   UNL     1       7.248  -1.430  21.959  0.00  0.00    +0.210 HD
ENDBRANCH   3   8
BRANCH   5  10
ATOM     10  O   UNL     1       7.355  -5.460  25.598  0.00  0.00    -0.387 OA
ATOM     11  H   UNL     1       7.908  -6.169  25.970  0.00  0.00    +0.210 HD
ENDBRANCH   5  10
BRANCH   6  12
ATOM     12  O   UNL     1      10.283  -5.515  25.377  0.00  0.00    -0.365 OA
ATOM     13  H   UNL     1       9.629  -6.237  25.421  0.00  0.00    +0.213 HD
ENDBRANCH   6  12
TORSDOF 3
ENDMDL
MODEL 6
REMARK VINA RESULT:      -4.3      1.835      3.839
REMARK  Name = 
REMARK  4 active torsions:
REMARK  status: ('A' for Active; 'I' for Inactive)
REMARK    1  A    between atoms: C_1  and  C_2
REMARK    2  A    between atoms: C_5  and  O_7
REMARK    3  A    between atoms: C_8  and  O_10
REMARK    4  A    between atoms: C_12  and  O_14
REMARK                            x       y       z     vdW  Elec       q    Type
REMARK                         _______ _______ _______ _____ _____    ______ ____
ROOT
ATOM      1  C   UNL     1       8.696   2.682  24.735  0.00  0.00    +0.040 C 
ATOM      2  C   UNL     1       8.704   1.502  23.769  0.00  0.00    +0.147 C 
ATOM      3  C   UNL     1       9.500   1.829  22.492  0.00  0.00    +0.146 C 
ATOM      4  C   UNL     1       9.602   0.603  21.592  0.00  0.00    +0.070 C 
ATOM      5  C   UNL     1      10.073  -0.622  22.363  0.00  0.00    +0.173 C 
ATOM      6  C   UNL     1       9.234  -0.795  23.647  0.00  0.00    +0.276 C 
ATOM      7  O   UNL     1       9.259   0.379  24.457  0.00  0.00    -0.343 OA
ENDROOT
BRANCH   3   8
ATOM      8  O   UNL     1       8.895   2.898  21.768  0.00  0.00    -0.389 OA
ATOM      9  H   UNL     1       8.831   2.646  20.833  0.00  0.00    +0.210 HD
ENDBRANCH   3   8
BRANCH   5  10
ATOM     10  O   UNL     1       9.948  -1.743  21.479  0.00  0.00    -0.387 OA
ATOM     11  H   UNL     1      10.560  -2.432  21.792  0.00  0.00    +0.210 HD
ENDBRANCH   5  10
BRANCH   6  12
ATOM     12  O   UNL     1       9.765  -1.868  24.407  0.00  0.00    -0.365 OA
ATOM     13  H   UNL     1       8.995  -2.441  24.580  0.00  0.00    +0.213 HD
ENDBRANCH   6  12
TORSDOF 3
ENDMDL
MODEL 7
REMARK VINA RESULT:      -4.2      2.247      3.116
REMARK  Name = 
REMARK  4 active torsions:
REMARK  status: ('A' for Active; 'I' for Inactive)
REMARK    1  A    between atoms: C_1  and  C_2
REMARK    2  A    between atoms: C_5  and  O_7
REMARK    3  A    between atoms: C_8  and  O_10
REMARK    4  A    between atoms: C_12  and  O_14
REMARK                            x       y       z     vdW  Elec       q    Type
REMARK                         _______ _______ _______ _____ _____    ______ ____
ROOT
ATOM      1  C   UNL     1       8.374  -1.609  25.480  0.00  0.00    +0.040 C 
ATOM      2  C   UNL     1       8.466  -0.545  24.392  0.00  0.00    +0.147 C 
ATOM      3  C   UNL     1       9.197   0.712  24.899  0.00  0.00    +0.146 C 
ATOM      4  C   UNL     1       9.388   1.717  23.768  0.00  0.00    +0.070 C 
ATOM      5  C   UNL     1       9.989   1.062  22.532  0.00  0.00    +0.173 C 
ATOM      6  C   UNL     1       9.201  -0.216  22.173  0.00  0.00    +0.276 C 
ATOM      7  O   UNL     1       9.139  -1.124  23.272  0.00  0.00    -0.343 OA
ENDROOT
BRANCH   3   8
ATOM      8  O   UNL     1       8.479   1.331  25.964  0.00  0.00    -0.389 OA
ATOM      9  H   UNL     1       8.647   0.840  26.784  0.00  0.00    +0.210 HD
ENDBRANCH   3   8
BRANCH   5  10
ATOM     10  O   UNL     1       9.945   2.038  21.482  0.00  0.00    -0.387 OA
ATOM     11  H   UNL     1      10.860   2.191  21.187  0.00  0.00    +0.210 HD
ENDBRANCH   5  10
BRANCH   6  12
ATOM     12  O   UNL     1       9.847  -0.871  21.094  0.00  0.00    -0.365 OA
ATOM     13  H   UNL     1       9.636  -1.814  21.227  0.00  0.00    +0.213 HD
ENDBRANCH   6  12
TORSDOF 3
ENDMDL
MODEL 8
REMARK VINA RESULT:      -4.1      4.486      6.364
REMARK  Name = 
REMARK  4 active torsions:
REMARK  status: ('A' for Active; 'I' for Inactive)
REMARK    1  A    between atoms: C_1  and  C_2
REMARK    2  A    between atoms: C_5  and  O_7
REMARK    3  A    between atoms: C_8  and  O_10
REMARK    4  A    between atoms: C_12  and  O_14
REMARK                            x       y       z     vdW  Elec       q    Type
REMARK                         _______ _______ _______ _____ _____    ______ ____
ROOT
ATOM      1  C   UNL     1       7.576  -3.431  22.775  0.00  0.00    +0.040 C 
ATOM      2  C   UNL     1       7.755  -4.385  23.951  0.00  0.00    +0.147 C 
ATOM      3  C   UNL     1       8.817  -3.865  24.937  0.00  0.00    +0.146 C 
ATOM      4  C   UNL     1       8.899  -4.765  26.165  0.00  0.00    +0.070 C 
ATOM      5  C   UNL     1       7.522  -5.026  26.761  0.00  0.00    +0.173 C 
ATOM      6  C   UNL     1       6.543  -5.478  25.656  0.00  0.00    +0.276 C 
ATOM      7  O   UNL     1       6.484  -4.538  24.586  0.00  0.00    -0.343 OA
ENDROOT
BRANCH   3   8
ATOM      8  O   UNL     1      10.101  -3.792  24.319  0.00  0.00    -0.389 OA
ATOM      9  H   UNL     1      10.119  -4.397  23.561  0.00  0.00    +0.210 HD
ENDBRANCH   3   8
BRANCH   5  10
ATOM     10  O   UNL     1       7.692  -6.024  27.777  0.00  0.00    -0.387 OA
ATOM     11  H   UNL     1       8.294  -5.659  28.448  0.00  0.00    +0.210 HD
ENDBRANCH   5  10
BRANCH   6  12
ATOM     12  O   UNL     1       5.243  -5.601  26.210  0.00  0.00    -0.365 OA
ATOM     13  H   UNL     1       5.299  -6.396  26.772  0.00  0.00    +0.213 HD
ENDBRANCH   6  12
TORSDOF 3
ENDMDL
MODEL 9
REMARK VINA RESULT:      -4.1      4.162      6.159
REMARK  Name = 
REMARK  4 active torsions:
REMARK  status: ('A' for Active; 'I' for Inactive)
REMARK    1  A    between atoms: C_1  and  C_2
REMARK    2  A    between atoms: C_5  and  O_7
REMARK    3  A    between atoms: C_8  and  O_10
REMARK    4  A    between atoms: C_12  and  O_14
REMARK                            x       y       z     vdW  Elec       q    Type
REMARK                         _______ _______ _______ _____ _____    ______ ____
ROOT
ATOM      1  C   UNL     1       5.418  -2.808  24.996  0.00  0.00    +0.040 C 
ATOM      2  C   UNL     1       6.622  -3.741  24.936  0.00  0.00    +0.147 C 
ATOM      3  C   UNL     1       7.899  -2.981  24.531  0.00  0.00    +0.146 C 
ATOM      4  C   UNL     1       9.115  -3.899  24.592  0.00  0.00    +0.070 C 
ATOM      5  C   UNL     1       9.187  -4.645  25.917  0.00  0.00    +0.173 C 
ATOM      6  C   UNL     1       7.827  -5.304  26.230  0.00  0.00    +0.276 C 
ATOM      7  O   UNL     1       6.764  -4.353  26.219  0.00  0.00    -0.343 OA
ENDROOT
BRANCH   3   8
ATOM      8  O   UNL     1       7.781  -2.440  23.216  0.00  0.00    -0.389 OA
ATOM      9  H   UNL     1       6.909  -2.025  23.125  0.00  0.00    +0.210 HD
ENDBRANCH   3   8
BRANCH   5  10
ATOM     10  O   UNL     1      10.241  -5.609  25.794  0.00  0.00    -0.387 OA
ATOM     11  H   UNL     1      11.085  -5.133  25.879  0.00  0.00    +0.210 HD
ENDBRANCH   5  10
BRANCH   6  12
ATOM     12  O   UNL     1       7.882  -5.892  27.520  0.00  0.00    -0.365 OA
ATOM     13  H   UNL     1       8.081  -6.830  27.345  0.00  0.00    +0.213 HD
ENDBRANCH   6  12
TORSDOF 3
ENDMDL
