MODEL 1
REMARK VINA RESULT:      -6.6      0.000      0.000
REMARK  Name = 
REMARK  6 active torsions:
REMARK  status: ('A' for Active; 'I' for Inactive)
REMARK    1  A    between atoms: C_2  and  C_3
REMARK    2  A    between atoms: C_2  and  O_10
REMARK    3  A    between atoms: C_2  and  C_18
REMARK    4  A    between atoms: C_3  and  C_4
REMARK    5  A    between atoms: O_10  and  C_11
REMARK    6  A    between atoms: C_18  and  O_19
REMARK                            x       y       z     vdW  Elec       q    Type
REMARK                         _______ _______ _______ _____ _____    ______ ____
ROOT
ATOM      1  C   UNL     1       8.825  -3.552  25.166  0.00  0.00    +0.285 C 
ENDROOT
BRANCH   1   2
ATOM      2  C   UNL     1       9.107  -5.015  25.529  0.00  0.00    +0.346 C 
ATOM      3  O   UNL     1       8.413  -5.697  26.265  0.00  0.00    -0.247 OA
BRANCH   2   4
ATOM      4  O   UNL     1      10.224  -5.513  24.935  0.00  0.00    -0.478 OA
ATOM      5  H   UNL     1      10.815  -5.907  25.611  0.00  0.00    +0.295 HD
ENDBRANCH   2   4
ENDBRANCH   1   2
BRANCH   1   6
ATOM      6  O   UNL     1       9.773  -3.286  24.102  0.00  0.00    -0.477 OA
BRANCH   6   7
ATOM      7  C   UNL     1       9.783  -2.026  23.566  0.00  0.00    +0.122 A 
ATOM      8  C   UNL     1       9.656  -1.741  22.210  0.00  0.00    +0.047 A 
ATOM      9  C   UNL     1       9.802  -0.428  21.752  0.00  0.00    +0.023 A 
ATOM     10  C   UNL     1      10.049   0.603  22.656  0.00  0.00    +0.041 A 
ATOM     11 CL   UNL     1      10.236   2.213  22.084  0.00  0.00    -0.084 Cl
ATOM     12  C   UNL     1      10.156   0.328  24.016  0.00  0.00    +0.023 A 
ATOM     13  C   UNL     1      10.035  -0.990  24.470  0.00  0.00    +0.047 A 
ENDBRANCH   6   7
ENDBRANCH   1   6
BRANCH   1  14
ATOM     14  C   UNL     1       7.395  -3.414  24.626  0.00  0.00    +0.091 C 
BRANCH  14  15
ATOM     15  C   UNL     1       6.855  -4.406  23.620  0.00  0.00    -0.043 A 
ATOM     16  C   UNL     1       5.725  -5.154  23.999  0.00  0.00    +0.004 A 
ATOM     17  C   UNL     1       5.109  -6.036  23.111  0.00  0.00    +0.000 A 
ATOM     18  C   UNL     1       5.614  -6.190  21.825  0.00  0.00    +0.000 A 
ATOM     19  C   UNL     1       6.750  -5.481  21.441  0.00  0.00    +0.000 A 
ATOM     20  C   UNL     1       7.375  -4.605  22.336  0.00  0.00    +0.004 A 
ENDBRANCH  14  15
ENDBRANCH   1  14
TORSDOF 6
ENDMDL
MODEL 2
REMARK VINA RESULT:      -6.5      0.851      1.536
REMARK  Name = 
REMARK  6 active torsions:
REMARK  status: ('A' for Active; 'I' for Inactive)
REMARK    1  A    between atoms: C_2  and  C_3
REMARK    2  A    between atoms: C_2  and  O_10
REMARK    3  A    between atoms: C_2  and  C_18
REMARK    4  A    between atoms: C_3  and  C_4
REMARK    5  A    between atoms: O_10  and  C_11
REMARK    6  A    between atoms: C_18  and  O_19
REMARK                            x       y       z     vdW  Elec       q    Type
REMARK                         _______ _______ _______ _____ _____    ______ ____
ROOT
ATOM      1  C   UNL     1       8.618  -3.365  25.571  0.00  0.00    +0.285 C 
ENDROOT
BRANCH   1   2
ATOM      2  C   UNL     1       9.038  -4.684  26.229  0.00  0.00    +0.346 C 
ATOM      3  O   UNL     1       8.468  -5.202  27.177  0.00  0.00    -0.247 OA
BRANCH   2   4
ATOM      4  O   UNL     1      10.124  -5.258  25.647  0.00  0.00    -0.478 OA
ATOM      5  H   UNL     1       9.958  -5.392  24.690  0.00  0.00    +0.295 HD
ENDBRANCH   2   4
ENDBRANCH   1   2
BRANCH   1   6
ATOM      6  O   UNL     1       9.499  -3.272  24.423  0.00  0.00    -0.477 OA
BRANCH   6   7
ATOM      7  C   UNL     1       9.750  -2.025  23.919  0.00  0.00    +0.122 A 
ATOM      8  C   UNL     1       9.974  -0.889  24.690  0.00  0.00    +0.047 A 
ATOM      9  C   UNL     1      10.100   0.362  24.078  0.00  0.00    +0.023 A 
ATOM     10  C   UNL     1      10.028   0.470  22.691  0.00  0.00    +0.041 A 
ATOM     11 CL   UNL     1      10.176   2.012  21.947  0.00  0.00    -0.084 Cl
ATOM     12  C   UNL     1       9.826  -0.665  21.912  0.00  0.00    +0.023 A 
ATOM     13  C   UNL     1       9.675  -1.912  22.528  0.00  0.00    +0.047 A 
ENDBRANCH   6   7
ENDBRANCH   1   6
BRANCH   1  14
ATOM     14  C   UNL     1       7.162  -3.459  25.093  0.00  0.00    +0.091 C 
BRANCH  14  15
ATOM     15  C   UNL     1       6.828  -4.121  23.775  0.00  0.00    -0.043 A 
ATOM     16  C   UNL     1       6.243  -3.313  22.782  0.00  0.00    +0.004 A 
ATOM     17  C   UNL     1       5.970  -3.815  21.509  0.00  0.00    +0.000 A 
ATOM     18  C   UNL     1       6.275  -5.137  21.205  0.00  0.00    +0.000 A 
ATOM     19  C   UNL     1       6.826  -5.960  22.184  0.00  0.00    +0.000 A 
ATOM     20  C   UNL     1       7.088  -5.460  23.465  0.00  0.00    +0.004 A 
ENDBRANCH  14  15
ENDBRANCH   1  14
TORSDOF 6
ENDMDL
MODEL 3
REMARK VINA RESULT:      -6.1      1.433      2.442
REMARK  Name = 
REMARK  6 active torsions:
REMARK  status: ('A' for Active; 'I' for Inactive)
REMARK    1  A    between atoms: C_2  and  C_3
REMARK    2  A    between atoms: C_2  and  O_10
REMARK    3  A    between atoms: C_2  and  C_18
REMARK    4  A    between atoms: C_3  and  C_4
REMARK    5  A    between atoms: O_10  and  C_11
REMARK    6  A    between atoms: C_18  and  O_19
REMARK                            x       y       z     vdW  Elec       q    Type
REMARK                         _______ _______ _______ _____ _____    ______ ____
ROOT
ATOM      1  C   UNL     1       8.546  -2.206  23.247  0.00  0.00    +0.285 C 
ENDROOT
BRANCH   1   2
ATOM      2  C   UNL     1       8.921  -3.155  24.391  0.00  0.00    +0.346 C 
ATOM      3  O   UNL     1       9.802  -3.999  24.335  0.00  0.00    -0.247 OA
BRANCH   2   4
ATOM      4  O   UNL     1       8.179  -2.968  25.514  0.00  0.00    -0.478 OA
ATOM      5  H   UNL     1       8.647  -3.342  26.291  0.00  0.00    +0.295 HD
ENDBRANCH   2   4
ENDBRANCH   1   2
BRANCH   1   6
ATOM      6  O   UNL     1       9.830  -1.705  22.797  0.00  0.00    -0.477 OA
BRANCH   6   7
ATOM      7  C   UNL     1      10.103  -0.381  23.016  0.00  0.00    +0.122 A 
ATOM      8  C   UNL     1      10.529   0.149  24.230  0.00  0.00    +0.047 A 
ATOM      9  C   UNL     1      10.664   1.533  24.382  0.00  0.00    +0.023 A 
ATOM     10  C   UNL     1      10.397   2.382  23.311  0.00  0.00    +0.041 A 
ATOM     11 CL   UNL     1      10.557   4.082  23.508  0.00  0.00    -0.084 Cl
ATOM     12  C   UNL     1       9.992   1.856  22.087  0.00  0.00    +0.023 A 
ATOM     13  C   UNL     1       9.833   0.474  21.944  0.00  0.00    +0.047 A 
ENDBRANCH   6   7
ENDBRANCH   1   6
BRANCH   1  14
ATOM     14  C   UNL     1       7.877  -2.994  22.112  0.00  0.00    +0.091 C 
BRANCH  14  15
ATOM     15  C   UNL     1       6.674  -3.868  22.388  0.00  0.00    -0.043 A 
ATOM     16  C   UNL     1       6.802  -5.242  22.109  0.00  0.00    +0.004 A 
ATOM     17  C   UNL     1       5.775  -6.138  22.403  0.00  0.00    +0.000 A 
ATOM     18  C   UNL     1       4.597  -5.678  22.981  0.00  0.00    +0.000 A 
ATOM     19  C   UNL     1       4.440  -4.318  23.236  0.00  0.00    +0.000 A 
ATOM     20  C   UNL     1       5.465  -3.416  22.930  0.00  0.00    +0.004 A 
ENDBRANCH  14  15
ENDBRANCH   1  14
TORSDOF 6
ENDMDL
MODEL 4
REMARK VINA RESULT:      -6.0      3.119      5.432
REMARK  Name = 
REMARK  6 active torsions:
REMARK  status: ('A' for Active; 'I' for Inactive)
REMARK    1  A    between atoms: C_2  and  C_3
REMARK    2  A    between atoms: C_2  and  O_10
REMARK    3  A    between atoms: C_2  and  C_18
REMARK    4  A    between atoms: C_3  and  C_4
REMARK    5  A    between atoms: O_10  and  C_11
REMARK    6  A    between atoms: C_18  and  O_19
REMARK                            x       y       z     vdW  Elec       q    Type
REMARK                         _______ _______ _______ _____ _____    ______ ____
ROOT
ATOM      1  C   UNL     1       8.668  -1.657  23.100  0.00  0.00    +0.285 C 
ENDROOT
BRANCH   1   2
ATOM      2  C   UNL     1       9.581  -0.716  22.304  0.00  0.00    +0.346 C 
ATOM      3  O   UNL     1      10.335   0.106  22.800  0.00  0.00    -0.247 OA
BRANCH   2   4
ATOM      4  O   UNL     1       9.490  -0.885  20.959  0.00  0.00    -0.478 OA
ATOM      5  H   UNL     1      10.046  -1.642  20.678  0.00  0.00    +0.295 HD
ENDBRANCH   2   4
ENDBRANCH   1   2
BRANCH   1   6
ATOM      6  O   UNL     1       8.373  -2.713  22.151  0.00  0.00    -0.477 OA
BRANCH   6   7
ATOM      7  C   UNL     1       7.207  -3.410  22.323  0.00  0.00    +0.122 A 
ATOM      8  C   UNL     1       6.004  -2.849  22.742  0.00  0.00    +0.047 A 
ATOM      9  C   UNL     1       4.902  -3.669  23.005  0.00  0.00    +0.023 A 
ATOM     10  C   UNL     1       4.997  -5.046  22.822  0.00  0.00    +0.041 A 
ATOM     11 CL   UNL     1       3.641  -6.048  23.156  0.00  0.00    -0.084 Cl
ATOM     12  C   UNL     1       6.191  -5.611  22.383  0.00  0.00    +0.023 A 
ATOM     13  C   UNL     1       7.301  -4.793  22.145  0.00  0.00    +0.047 A 
ENDBRANCH   6   7
ENDBRANCH   1   6
BRANCH   1  14
ATOM     14  C   UNL     1       9.433  -2.241  24.295  0.00  0.00    +0.091 C 
BRANCH  14  15
ATOM     15  C   UNL     1       8.762  -3.220  25.232  0.00  0.00    -0.043 A 
ATOM     16  C   UNL     1       7.687  -2.738  26.002  0.00  0.00    +0.004 A 
ATOM     17  C   UNL     1       6.957  -3.585  26.837  0.00  0.00    +0.000 A 
ATOM     18  C   UNL     1       7.290  -4.932  26.920  0.00  0.00    +0.000 A 
ATOM     19  C   UNL     1       8.370  -5.421  26.189  0.00  0.00    +0.000 A 
ATOM     20  C   UNL     1       9.111  -4.569  25.361  0.00  0.00    +0.004 A 
ENDBRANCH  14  15
ENDBRANCH   1  14
TORSDOF 6
ENDMDL
MODEL 5
REMARK VINA RESULT:      -6.0      3.050      4.700
REMARK  Name = 
REMARK  6 active torsions:
REMARK  status: ('A' for Active; 'I' for Inactive)
REMARK    1  A    between atoms: C_2  and  C_3
REMARK    2  A    between atoms: C_2  and  O_10
REMARK    3  A    between atoms: C_2  and  C_18
REMARK    4  A    between atoms: C_3  and  C_4
REMARK    5  A    between atoms: O_10  and  C_11
REMARK    6  A    between atoms: C_18  and  O_19
REMARK                            x       y       z     vdW  Elec       q    Type
REMARK                         _______ _______ _______ _____ _____    ______ ____
ROOT
ATOM      1  C   UNL     1       9.119  -2.517  23.323  0.00  0.00    +0.285 C 
ENDROOT
BRANCH   1   2
ATOM      2  C   UNL     1      10.029  -1.412  22.776  0.00  0.00    +0.346 C 
ATOM      3  O   UNL     1      10.509  -0.510  23.444  0.00  0.00    -0.247 OA
BRANCH   2   4
ATOM      4  O   UNL     1      10.278  -1.526  21.444  0.00  0.00    -0.478 OA
ATOM      5  H   UNL     1      10.904  -0.828  21.160  0.00  0.00    +0.295 HD
ENDBRANCH   2   4
ENDBRANCH   1   2
BRANCH   1   6
ATOM      6  O   UNL     1       8.915  -2.125  24.704  0.00  0.00    -0.477 OA
BRANCH   6   7
ATOM      7  C   UNL     1       8.374  -3.055  25.552  0.00  0.00    +0.122 A 
ATOM      8  C   UNL     1       8.852  -4.352  25.713  0.00  0.00    +0.047 A 
ATOM      9  C   UNL     1       8.155  -5.262  26.513  0.00  0.00    +0.023 A 
ATOM     10  C   UNL     1       6.994  -4.865  27.173  0.00  0.00    +0.041 A 
ATOM     11 CL   UNL     1       6.139  -5.992  28.148  0.00  0.00    -0.084 Cl
ATOM     12  C   UNL     1       6.523  -3.563  27.033  0.00  0.00    +0.023 A 
ATOM     13  C   UNL     1       7.207  -2.661  26.212  0.00  0.00    +0.047 A 
ENDBRANCH   6   7
ENDBRANCH   1   6
BRANCH   1  14
ATOM     14  C   UNL     1       7.774  -2.502  22.582  0.00  0.00    +0.091 C 
BRANCH  14  15
ATOM     15  C   UNL     1       6.834  -3.683  22.672  0.00  0.00    -0.043 A 
ATOM     16  C   UNL     1       5.500  -3.415  23.035  0.00  0.00    +0.004 A 
ATOM     17  C   UNL     1       4.542  -4.428  23.069  0.00  0.00    +0.000 A 
ATOM     18  C   UNL     1       4.899  -5.731  22.743  0.00  0.00    +0.000 A 
ATOM     19  C   UNL     1       6.221  -6.022  22.412  0.00  0.00    +0.000 A 
ATOM     20  C   UNL     1       7.185  -5.008  22.390  0.00  0.00    +0.004 A 
ENDBRANCH  14  15
ENDBRANCH   1  14
TORSDOF 6
ENDMDL
MODEL 6
REMARK VINA RESULT:      -6.0      1.713      2.608
REMARK  Name = 
REMARK  6 active torsions:
REMARK  status: ('A' for Active; 'I' for Inactive)
REMARK    1  A    between atoms: C_2  and  C_3
REMARK    2  A    between atoms: C_2  and  O_10
REMARK    3  A    between atoms: C_2  and  C_18
REMARK    4  A    between atoms: C_3  and  C_4
REMARK    5  A    between atoms: O_10  and  C_11
REMARK    6  A    between atoms: C_18  and  O_19
REMARK                            x       y       z     vdW  Elec       q    Type
REMARK                         _______ _______ _______ _____ _____    ______ ____
ROOT
ATOM      1  C   UNL     1       8.881  -3.550  25.011  0.00  0.00    +0.285 C 
ENDROOT
BRANCH   1   2
ATOM      2  C   UNL     1       9.461  -4.907  25.427  0.00  0.00    +0.346 C 
ATOM      3  O   UNL     1       9.581  -5.870  24.686  0.00  0.00    -0.247 OA
BRANCH   2   4
ATOM      4  O   UNL     1       9.854  -4.951  26.727  0.00  0.00    -0.478 OA
ATOM      5  H   UNL     1       9.148  -5.351  27.277  0.00  0.00    +0.295 HD
ENDBRANCH   2   4
ENDBRANCH   1   2
BRANCH   1   6
ATOM      6  O   UNL     1       9.484  -3.316  23.713  0.00  0.00    -0.477 OA
BRANCH   6   7
ATOM      7  C   UNL     1       9.571  -2.020  23.280  0.00  0.00    +0.122 A 
ATOM      8  C   UNL     1       9.366  -1.609  21.967  0.00  0.00    +0.047 A 
ATOM      9  C   UNL     1       9.598  -0.278  21.605  0.00  0.00    +0.023 A 
ATOM     10  C   UNL     1      10.009   0.645  22.564  0.00  0.00    +0.041 A 
ATOM     11 CL   UNL     1      10.299   2.277  22.109  0.00  0.00    -0.084 Cl
ATOM     12  C   UNL     1      10.194   0.244  23.884  0.00  0.00    +0.023 A 
ATOM     13  C   UNL     1       9.986  -1.092  24.239  0.00  0.00    +0.047 A 
ENDBRANCH   6   7
ENDBRANCH   1   6
BRANCH   1  14
ATOM     14  C   UNL     1       7.358  -3.658  24.855  0.00  0.00    +0.091 C 
BRANCH  14  15
ATOM     15  C   UNL     1       6.538  -4.450  25.849  0.00  0.00    -0.043 A 
ATOM     16  C   UNL     1       5.893  -5.607  25.372  0.00  0.00    +0.004 A 
ATOM     17  C   UNL     1       5.179  -6.443  26.230  0.00  0.00    +0.000 A 
ATOM     18  C   UNL     1       5.093  -6.137  27.584  0.00  0.00    +0.000 A 
ATOM     19  C   UNL     1       5.699  -4.981  28.069  0.00  0.00    +0.000 A 
ATOM     20  C   UNL     1       6.405  -4.134  27.206  0.00  0.00    +0.004 A 
ENDBRANCH  14  15
ENDBRANCH   1  14
TORSDOF 6
ENDMDL
MODEL 7
REMARK VINA RESULT:      -6.0      2.989      5.970
REMARK  Name = 
REMARK  6 active torsions:
REMARK  status: ('A' for Active; 'I' for Inactive)
REMARK    1  A    between atoms: C_2  and  C_3
REMARK    2  A    between atoms: C_2  and  O_10
REMARK    3  A    between atoms: C_2  and  C_18
REMARK    4  A    between atoms: C_3  and  C_4
REMARK    5  A    between atoms: O_10  and  C_11
REMARK    6  A    between atoms: C_18  and  O_19
REMARK                            x       y       z     vdW  Elec       q    Type
REMARK                         _______ _______ _______ _____ _____    ______ ____
ROOT
ATOM      1  C   UNL     1       8.526  -1.711  25.610  0.00  0.00    +0.285 C 
ENDROOT
BRANCH   1   2
ATOM      2  C   UNL     1       8.222  -0.698  26.720  0.00  0.00    +0.346 C 
ATOM      3  O   UNL     1       7.158  -0.116  26.859  0.00  0.00    -0.247 OA
BRANCH   2   4
ATOM      4  O   UNL     1       9.262  -0.501  27.572  0.00  0.00    -0.478 OA
ATOM      5  H   UNL     1       9.228   0.407  27.938  0.00  0.00    +0.295 HD
ENDBRANCH   2   4
ENDBRANCH   1   2
BRANCH   1   6
ATOM      6  O   UNL     1       7.405  -1.556  24.704  0.00  0.00    -0.477 OA
BRANCH   6   7
ATOM      7  C   UNL     1       7.096  -2.617  23.894  0.00  0.00    +0.122 A 
ATOM      8  C   UNL     1       7.640  -3.892  24.018  0.00  0.00    +0.047 A 
ATOM      9  C   UNL     1       7.351  -4.873  23.064  0.00  0.00    +0.023 A 
ATOM     10  C   UNL     1       6.497  -4.584  22.002  0.00  0.00    +0.041 A 
ATOM     11 CL   UNL     1       6.154  -5.793  20.830  0.00  0.00    -0.084 Cl
ATOM     12  C   UNL     1       5.933  -3.317  21.885  0.00  0.00    +0.023 A 
ATOM     13  C   UNL     1       6.243  -2.329  22.825  0.00  0.00    +0.047 A 
ENDBRANCH   6   7
ENDBRANCH   1   6
BRANCH   1  14
ATOM     14  C   UNL     1       9.825  -1.321  24.888  0.00  0.00    +0.091 C 
BRANCH  14  15
ATOM     15  C   UNL     1       9.846  -0.163  23.917  0.00  0.00    -0.043 A 
ATOM     16  C   UNL     1      10.245   1.090  24.420  0.00  0.00    +0.004 A 
ATOM     17  C   UNL     1      10.370   2.199  23.584  0.00  0.00    +0.000 A 
ATOM     18  C   UNL     1      10.096   2.079  22.227  0.00  0.00    +0.000 A 
ATOM     19  C   UNL     1       9.669   0.856  21.716  0.00  0.00    +0.000 A 
ATOM     20  C   UNL     1       9.531  -0.255  22.556  0.00  0.00    +0.004 A 
ENDBRANCH  14  15
ENDBRANCH   1  14
TORSDOF 6
ENDMDL
MODEL 8
REMARK VINA RESULT:      -5.9      1.841      2.898
REMARK  Name = 
REMARK  6 active torsions:
REMARK  status: ('A' for Active; 'I' for Inactive)
REMARK    1  A    between atoms: C_2  and  C_3
REMARK    2  A    between atoms: C_2  and  O_10
REMARK    3  A    between atoms: C_2  and  C_18
REMARK    4  A    between atoms: C_3  and  C_4
REMARK    5  A    between atoms: O_10  and  C_11
REMARK    6  A    between atoms: C_18  and  O_19
REMARK                            x       y       z     vdW  Elec       q    Type
REMARK                         _______ _______ _______ _____ _____    ______ ____
ROOT
ATOM      1  C   UNL     1       6.678  -4.492  26.537  0.00  0.00    +0.285 C 
ENDROOT
BRANCH   1   2
ATOM      2  C   UNL     1       6.562  -5.304  27.832  0.00  0.00    +0.346 C 
ATOM      3  O   UNL     1       5.667  -5.181  28.654  0.00  0.00    -0.247 OA
BRANCH   2   4
ATOM      4  O   UNL     1       7.561  -6.211  27.992  0.00  0.00    -0.478 OA
ATOM      5  H   UNL     1       8.430  -5.756  27.993  0.00  0.00    +0.295 HD
ENDBRANCH   2   4
ENDBRANCH   1   2
BRANCH   1   6
ATOM      6  O   UNL     1       8.100  -4.522  26.253  0.00  0.00    -0.477 OA
BRANCH   6   7
ATOM      7  C   UNL     1       8.659  -3.398  25.708  0.00  0.00    +0.122 A 
ATOM      8  C   UNL     1       8.471  -2.106  26.189  0.00  0.00    +0.047 A 
ATOM      9  C   UNL     1       8.988  -1.014  25.487  0.00  0.00    +0.023 A 
ATOM     10  C   UNL     1       9.717  -1.216  24.318  0.00  0.00    +0.041 A 
ATOM     11 CL   UNL     1      10.342   0.133  23.456  0.00  0.00    -0.084 Cl
ATOM     12  C   UNL     1       9.927  -2.508  23.842  0.00  0.00    +0.023 A 
ATOM     13  C   UNL     1       9.388  -3.598  24.532  0.00  0.00    +0.047 A 
ENDBRANCH   6   7
ENDBRANCH   1   6
BRANCH   1  14
ATOM     14  C   UNL     1       5.915  -5.197  25.407  0.00  0.00    +0.091 C 
BRANCH  14  15
ATOM     15  C   UNL     1       5.989  -4.678  23.989  0.00  0.00    -0.043 A 
ATOM     16  C   UNL     1       6.474  -5.561  23.006  0.00  0.00    +0.004 A 
ATOM     17  C   UNL     1       6.506  -5.198  21.660  0.00  0.00    +0.000 A 
ATOM     18  C   UNL     1       6.056  -3.943  21.269  0.00  0.00    +0.000 A 
ATOM     19  C   UNL     1       5.600  -3.044  22.230  0.00  0.00    +0.000 A 
ATOM     20  C   UNL     1       5.580  -3.402  23.583  0.00  0.00    +0.004 A 
ENDBRANCH  14  15
ENDBRANCH   1  14
TORSDOF 6
ENDMDL
MODEL 9
REMARK VINA RESULT:      -5.9      2.457      3.600
REMARK  Name = 
REMARK  6 active torsions:
REMARK  status: ('A' for Active; 'I' for Inactive)
REMARK    1  A    between atoms: C_2  and  C_3
REMARK    2  A    between atoms: C_2  and  O_10
REMARK    3  A    between atoms: C_2  and  C_18
REMARK    4  A    between atoms: C_3  and  C_4
REMARK    5  A    between atoms: O_10  and  C_11
REMARK    6  A    between atoms: C_18  and  O_19
REMARK                            x       y       z     vdW  Elec       q    Type
REMARK                         _______ _______ _______ _____ _____    ______ ____
ROOT
ATOM      1  C   UNL     1       7.336  -4.146  22.294  0.00  0.00    +0.285 C 
ENDROOT
BRANCH   1   2
ATOM      2  C   UNL     1       6.036  -4.444  21.538  0.00  0.00    +0.346 C 
ATOM      3  O   UNL     1       5.950  -5.164  20.556  0.00  0.00    -0.247 OA
BRANCH   2   4
ATOM      4  O   UNL     1       4.947  -3.831  22.074  0.00  0.00    -0.478 OA
ATOM      5  H   UNL     1       4.194  -3.880  21.448  0.00  0.00    +0.295 HD
ENDBRANCH   2   4
ENDBRANCH   1   2
BRANCH   1   6
ATOM      6  O   UNL     1       6.996  -2.986  23.094  0.00  0.00    -0.477 OA
BRANCH   6   7
ATOM      7  C   UNL     1       7.982  -2.063  23.321  0.00  0.00    +0.122 A 
ATOM      8  C   UNL     1       9.010  -1.768  22.430  0.00  0.00    +0.047 A 
ATOM      9  C   UNL     1      10.036  -0.898  22.808  0.00  0.00    +0.023 A 
ATOM     10  C   UNL     1      10.019  -0.302  24.067  0.00  0.00    +0.041 A 
ATOM     11 CL   UNL     1      11.290   0.761  24.526  0.00  0.00    -0.084 Cl
ATOM     12  C   UNL     1       8.982  -0.576  24.954  0.00  0.00    +0.023 A 
ATOM     13  C   UNL     1       7.969  -1.467  24.585  0.00  0.00    +0.047 A 
ENDBRANCH   6   7
ENDBRANCH   1   6
BRANCH   1  14
ATOM     14  C   UNL     1       7.686  -5.321  23.217  0.00  0.00    +0.091 C 
BRANCH  14  15
ATOM     15  C   UNL     1       7.348  -5.267  24.690  0.00  0.00    -0.043 A 
ATOM     16  C   UNL     1       6.018  -5.549  25.054  0.00  0.00    +0.004 A 
ATOM     17  C   UNL     1       5.629  -5.600  26.393  0.00  0.00    +0.000 A 
ATOM     18  C   UNL     1       6.563  -5.367  27.395  0.00  0.00    +0.000 A 
ATOM     19  C   UNL     1       7.877  -5.056  27.054  0.00  0.00    +0.000 A 
ATOM     20  C   UNL     1       8.265  -4.992  25.711  0.00  0.00    +0.004 A 
ENDBRANCH  14  15
ENDBRANCH   1  14
TORSDOF 6
ENDMDL
