MODEL 1
REMARK VINA RESULT:      -6.3      0.000      0.000
REMARK  Name = 
REMARK  16 active torsions:
REMARK  status: ('A' for Active; 'I' for Inactive)
REMARK    1  A    between atoms: C_1  and  C_2
REMARK    2  A    between atoms: C_2  and  C_4
REMARK    3  A    between atoms: C_8  and  C_9
REMARK    4  A    between atoms: C_10  and  C_11
REMARK    5  A    between atoms: C_11  and  C_12
REMARK    6  A    between atoms: C_12  and  C_13
REMARK    7  A    between atoms: C_13  and  O_14
REMARK    8  A    between atoms: C_28  and  C_29
REMARK    9  A    between atoms: C_30  and  C_31
REMARK   10  A    between atoms: C_31  and  O_32
REMARK   11  A    between atoms: C_34  and  C_35
REMARK   12  A    between atoms: C_36  and  C_37
REMARK   13  A    between atoms: C_38  and  C_39
REMARK   14  A    between atoms: C_39  and  C_40
REMARK   15  A    between atoms: C_40  and  C_41
REMARK   16  A    between atoms: C_41  and  O_42
REMARK                            x       y       z     vdW  Elec       q    Type
REMARK                         _______ _______ _______ _____ _____    ______ ____
ROOT
ATOM      1  C   UNL     1       3.230   3.366  23.090  0.00  0.00    +0.000 A 
ATOM      2  C   UNL     1       2.734   3.666  24.386  0.00  0.00    +0.000 A 
ATOM      3  C   UNL     1       1.493   4.406  24.729  0.00  0.00    +0.000 C 
ATOM      4  C   UNL     1       3.704   3.221  25.277  0.00  0.00    +0.000 A 
ATOM      5  N   UNL     1       4.585   2.599  24.561  0.00  0.00    +0.000 N 
ATOM      6 FE   UNL     1       4.942   0.855  25.050  0.00  0.00    +0.000 Fe
ATOM      7  N   UNL     1       5.192   1.408  26.831  0.00  0.00    +1.000 N 
ATOM      8  C   UNL     1       5.017   2.688  27.295  0.00  0.00    +0.000 C 
ATOM      9  C   UNL     1       5.695   2.720  28.574  0.00  0.00    +0.000 C 
ATOM     10  C   UNL     1       5.795   1.429  28.947  0.00  0.00    +0.000 C 
ATOM     11  C   UNL     1       6.365   0.851  30.187  0.00  0.00    +0.000 C 
ATOM     12  C   UNL     1       5.312   0.642  27.827  0.00  0.00    +0.000 C 
ATOM     13  C   UNL     1       4.721  -0.717  27.741  0.00  0.00    +0.000 C 
ATOM     14  C   UNL     1       4.588  -1.326  26.580  0.00  0.00    +0.000 A 
ATOM     15  C   UNL     1       3.954  -2.479  26.184  0.00  0.00    +0.000 A 
ATOM     16  C   UNL     1       2.837  -3.151  26.927  0.00  0.00    +0.000 C 
ATOM     17  C   UNL     1       4.542  -2.809  24.953  0.00  0.00    +0.000 A 
ATOM     18  C   UNL     1       5.432  -1.785  24.684  0.00  0.00    +0.000 A 
ATOM     19  C   UNL     1       6.378  -1.642  23.767  0.00  0.00    +0.000 C 
ATOM     20  C   UNL     1       7.027  -0.323  23.548  0.00  0.00    +0.000 C 
ATOM     21  C   UNL     1       8.231   0.100  22.830  0.00  0.00    +0.000 C 
ATOM     22  C   UNL     1       8.040   1.395  22.518  0.00  0.00    +0.000 C 
ATOM     23  C   UNL     1       9.007   2.362  21.951  0.00  0.00    +0.000 C 
ATOM     24  C   UNL     1       6.706   1.713  22.979  0.00  0.00    +0.000 C 
ATOM     25  C   UNL     1       5.724   2.545  22.520  0.00  0.00    +0.000 C 
ATOM     26  N   UNL     1       5.274  -0.868  25.588  0.00  0.00    +0.000 N 
ATOM     27  N   UNL     1       6.393   0.726  23.873  0.00  0.00    +1.000 N 
ATOM     28  C   UNL     1       4.112   3.495  26.677  0.00  0.00    +0.000 C 
ATOM     29  C   UNL     1       4.479   2.782  23.290  0.00  0.00    +0.000 A 
ENDROOT
BRANCH   1  31
ATOM     30  C   UNL     1       1.899   2.623  21.022  0.00  0.00    +0.000 C 
ATOM     31  C   UNL     1       2.608   3.698  21.808  0.00  0.00    +0.000 C 
ATOM     32  O   UNL     1       2.755   4.814  21.340  0.00  0.00    +0.000 OA
ENDBRANCH   1  31
BRANCH   9  33
ATOM     33  C   UNL     1       6.230   3.917  29.218  0.00  0.00    +0.000 C 
ATOM     34  C   UNL     1       5.509   4.546  30.165  0.00  0.00    +0.000 C 
BRANCH  33  35
ATOM     35  O   UNL     1       7.476   4.315  28.913  0.00  0.00    +0.000 OA
ATOM     36  H   UNL     1       8.068   3.769  28.382  0.00  0.00    +0.000 HD
ENDBRANCH  33  35
ENDBRANCH   9  33
BRANCH  17  37
ATOM     37  C   UNL     1       4.275  -3.978  24.059  0.00  0.00    +0.000 C 
BRANCH  37  38
ATOM     38  C   UNL     1       5.179  -5.166  24.336  0.00  0.00    +0.000 C 
BRANCH  38  39
ATOM     39  C   UNL     1       6.025  -5.586  23.188  0.00  0.00    +0.000 C 
ATOM     40  O   UNL     1       7.122  -5.066  23.057  0.00  0.00    +0.000 OA
BRANCH  39  41
ATOM     41  O   UNL     1       5.613  -6.509  22.296  0.00  0.00    +0.000 OA
ATOM     42  H   UNL     1       5.770  -7.456  22.415  0.00  0.00    +0.000 HD
ENDBRANCH  39  41
ENDBRANCH  38  39
ENDBRANCH  37  38
ENDBRANCH  17  37
BRANCH  21  43
ATOM     43  C   UNL     1       9.494  -0.693  22.681  0.00  0.00    +0.000 C 
BRANCH  43  44
ATOM     44  C   UNL     1      10.008  -1.130  24.034  0.00  0.00    +0.000 C 
BRANCH  44  45
ATOM     45  C   UNL     1      10.313   0.022  24.942  0.00  0.00    +0.000 C 
ATOM     46  O   UNL     1      11.217   0.778  24.631  0.00  0.00    +0.000 OA
BRANCH  45  47
ATOM     47  O   UNL     1       9.651   0.235  26.103  0.00  0.00    +0.000 OA
ATOM     48  H   UNL     1       9.170   1.049  26.305  0.00  0.00    +0.000 HD
ENDBRANCH  45  47
ENDBRANCH  44  45
ENDBRANCH  43  44
ENDBRANCH  21  43
TORSDOF 11
ENDMDL
MODEL 2
REMARK VINA RESULT:      -6.2      2.571      7.147
REMARK  Name = 
REMARK  16 active torsions:
REMARK  status: ('A' for Active; 'I' for Inactive)
REMARK    1  A    between atoms: C_1  and  C_2
REMARK    2  A    between atoms: C_2  and  C_4
REMARK    3  A    between atoms: C_8  and  C_9
REMARK    4  A    between atoms: C_10  and  C_11
REMARK    5  A    between atoms: C_11  and  C_12
REMARK    6  A    between atoms: C_12  and  C_13
REMARK    7  A    between atoms: C_13  and  O_14
REMARK    8  A    between atoms: C_28  and  C_29
REMARK    9  A    between atoms: C_30  and  C_31
REMARK   10  A    between atoms: C_31  and  O_32
REMARK   11  A    between atoms: C_34  and  C_35
REMARK   12  A    between atoms: C_36  and  C_37
REMARK   13  A    between atoms: C_38  and  C_39
REMARK   14  A    between atoms: C_39  and  C_40
REMARK   15  A    between atoms: C_40  and  C_41
REMARK   16  A    between atoms: C_41  and  O_42
REMARK                            x       y       z     vdW  Elec       q    Type
REMARK                         _______ _______ _______ _____ _____    ______ ____
ROOT
ATOM      1  C   UNL     1       5.563   2.136  28.715  0.00  0.00    +0.000 A 
ATOM      2  C   UNL     1       4.834   3.351  28.621  0.00  0.00    +0.000 A 
ATOM      3  C   UNL     1       4.404   4.236  29.734  0.00  0.00    +0.000 C 
ATOM      4  C   UNL     1       4.507   3.496  27.278  0.00  0.00    +0.000 A 
ATOM      5  N   UNL     1       5.117   2.537  26.659  0.00  0.00    +0.000 N 
ATOM      6 FE   UNL     1       6.235   3.045  25.280  0.00  0.00    +0.000 Fe
ATOM      7  N   UNL     1       4.855   4.096  24.551  0.00  0.00    +1.000 N 
ATOM      8  C   UNL     1       3.617   4.281  25.116  0.00  0.00    +0.000 C 
ATOM      9  C   UNL     1       2.789   4.797  24.046  0.00  0.00    +0.000 C 
ATOM     10  C   UNL     1       3.657   5.285  23.139  0.00  0.00    +0.000 C 
ATOM     11  C   UNL     1       3.387   5.971  21.853  0.00  0.00    +0.000 C 
ATOM     12  C   UNL     1       4.983   4.924  23.607  0.00  0.00    +0.000 C 
ATOM     13  C   UNL     1       6.323   5.522  23.377  0.00  0.00    +0.000 C 
ATOM     14  C   UNL     1       7.420   4.872  23.704  0.00  0.00    +0.000 A 
ATOM     15  C   UNL     1       8.748   5.222  23.756  0.00  0.00    +0.000 A 
ATOM     16  C   UNL     1       9.268   6.625  23.870  0.00  0.00    +0.000 C 
ATOM     17  C   UNL     1       9.444   4.003  23.737  0.00  0.00    +0.000 A 
ATOM     18  C   UNL     1       8.468   3.023  23.746  0.00  0.00    +0.000 A 
ATOM     19  C   UNL     1       8.520   1.711  23.565  0.00  0.00    +0.000 C 
ATOM     20  C   UNL     1       7.344   0.857  23.875  0.00  0.00    +0.000 C 
ATOM     21  C   UNL     1       6.994  -0.530  23.558  0.00  0.00    +0.000 C 
ATOM     22  C   UNL     1       6.119  -0.915  24.504  0.00  0.00    +0.000 C 
ATOM     23  C   UNL     1       5.310  -2.155  24.567  0.00  0.00    +0.000 C 
ATOM     24  C   UNL     1       6.010   0.205  25.414  0.00  0.00    +0.000 C 
ATOM     25  C   UNL     1       5.814   0.308  26.762  0.00  0.00    +0.000 C 
ATOM     26  N   UNL     1       7.318   3.601  23.907  0.00  0.00    +0.000 N 
ATOM     27  N   UNL     1       6.494   1.278  24.717  0.00  0.00    +1.000 N 
ATOM     28  C   UNL     1       3.496   4.222  26.470  0.00  0.00    +0.000 C 
ATOM     29  C   UNL     1       5.600   1.619  27.422  0.00  0.00    +0.000 A 
ENDROOT
BRANCH   1  31
ATOM     30  C   UNL     1       7.462   1.836  30.418  0.00  0.00    +0.000 C 
ATOM     31  C   UNL     1       6.072   1.505  29.932  0.00  0.00    +0.000 C 
ATOM     32  O   UNL     1       5.410   0.644  30.485  0.00  0.00    +0.000 OA
ENDBRANCH   1  31
BRANCH   9  33
ATOM     33  C   UNL     1       1.335   4.685  23.973  0.00  0.00    +0.000 C 
ATOM     34  C   UNL     1       0.766   3.486  23.746  0.00  0.00    +0.000 C 
BRANCH  33  35
ATOM     35  O   UNL     1       0.587   5.773  24.224  0.00  0.00    +0.000 OA
ATOM     36  H   UNL     1       0.357   6.033  25.124  0.00  0.00    +0.000 HD
ENDBRANCH  33  35
ENDBRANCH   9  33
BRANCH  17  37
ATOM     37  C   UNL     1      10.918   3.754  23.749  0.00  0.00    +0.000 C 
BRANCH  37  38
ATOM     38  C   UNL     1      11.694   4.689  22.838  0.00  0.00    +0.000 C 
BRANCH  38  39
ATOM     39  C   UNL     1      12.914   5.281  23.447  0.00  0.00    +0.000 C 
ATOM     40  O   UNL     1      12.776   6.113  24.330  0.00  0.00    +0.000 OA
BRANCH  39  41
ATOM     41  O   UNL     1      14.154   4.931  23.049  0.00  0.00    +0.000 OA
ATOM     42  H   UNL     1      14.327   4.142  22.518  0.00  0.00    +0.000 HD
ENDBRANCH  39  41
ENDBRANCH  38  39
ENDBRANCH  37  38
ENDBRANCH  17  37
BRANCH  21  43
ATOM     43  C   UNL     1       7.368  -1.271  22.311  0.00  0.00    +0.000 C 
BRANCH  43  44
ATOM     44  C   UNL     1       8.564  -2.161  22.562  0.00  0.00    +0.000 C 
BRANCH  44  45
ATOM     45  C   UNL     1       9.856  -1.538  22.128  0.00  0.00    +0.000 C 
ATOM     46  O   UNL     1      10.891  -1.959  22.615  0.00  0.00    +0.000 OA
BRANCH  45  47
ATOM     47  O   UNL     1       9.915  -0.512  21.248  0.00  0.00    +0.000 OA
ATOM     48  H   UNL     1      10.121   0.399  21.499  0.00  0.00    +0.000 HD
ENDBRANCH  45  47
ENDBRANCH  44  45
ENDBRANCH  43  44
ENDBRANCH  21  43
TORSDOF 11
ENDMDL
MODEL 3
REMARK VINA RESULT:      -5.5      1.653      2.169
REMARK  Name = 
REMARK  16 active torsions:
REMARK  status: ('A' for Active; 'I' for Inactive)
REMARK    1  A    between atoms: C_1  and  C_2
REMARK    2  A    between atoms: C_2  and  C_4
REMARK    3  A    between atoms: C_8  and  C_9
REMARK    4  A    between atoms: C_10  and  C_11
REMARK    5  A    between atoms: C_11  and  C_12
REMARK    6  A    between atoms: C_12  and  C_13
REMARK    7  A    between atoms: C_13  and  O_14
REMARK    8  A    between atoms: C_28  and  C_29
REMARK    9  A    between atoms: C_30  and  C_31
REMARK   10  A    between atoms: C_31  and  O_32
REMARK   11  A    between atoms: C_34  and  C_35
REMARK   12  A    between atoms: C_36  and  C_37
REMARK   13  A    between atoms: C_38  and  C_39
REMARK   14  A    between atoms: C_39  and  C_40
REMARK   15  A    between atoms: C_40  and  C_41
REMARK   16  A    between atoms: C_41  and  O_42
REMARK                            x       y       z     vdW  Elec       q    Type
REMARK                         _______ _______ _______ _____ _____    ______ ____
ROOT
ATOM      1  C   UNL     1       2.796   3.821  22.576  0.00  0.00    +0.000 A 
ATOM      2  C   UNL     1       1.927   3.505  23.654  0.00  0.00    +0.000 A 
ATOM      3  C   UNL     1       0.444   3.579  23.670  0.00  0.00    +0.000 C 
ATOM      4  C   UNL     1       2.752   3.213  24.734  0.00  0.00    +0.000 A 
ATOM      5  N   UNL     1       3.960   3.219  24.270  0.00  0.00    +0.000 N 
ATOM      6 FE   UNL     1       4.942   1.680  24.548  0.00  0.00    +0.000 Fe
ATOM      7  N   UNL     1       4.485   1.720  26.373  0.00  0.00    +1.000 N 
ATOM      8  C   UNL     1       3.644   2.633  26.959  0.00  0.00    +0.000 C 
ATOM      9  C   UNL     1       3.910   2.531  28.379  0.00  0.00    +0.000 C 
ATOM     10  C   UNL     1       4.493   1.327  28.538  0.00  0.00    +0.000 C 
ATOM     11  C   UNL     1       4.951   0.662  29.780  0.00  0.00    +0.000 C 
ATOM     12  C   UNL     1       4.700   0.795  27.203  0.00  0.00    +0.000 C 
ATOM     13  C   UNL     1       4.829  -0.592  26.689  0.00  0.00    +0.000 C 
ATOM     14  C   UNL     1       5.265  -0.825  25.468  0.00  0.00    +0.000 A 
ATOM     15  C   UNL     1       5.337  -1.953  24.688  0.00  0.00    +0.000 A 
ATOM     16  C   UNL     1       4.506  -3.189  24.875  0.00  0.00    +0.000 C 
ATOM     17  C   UNL     1       6.283  -1.648  23.697  0.00  0.00    +0.000 A 
ATOM     18  C   UNL     1       6.646  -0.333  23.929  0.00  0.00    +0.000 A 
ATOM     19  C   UNL     1       7.611   0.427  23.432  0.00  0.00    +0.000 C 
ATOM     20  C   UNL     1       7.623   1.892  23.678  0.00  0.00    +0.000 C 
ATOM     21  C   UNL     1       8.636   2.935  23.501  0.00  0.00    +0.000 C 
ATOM     22  C   UNL     1       7.959   4.090  23.368  0.00  0.00    +0.000 C 
ATOM     23  C   UNL     1       8.485   5.474  23.342  0.00  0.00    +0.000 C 
ATOM     24  C   UNL     1       6.559   3.724  23.389  0.00  0.00    +0.000 C 
ATOM     25  C   UNL     1       5.447   4.219  22.769  0.00  0.00    +0.000 C 
ATOM     26  N   UNL     1       5.881   0.136  24.866  0.00  0.00    +0.000 N 
ATOM     27  N   UNL     1       6.525   2.472  23.938  0.00  0.00    +1.000 N 
ATOM     28  C   UNL     1       2.647   3.184  26.214  0.00  0.00    +0.000 C 
ATOM     29  C   UNL     1       4.086   3.723  23.092  0.00  0.00    +0.000 A 
ENDROOT
BRANCH   1  31
ATOM     30  C   UNL     1       2.199   5.734  20.970  0.00  0.00    +0.000 C 
ATOM     31  C   UNL     1       2.414   4.265  21.236  0.00  0.00    +0.000 C 
ATOM     32  O   UNL     1       2.176   3.436  20.374  0.00  0.00    +0.000 OA
ENDBRANCH   1  31
BRANCH   9  33
ATOM     33  C   UNL     1       3.674   3.586  29.361  0.00  0.00    +0.000 C 
ATOM     34  C   UNL     1       2.516   3.616  30.046  0.00  0.00    +0.000 C 
BRANCH  33  35
ATOM     35  O   UNL     1       4.662   4.458  29.626  0.00  0.00    +0.000 OA
ATOM     36  H   UNL     1       5.551   4.341  29.270  0.00  0.00    +0.000 HD
ENDBRANCH  33  35
ENDBRANCH   9  33
BRANCH  17  37
ATOM     37  C   UNL     1       6.795  -2.500  22.581  0.00  0.00    +0.000 C 
BRANCH  37  38
ATOM     38  C   UNL     1       8.166  -3.093  22.856  0.00  0.00    +0.000 C 
BRANCH  38  39
ATOM     39  C   UNL     1       8.157  -4.314  23.705  0.00  0.00    +0.000 C 
ATOM     40  O   UNL     1       9.108  -4.512  24.444  0.00  0.00    +0.000 OA
BRANCH  39  41
ATOM     41  O   UNL     1       7.141  -5.200  23.672  0.00  0.00    +0.000 OA
ATOM     42  H   UNL     1       7.261  -6.138  23.877  0.00  0.00    +0.000 HD
ENDBRANCH  39  41
ENDBRANCH  38  39
ENDBRANCH  37  38
ENDBRANCH  17  37
BRANCH  21  43
ATOM     43  C   UNL     1      10.116   2.765  23.663  0.00  0.00    +0.000 C 
BRANCH  43  44
ATOM     44  C   UNL     1      10.589   1.524  22.942  0.00  0.00    +0.000 C 
BRANCH  44  45
ATOM     45  C   UNL     1      10.759   0.348  23.854  0.00  0.00    +0.000 C 
ATOM     46  O   UNL     1      10.852  -0.760  23.355  0.00  0.00    +0.000 OA
BRANCH  45  47
ATOM     47  O   UNL     1      10.780   0.463  25.203  0.00  0.00    +0.000 OA
ATOM     48  H   UNL     1      11.327  -0.087  25.779  0.00  0.00    +0.000 HD
ENDBRANCH  45  47
ENDBRANCH  44  45
ENDBRANCH  43  44
ENDBRANCH  21  43
TORSDOF 11
ENDMDL
MODEL 4
REMARK VINA RESULT:      -5.2      2.545      7.509
REMARK  Name = 
REMARK  16 active torsions:
REMARK  status: ('A' for Active; 'I' for Inactive)
REMARK    1  A    between atoms: C_1  and  C_2
REMARK    2  A    between atoms: C_2  and  C_4
REMARK    3  A    between atoms: C_8  and  C_9
REMARK    4  A    between atoms: C_10  and  C_11
REMARK    5  A    between atoms: C_11  and  C_12
REMARK    6  A    between atoms: C_12  and  C_13
REMARK    7  A    between atoms: C_13  and  O_14
REMARK    8  A    between atoms: C_28  and  C_29
REMARK    9  A    between atoms: C_30  and  C_31
REMARK   10  A    between atoms: C_31  and  O_32
REMARK   11  A    between atoms: C_34  and  C_35
REMARK   12  A    between atoms: C_36  and  C_37
REMARK   13  A    between atoms: C_38  and  C_39
REMARK   14  A    between atoms: C_39  and  C_40
REMARK   15  A    between atoms: C_40  and  C_41
REMARK   16  A    between atoms: C_41  and  O_42
REMARK                            x       y       z     vdW  Elec       q    Type
REMARK                         _______ _______ _______ _____ _____    ______ ____
ROOT
ATOM      1  C   UNL     1       8.130  -0.998  24.210  0.00  0.00    +0.000 A 
ATOM      2  C   UNL     1       8.698  -0.282  23.122  0.00  0.00    +0.000 A 
ATOM      3  C   UNL     1       9.266  -0.843  21.870  0.00  0.00    +0.000 C 
ATOM      4  C   UNL     1       8.714   1.051  23.512  0.00  0.00    +0.000 A 
ATOM      5  N   UNL     1       8.083   1.099  24.641  0.00  0.00    +0.000 N 
ATOM      6 FE   UNL     1       6.651   2.262  24.721  0.00  0.00    +0.000 Fe
ATOM      7  N   UNL     1       7.732   3.637  24.029  0.00  0.00    +1.000 N 
ATOM      8  C   UNL     1       9.037   3.494  23.628  0.00  0.00    +0.000 C 
ATOM      9  C   UNL     1       9.561   4.842  23.565  0.00  0.00    +0.000 C 
ATOM     10  C   UNL     1       8.474   5.634  23.477  0.00  0.00    +0.000 C 
ATOM     11  C   UNL     1       8.394   7.108  23.346  0.00  0.00    +0.000 C 
ATOM     12  C   UNL     1       7.322   4.765  23.636  0.00  0.00    +0.000 C 
ATOM     13  C   UNL     1       5.912   4.881  23.186  0.00  0.00    +0.000 C 
ATOM     14  C   UNL     1       4.980   4.083  23.665  0.00  0.00    +0.000 A 
ATOM     15  C   UNL     1       3.666   3.856  23.333  0.00  0.00    +0.000 A 
ATOM     16  C   UNL     1       3.046   4.162  22.001  0.00  0.00    +0.000 C 
ATOM     17  C   UNL     1       3.107   3.247  24.467  0.00  0.00    +0.000 A 
ATOM     18  C   UNL     1       4.154   3.099  25.359  0.00  0.00    +0.000 A 
ATOM     19  C   UNL     1       4.195   2.752  26.637  0.00  0.00    +0.000 C 
ATOM     20  C   UNL     1       5.489   2.430  27.293  0.00  0.00    +0.000 C 
ATOM     21  C   UNL     1       5.899   2.272  28.690  0.00  0.00    +0.000 C 
ATOM     22  C   UNL     1       6.990   1.485  28.669  0.00  0.00    +0.000 C 
ATOM     23  C   UNL     1       7.912   1.151  29.779  0.00  0.00    +0.000 C 
ATOM     24  C   UNL     1       7.180   1.120  27.281  0.00  0.00    +0.000 C 
ATOM     25  C   UNL     1       7.649  -0.001  26.658  0.00  0.00    +0.000 C 
ATOM     26  N   UNL     1       5.249   3.445  24.754  0.00  0.00    +0.000 N 
ATOM     27  N   UNL     1       6.454   2.035  26.569  0.00  0.00    +1.000 N 
ATOM     28  C   UNL     1       9.451   2.288  23.152  0.00  0.00    +0.000 C 
ATOM     29  C   UNL     1       7.868  -0.045  25.191  0.00  0.00    +0.000 A 
ENDROOT
BRANCH   1  31
ATOM     30  C   UNL     1       9.059  -3.284  24.922  0.00  0.00    +0.000 C 
ATOM     31  C   UNL     1       7.959  -2.447  24.319  0.00  0.00    +0.000 C 
ATOM     32  O   UNL     1       6.974  -2.974  23.831  0.00  0.00    +0.000 OA
ENDBRANCH   1  31
BRANCH   9  33
ATOM     33  C   UNL     1      10.969   5.209  23.685  0.00  0.00    +0.000 C 
ATOM     34  C   UNL     1      11.352   6.098  24.621  0.00  0.00    +0.000 C 
BRANCH  33  35
ATOM     35  O   UNL     1      11.872   4.577  22.915  0.00  0.00    +0.000 OA
ATOM     36  H   UNL     1      12.152   4.936  22.064  0.00  0.00    +0.000 HD
ENDBRANCH  33  35
ENDBRANCH   9  33
BRANCH  17  37
ATOM     37  C   UNL     1       1.702   2.794  24.703  0.00  0.00    +0.000 C 
BRANCH  37  38
ATOM     38  C   UNL     1       0.712   3.940  24.825  0.00  0.00    +0.000 C 
BRANCH  38  39
ATOM     39  C   UNL     1       1.075   4.972  25.832  0.00  0.00    +0.000 C 
ATOM     40  O   UNL     1       1.283   6.111  25.445  0.00  0.00    +0.000 OA
BRANCH  39  41
ATOM     41  O   UNL     1       1.185   4.682  27.144  0.00  0.00    +0.000 OA
ATOM     42  H   UNL     1       1.851   5.091  27.714  0.00  0.00    +0.000 HD
ENDBRANCH  39  41
ENDBRANCH  38  39
ENDBRANCH  37  38
ENDBRANCH  17  37
BRANCH  21  43
ATOM     43  C   UNL     1       5.342   3.019  29.864  0.00  0.00    +0.000 C 
BRANCH  43  44
ATOM     44  C   UNL     1       5.559   4.505  29.697  0.00  0.00    +0.000 C 
BRANCH  44  45
ATOM     45  C   UNL     1       7.003   4.869  29.533  0.00  0.00    +0.000 C 
ATOM     46  O   UNL     1       7.750   4.705  30.482  0.00  0.00    +0.000 OA
BRANCH  45  47
ATOM     47  O   UNL     1       7.501   5.400  28.391  0.00  0.00    +0.000 OA
ATOM     48  H   UNL     1       8.412   5.274  28.094  0.00  0.00    +0.000 HD
ENDBRANCH  45  47
ENDBRANCH  44  45
ENDBRANCH  43  44
ENDBRANCH  21  43
TORSDOF 11
ENDMDL
MODEL 5
REMARK VINA RESULT:      -5.2      2.505      7.512
REMARK  Name = 
REMARK  16 active torsions:
REMARK  status: ('A' for Active; 'I' for Inactive)
REMARK    1  A    between atoms: C_1  and  C_2
REMARK    2  A    between atoms: C_2  and  C_4
REMARK    3  A    between atoms: C_8  and  C_9
REMARK    4  A    between atoms: C_10  and  C_11
REMARK    5  A    between atoms: C_11  and  C_12
REMARK    6  A    between atoms: C_12  and  C_13
REMARK    7  A    between atoms: C_13  and  O_14
REMARK    8  A    between atoms: C_28  and  C_29
REMARK    9  A    between atoms: C_30  and  C_31
REMARK   10  A    between atoms: C_31  and  O_32
REMARK   11  A    between atoms: C_34  and  C_35
REMARK   12  A    between atoms: C_36  and  C_37
REMARK   13  A    between atoms: C_38  and  C_39
REMARK   14  A    between atoms: C_39  and  C_40
REMARK   15  A    between atoms: C_40  and  C_41
REMARK   16  A    between atoms: C_41  and  O_42
REMARK                            x       y       z     vdW  Elec       q    Type
REMARK                         _______ _______ _______ _____ _____    ______ ____
ROOT
ATOM      1  C   UNL     1       8.565   4.562  23.568  0.00  0.00    +0.000 A 
ATOM      2  C   UNL     1       9.565   3.557  23.650  0.00  0.00    +0.000 A 
ATOM      3  C   UNL     1      11.016   3.701  23.367  0.00  0.00    +0.000 C 
ATOM      4  C   UNL     1       8.894   2.376  23.947  0.00  0.00    +0.000 A 
ATOM      5  N   UNL     1       7.662   2.712  24.156  0.00  0.00    +0.000 N 
ATOM      6 FE   UNL     1       6.949   2.203  25.782  0.00  0.00    +0.000 Fe
ATOM      7  N   UNL     1       7.557   0.446  25.497  0.00  0.00    +1.000 N 
ATOM      8  C   UNL     1       8.302   0.030  24.421  0.00  0.00    +0.000 C 
ATOM      9  C   UNL     1       8.182  -1.413  24.418  0.00  0.00    +0.000 C 
ATOM     10  C   UNL     1       7.803  -1.734  25.670  0.00  0.00    +0.000 C 
ATOM     11  C   UNL     1       7.563  -3.070  26.266  0.00  0.00    +0.000 C 
ATOM     12  C   UNL     1       7.559  -0.479  26.356  0.00  0.00    +0.000 C 
ATOM     13  C   UNL     1       7.593  -0.101  27.792  0.00  0.00    +0.000 C 
ATOM     14  C   UNL     1       7.089   1.044  28.204  0.00  0.00    +0.000 A 
ATOM     15  C   UNL     1       7.116   1.714  29.403  0.00  0.00    +0.000 A 
ATOM     16  C   UNL     1       8.136   1.508  30.485  0.00  0.00    +0.000 C 
ATOM     17  C   UNL     1       6.050   2.624  29.334  0.00  0.00    +0.000 A 
ATOM     18  C   UNL     1       5.516   2.468  28.067  0.00  0.00    +0.000 A 
ATOM     19  C   UNL     1       4.408   2.926  27.503  0.00  0.00    +0.000 C 
ATOM     20  C   UNL     1       4.199   2.807  26.036  0.00  0.00    +0.000 C 
ATOM     21  C   UNL     1       3.030   2.966  25.169  0.00  0.00    +0.000 C 
ATOM     22  C   UNL     1       3.513   3.267  23.950  0.00  0.00    +0.000 C 
ATOM     23  C   UNL     1       2.785   3.356  22.663  0.00  0.00    +0.000 C 
ATOM     24  C   UNL     1       4.948   3.359  24.111  0.00  0.00    +0.000 C 
ATOM     25  C   UNL     1       5.913   4.131  23.529  0.00  0.00    +0.000 C 
ATOM     26  N   UNL     1       6.284   1.659  27.404  0.00  0.00    +0.000 N 
ATOM     27  N   UNL     1       5.217   2.711  25.285  0.00  0.00    +1.000 N 
ATOM     28  C   UNL     1       9.134   0.918  23.813  0.00  0.00    +0.000 C 
ATOM     29  C   UNL     1       7.356   3.909  23.795  0.00  0.00    +0.000 A 
ENDROOT
BRANCH   1  31
ATOM     30  C   UNL     1       9.564   6.864  24.116  0.00  0.00    +0.000 C 
ATOM     31  C   UNL     1       8.754   5.968  23.211  0.00  0.00    +0.000 C 
ATOM     32  O   UNL     1       8.174   6.426  22.242  0.00  0.00    +0.000 OA
ENDBRANCH   1  31
BRANCH   9  33
ATOM     33  C   UNL     1       8.345  -2.272  23.248  0.00  0.00    +0.000 C 
ATOM     34  C   UNL     1       7.264  -2.657  22.544  0.00  0.00    +0.000 C 
BRANCH  33  35
ATOM     35  O   UNL     1       9.588  -2.588  22.844  0.00  0.00    +0.000 OA
ATOM     36  H   UNL     1       9.861  -2.495  21.924  0.00  0.00    +0.000 HD
ENDBRANCH  33  35
ENDBRANCH   9  33
BRANCH  17  37
ATOM     37  C   UNL     1       5.573   3.604  30.357  0.00  0.00    +0.000 C 
BRANCH  37  38
ATOM     38  C   UNL     1       5.799   5.051  29.955  0.00  0.00    +0.000 C 
BRANCH  38  39
ATOM     39  C   UNL     1       7.193   5.374  29.549  0.00  0.00    +0.000 C 
ATOM     40  O   UNL     1       8.035   5.505  30.424  0.00  0.00    +0.000 OA
BRANCH  39  41
ATOM     41  O   UNL     1       7.544   5.530  28.257  0.00  0.00    +0.000 OA
ATOM     42  H   UNL     1       8.122   4.907  27.795  0.00  0.00    +0.000 HD
ENDBRANCH  39  41
ENDBRANCH  38  39
ENDBRANCH  37  38
ENDBRANCH  17  37
BRANCH  21  43
ATOM     43  C   UNL     1       1.613   2.638  25.528  0.00  0.00    +0.000 C 
BRANCH  43  44
ATOM     44  C   UNL     1       1.012   3.736  26.375  0.00  0.00    +0.000 C 
BRANCH  44  45
ATOM     45  C   UNL     1       1.053   5.077  25.706  0.00  0.00    +0.000 C 
ATOM     46  O   UNL     1       1.616   5.991  26.281  0.00  0.00    +0.000 OA
BRANCH  45  47
ATOM     47  O   UNL     1       0.464   5.317  24.511  0.00  0.00    +0.000 OA
ATOM     48  H   UNL     1      -0.296   5.903  24.396  0.00  0.00    +0.000 HD
ENDBRANCH  45  47
ENDBRANCH  44  45
ENDBRANCH  43  44
ENDBRANCH  21  43
TORSDOF 11
ENDMDL
MODEL 6
REMARK VINA RESULT:      -5.2      1.656      2.188
REMARK  Name = 
REMARK  16 active torsions:
REMARK  status: ('A' for Active; 'I' for Inactive)
REMARK    1  A    between atoms: C_1  and  C_2
REMARK    2  A    between atoms: C_2  and  C_4
REMARK    3  A    between atoms: C_8  and  C_9
REMARK    4  A    between atoms: C_10  and  C_11
REMARK    5  A    between atoms: C_11  and  C_12
REMARK    6  A    between atoms: C_12  and  C_13
REMARK    7  A    between atoms: C_13  and  O_14
REMARK    8  A    between atoms: C_28  and  C_29
REMARK    9  A    between atoms: C_30  and  C_31
REMARK   10  A    between atoms: C_31  and  O_32
REMARK   11  A    between atoms: C_34  and  C_35
REMARK   12  A    between atoms: C_36  and  C_37
REMARK   13  A    between atoms: C_38  and  C_39
REMARK   14  A    between atoms: C_39  and  C_40
REMARK   15  A    between atoms: C_40  and  C_41
REMARK   16  A    between atoms: C_41  and  O_42
REMARK                            x       y       z     vdW  Elec       q    Type
REMARK                         _______ _______ _______ _____ _____    ______ ____
ROOT
ATOM      1  C   UNL     1       3.344   3.801  22.939  0.00  0.00    +0.000 A 
ATOM      2  C   UNL     1       3.051   4.521  24.127  0.00  0.00    +0.000 A 
ATOM      3  C   UNL     1       1.928   5.465  24.357  0.00  0.00    +0.000 C 
ATOM      4  C   UNL     1       4.093   4.248  25.005  0.00  0.00    +0.000 A 
ATOM      5  N   UNL     1       4.820   3.348  24.424  0.00  0.00    +0.000 N 
ATOM      6 FE   UNL     1       5.103   1.794  25.379  0.00  0.00    +0.000 Fe
ATOM      7  N   UNL     1       5.631   2.810  26.872  0.00  0.00    +1.000 N 
ATOM      8  C   UNL     1       5.619   4.181  26.941  0.00  0.00    +0.000 C 
ATOM      9  C   UNL     1       6.462   4.508  28.072  0.00  0.00    +0.000 C 
ATOM     10  C   UNL     1       6.511   3.380  28.807  0.00  0.00    +0.000 C 
ATOM     11  C   UNL     1       7.195   3.128  30.098  0.00  0.00    +0.000 C 
ATOM     12  C   UNL     1       5.824   2.360  28.035  0.00  0.00    +0.000 C 
ATOM     13  C   UNL     1       5.123   1.111  28.428  0.00  0.00    +0.000 C 
ATOM     14  C   UNL     1       4.789   0.210  27.528  0.00  0.00    +0.000 A 
ATOM     15  C   UNL     1       4.021  -0.929  27.569  0.00  0.00    +0.000 A 
ATOM     16  C   UNL     1       2.964  -1.223  28.593  0.00  0.00    +0.000 C 
ATOM     17  C   UNL     1       4.412  -1.669  26.442  0.00  0.00    +0.000 A 
ATOM     18  C   UNL     1       5.334  -0.875  25.783  0.00  0.00    +0.000 A 
ATOM     19  C   UNL     1       6.157  -1.115  24.773  0.00  0.00    +0.000 C 
ATOM     20  C   UNL     1       6.871  -0.001  24.097  0.00  0.00    +0.000 C 
ATOM     21  C   UNL     1       7.998   0.054  23.163  0.00  0.00    +0.000 C 
ATOM     22  C   UNL     1       7.868   1.215  22.494  0.00  0.00    +0.000 C 
ATOM     23  C   UNL     1       8.823   1.858  21.563  0.00  0.00    +0.000 C 
ATOM     24  C   UNL     1       6.636   1.804  22.974  0.00  0.00    +0.000 C 
ATOM     25  C   UNL     1       5.669   2.571  22.389  0.00  0.00    +0.000 C 
ATOM     26  N   UNL     1       5.370   0.277  26.378  0.00  0.00    +0.000 N 
ATOM     27  N   UNL     1       6.369   1.163  24.153  0.00  0.00    +1.000 N 
ATOM     28  C   UNL     1       4.705   4.870  26.205  0.00  0.00    +0.000 C 
ATOM     29  C   UNL     1       4.560   3.163  23.176  0.00  0.00    +0.000 A 
ENDROOT
BRANCH   1  31
ATOM     30  C   UNL     1       2.318   5.125  20.992  0.00  0.00    +0.000 C 
ATOM     31  C   UNL     1       2.584   3.813  21.689  0.00  0.00    +0.000 C 
ATOM     32  O   UNL     1       2.089   2.779  21.276  0.00  0.00    +0.000 OA
ENDBRANCH   1  31
BRANCH   9  33
ATOM     33  C   UNL     1       7.169   5.772  28.263  0.00  0.00    +0.000 C 
ATOM     34  C   UNL     1       6.720   6.660  29.170  0.00  0.00    +0.000 C 
BRANCH  33  35
ATOM     35  O   UNL     1       8.312   5.984  27.588  0.00  0.00    +0.000 OA
ATOM     36  H   UNL     1       8.689   6.866  27.493  0.00  0.00    +0.000 HD
ENDBRANCH  33  35
ENDBRANCH   9  33
BRANCH  17  37
ATOM     37  C   UNL     1       3.938  -3.009  25.978  0.00  0.00    +0.000 C 
BRANCH  37  38
ATOM     38  C   UNL     1       4.694  -4.165  26.607  0.00  0.00    +0.000 C 
BRANCH  38  39
ATOM     39  C   UNL     1       5.699  -4.809  25.720  0.00  0.00    +0.000 C 
ATOM     40  O   UNL     1       5.318  -5.665  24.938  0.00  0.00    +0.000 OA
BRANCH  39  41
ATOM     41  O   UNL     1       7.006  -4.479  25.763  0.00  0.00    +0.000 OA
ATOM     42  H   UNL     1       7.484  -4.142  24.993  0.00  0.00    +0.000 HD
ENDBRANCH  39  41
ENDBRANCH  38  39
ENDBRANCH  37  38
ENDBRANCH  17  37
BRANCH  21  43
ATOM     43  C   UNL     1       9.165  -0.885  23.131  0.00  0.00    +0.000 C 
BRANCH  43  44
ATOM     44  C   UNL     1       8.881  -2.052  22.213  0.00  0.00    +0.000 C 
BRANCH  44  45
ATOM     45  C   UNL     1       8.359  -3.253  22.940  0.00  0.00    +0.000 C 
ATOM     46  O   UNL     1       9.068  -3.767  23.787  0.00  0.00    +0.000 OA
BRANCH  45  47
ATOM     47  O   UNL     1       7.153  -3.806  22.671  0.00  0.00    +0.000 OA
ATOM     48  H   UNL     1       6.392  -3.304  22.351  0.00  0.00    +0.000 HD
ENDBRANCH  45  47
ENDBRANCH  44  45
ENDBRANCH  43  44
ENDBRANCH  21  43
TORSDOF 11
ENDMDL
MODEL 7
REMARK VINA RESULT:      -5.1      1.668      7.362
REMARK  Name = 
REMARK  16 active torsions:
REMARK  status: ('A' for Active; 'I' for Inactive)
REMARK    1  A    between atoms: C_1  and  C_2
REMARK    2  A    between atoms: C_2  and  C_4
REMARK    3  A    between atoms: C_8  and  C_9
REMARK    4  A    between atoms: C_10  and  C_11
REMARK    5  A    between atoms: C_11  and  C_12
REMARK    6  A    between atoms: C_12  and  C_13
REMARK    7  A    between atoms: C_13  and  O_14
REMARK    8  A    between atoms: C_28  and  C_29
REMARK    9  A    between atoms: C_30  and  C_31
REMARK   10  A    between atoms: C_31  and  O_32
REMARK   11  A    between atoms: C_34  and  C_35
REMARK   12  A    between atoms: C_36  and  C_37
REMARK   13  A    between atoms: C_38  and  C_39
REMARK   14  A    between atoms: C_39  and  C_40
REMARK   15  A    between atoms: C_40  and  C_41
REMARK   16  A    between atoms: C_41  and  O_42
REMARK                            x       y       z     vdW  Elec       q    Type
REMARK                         _______ _______ _______ _____ _____    ______ ____
ROOT
ATOM      1  C   UNL     1       9.001   2.603  24.007  0.00  0.00    +0.000 A 
ATOM      2  C   UNL     1       9.406   1.265  24.259  0.00  0.00    +0.000 A 
ATOM      3  C   UNL     1      10.789   0.765  24.471  0.00  0.00    +0.000 C 
ATOM      4  C   UNL     1       8.255   0.494  24.161  0.00  0.00    +0.000 A 
ATOM      5  N   UNL     1       7.278   1.331  24.016  0.00  0.00    +0.000 N 
ATOM      6 FE   UNL     1       5.908   1.198  25.247  0.00  0.00    +0.000 Fe
ATOM      7  N   UNL     1       5.801  -0.653  24.926  0.00  0.00    +1.000 N 
ATOM      8  C   UNL     1       6.631  -1.361  24.093  0.00  0.00    +0.000 C 
ATOM      9  C   UNL     1       5.941  -2.611  23.851  0.00  0.00    +0.000 C 
ATOM     10  C   UNL     1       5.058  -2.723  24.861  0.00  0.00    +0.000 C 
ATOM     11  C   UNL     1       4.103  -3.817  25.159  0.00  0.00    +0.000 C 
ATOM     12  C   UNL     1       5.128  -1.478  25.604  0.00  0.00    +0.000 C 
ATOM     13  C   UNL     1       4.817  -1.136  27.015  0.00  0.00    +0.000 C 
ATOM     14  C   UNL     1       4.718   0.119  27.403  0.00  0.00    +0.000 A 
ATOM     15  C   UNL     1       4.602   0.725  28.631  0.00  0.00    +0.000 A 
ATOM     16  C   UNL     1       5.007   0.111  29.939  0.00  0.00    +0.000 C 
ATOM     17  C   UNL     1       4.097   2.005  28.356  0.00  0.00    +0.000 A 
ATOM     18  C   UNL     1       4.019   2.081  26.977  0.00  0.00    +0.000 A 
ATOM     19  C   UNL     1       3.464   2.967  26.163  0.00  0.00    +0.000 C 
ATOM     20  C   UNL     1       3.744   2.933  24.704  0.00  0.00    +0.000 C 
ATOM     21  C   UNL     1       3.119   3.572  23.543  0.00  0.00    +0.000 C 
ATOM     22  C   UNL     1       4.071   3.622  22.592  0.00  0.00    +0.000 C 
ATOM     23  C   UNL     1       3.935   4.002  21.167  0.00  0.00    +0.000 C 
ATOM     24  C   UNL     1       5.265   3.087  23.209  0.00  0.00    +0.000 C 
ATOM     25  C   UNL     1       6.597   3.359  23.075  0.00  0.00    +0.000 C 
ATOM     26  N   UNL     1       4.565   1.013  26.484  0.00  0.00    +0.000 N 
ATOM     27  N   UNL     1       4.823   2.399  24.305  0.00  0.00    +1.000 N 
ATOM     28  C   UNL     1       7.907  -0.927  23.908  0.00  0.00    +0.000 C 
ATOM     29  C   UNL     1       7.634   2.539  23.748  0.00  0.00    +0.000 A 
ENDROOT
BRANCH   1  31
ATOM     30  C   UNL     1       9.369   5.100  24.482  0.00  0.00    +0.000 C 
ATOM     31  C   UNL     1       9.859   3.785  23.928  0.00  0.00    +0.000 C 
ATOM     32  O   UNL     1      10.917   3.720  23.326  0.00  0.00    +0.000 OA
ENDBRANCH   1  31
BRANCH   9  33
ATOM     33  C   UNL     1       6.130  -3.469  22.684  0.00  0.00    +0.000 C 
ATOM     34  C   UNL     1       7.080  -4.424  22.701  0.00  0.00    +0.000 C 
BRANCH  33  35
ATOM     35  O   UNL     1       5.287  -3.346  21.645  0.00  0.00    +0.000 OA
ATOM     36  H   UNL     1       4.484  -3.876  21.577  0.00  0.00    +0.000 HD
ENDBRANCH  33  35
ENDBRANCH   9  33
BRANCH  17  37
ATOM     37  C   UNL     1       3.743   3.107  29.303  0.00  0.00    +0.000 C 
BRANCH  37  38
ATOM     38  C   UNL     1       4.948   3.710  30.002  0.00  0.00    +0.000 C 
BRANCH  38  39
ATOM     39  C   UNL     1       5.970   4.291  29.092  0.00  0.00    +0.000 C 
ATOM     40  O   UNL     1       5.616   5.146  28.295  0.00  0.00    +0.000 OA
BRANCH  39  41
ATOM     41  O   UNL     1       7.259   3.898  29.120  0.00  0.00    +0.000 OA
ATOM     42  H   UNL     1       7.607   3.301  29.796  0.00  0.00    +0.000 HD
ENDBRANCH  39  41
ENDBRANCH  38  39
ENDBRANCH  37  38
ENDBRANCH  17  37
BRANCH  21  43
ATOM     43  C   UNL     1       1.664   3.892  23.388  0.00  0.00    +0.000 C 
BRANCH  43  44
ATOM     44  C   UNL     1       0.895   2.666  22.951  0.00  0.00    +0.000 C 
BRANCH  44  45
ATOM     45  C   UNL     1       0.641   2.632  21.475  0.00  0.00    +0.000 C 
ATOM     46  O   UNL     1       0.644   1.550  20.914  0.00  0.00    +0.000 OA
BRANCH  45  47
ATOM     47  O   UNL     1       0.443   3.751  20.739  0.00  0.00    +0.000 OA
ATOM     48  H   UNL     1      -0.402   3.983  20.332  0.00  0.00    +0.000 HD
ENDBRANCH  45  47
ENDBRANCH  44  45
ENDBRANCH  43  44
ENDBRANCH  21  43
TORSDOF 11
ENDMDL
MODEL 8
REMARK VINA RESULT:      -5.0      1.653      7.546
REMARK  Name = 
REMARK  16 active torsions:
REMARK  status: ('A' for Active; 'I' for Inactive)
REMARK    1  A    between atoms: C_1  and  C_2
REMARK    2  A    between atoms: C_2  and  C_4
REMARK    3  A    between atoms: C_8  and  C_9
REMARK    4  A    between atoms: C_10  and  C_11
REMARK    5  A    between atoms: C_11  and  C_12
REMARK    6  A    between atoms: C_12  and  C_13
REMARK    7  A    between atoms: C_13  and  O_14
REMARK    8  A    between atoms: C_28  and  C_29
REMARK    9  A    between atoms: C_30  and  C_31
REMARK   10  A    between atoms: C_31  and  O_32
REMARK   11  A    between atoms: C_34  and  C_35
REMARK   12  A    between atoms: C_36  and  C_37
REMARK   13  A    between atoms: C_38  and  C_39
REMARK   14  A    between atoms: C_39  and  C_40
REMARK   15  A    between atoms: C_40  and  C_41
REMARK   16  A    between atoms: C_41  and  O_42
REMARK                            x       y       z     vdW  Elec       q    Type
REMARK                         _______ _______ _______ _____ _____    ______ ____
ROOT
ATOM      1  C   UNL     1       4.131  -2.687  25.645  0.00  0.00    +0.000 A 
ATOM      2  C   UNL     1       4.928  -2.787  24.474  0.00  0.00    +0.000 A 
ATOM      3  C   UNL     1       4.973  -3.913  23.505  0.00  0.00    +0.000 C 
ATOM      4  C   UNL     1       5.742  -1.661  24.470  0.00  0.00    +0.000 A 
ATOM      5  N   UNL     1       5.340  -0.929  25.459  0.00  0.00    +0.000 N 
ATOM      6 FE   UNL     1       4.858   0.803  25.041  0.00  0.00    +0.000 Fe
ATOM      7  N   UNL     1       6.482   1.030  24.119  0.00  0.00    +1.000 N 
ATOM      8  C   UNL     1       7.429   0.055  23.930  0.00  0.00    +0.000 C 
ATOM      9  C   UNL     1       8.632   0.767  23.550  0.00  0.00    +0.000 C 
ATOM     10  C   UNL     1       8.203   1.968  23.117  0.00  0.00    +0.000 C 
ATOM     11  C   UNL     1       8.983   3.102  22.567  0.00  0.00    +0.000 C 
ATOM     12  C   UNL     1       6.776   2.011  23.380  0.00  0.00    +0.000 C 
ATOM     13  C   UNL     1       5.666   2.773  22.754  0.00  0.00    +0.000 C 
ATOM     14  C   UNL     1       4.482   2.840  23.327  0.00  0.00    +0.000 A 
ATOM     15  C   UNL     1       3.260   3.320  22.921  0.00  0.00    +0.000 A 
ATOM     16  C   UNL     1       2.837   3.514  21.494  0.00  0.00    +0.000 C 
ATOM     17  C   UNL     1       2.535   3.511  24.108  0.00  0.00    +0.000 A 
ATOM     18  C   UNL     1       3.363   3.062  25.121  0.00  0.00    +0.000 A 
ATOM     19  C   UNL     1       3.288   3.152  26.441  0.00  0.00    +0.000 C 
ATOM     20  C   UNL     1       4.199   2.359  27.307  0.00  0.00    +0.000 C 
ATOM     21  C   UNL     1       4.541   2.418  28.730  0.00  0.00    +0.000 C 
ATOM     22  C   UNL     1       4.969   1.185  29.058  0.00  0.00    +0.000 C 
ATOM     23  C   UNL     1       5.604   0.731  30.317  0.00  0.00    +0.000 C 
ATOM     24  C   UNL     1       4.811   0.387  27.862  0.00  0.00    +0.000 C 
ATOM     25  C   UNL     1       4.496  -0.924  27.639  0.00  0.00    +0.000 C 
ATOM     26  N   UNL     1       4.409   2.521  24.575  0.00  0.00    +0.000 N 
ATOM     27  N   UNL     1       4.701   1.291  26.842  0.00  0.00    +1.000 N 
ATOM     28  C   UNL     1       7.032  -1.245  23.865  0.00  0.00    +0.000 C 
ATOM     29  C   UNL     1       4.542  -1.518  26.280  0.00  0.00    +0.000 A 
ENDROOT
BRANCH   1  31
ATOM     30  C   UNL     1       1.789  -3.733  25.510  0.00  0.00    +0.000 C 
ATOM     31  C   UNL     1       3.160  -3.664  26.137  0.00  0.00    +0.000 C 
ATOM     32  O   UNL     1       3.430  -4.342  27.114  0.00  0.00    +0.000 OA
ENDBRANCH   1  31
BRANCH   9  33
ATOM     33  C   UNL     1       9.996   0.276  23.726  0.00  0.00    +0.000 C 
ATOM     34  C   UNL     1      10.730   0.699  24.772  0.00  0.00    +0.000 C 
BRANCH  33  35
ATOM     35  O   UNL     1      10.460  -0.664  22.885  0.00  0.00    +0.000 OA
ATOM     36  H   UNL     1      11.314  -0.573  22.445  0.00  0.00    +0.000 HD
ENDBRANCH  33  35
ENDBRANCH   9  33
BRANCH  17  37
ATOM     37  C   UNL     1       1.149   4.039  24.296  0.00  0.00    +0.000 C 
BRANCH  37  38
ATOM     38  C   UNL     1       1.021   5.518  23.978  0.00  0.00    +0.000 C 
BRANCH  38  39
ATOM     39  C   UNL     1       2.000   6.393  24.675  0.00  0.00    +0.000 C 
ATOM     40  O   UNL     1       1.890   6.538  25.883  0.00  0.00    +0.000 OA
BRANCH  39  41
ATOM     41  O   UNL     1       2.989   7.028  24.015  0.00  0.00    +0.000 OA
ATOM     42  H   UNL     1       3.128   7.983  24.077  0.00  0.00    +0.000 HD
ENDBRANCH  39  41
ENDBRANCH  38  39
ENDBRANCH  37  38
ENDBRANCH  17  37
BRANCH  21  43
ATOM     43  C   UNL     1       4.607   3.656  29.572  0.00  0.00    +0.000 C 
BRANCH  43  44
ATOM     44  C   UNL     1       5.432   4.720  28.885  0.00  0.00    +0.000 C 
BRANCH  44  45
ATOM     45  C   UNL     1       6.889   4.374  28.815  0.00  0.00    +0.000 C 
ATOM     46  O   UNL     1       7.484   4.596  27.775  0.00  0.00    +0.000 OA
BRANCH  45  47
ATOM     47  O   UNL     1       7.555   3.798  29.843  0.00  0.00    +0.000 OA
ATOM     48  H   UNL     1       7.624   2.842  29.969  0.00  0.00    +0.000 HD
ENDBRANCH  45  47
ENDBRANCH  44  45
ENDBRANCH  43  44
ENDBRANCH  21  43
TORSDOF 11
ENDMDL
MODEL 9
REMARK VINA RESULT:      -4.9      1.655      7.288
REMARK  Name = 
REMARK  16 active torsions:
REMARK  status: ('A' for Active; 'I' for Inactive)
REMARK    1  A    between atoms: C_1  and  C_2
REMARK    2  A    between atoms: C_2  and  C_4
REMARK    3  A    between atoms: C_8  and  C_9
REMARK    4  A    between atoms: C_10  and  C_11
REMARK    5  A    between atoms: C_11  and  C_12
REMARK    6  A    between atoms: C_12  and  C_13
REMARK    7  A    between atoms: C_13  and  O_14
REMARK    8  A    between atoms: C_28  and  C_29
REMARK    9  A    between atoms: C_30  and  C_31
REMARK   10  A    between atoms: C_31  and  O_32
REMARK   11  A    between atoms: C_34  and  C_35
REMARK   12  A    between atoms: C_36  and  C_37
REMARK   13  A    between atoms: C_38  and  C_39
REMARK   14  A    between atoms: C_39  and  C_40
REMARK   15  A    between atoms: C_40  and  C_41
REMARK   16  A    between atoms: C_41  and  O_42
REMARK                            x       y       z     vdW  Elec       q    Type
REMARK                         _______ _______ _______ _____ _____    ______ ____
ROOT
ATOM      1  C   UNL     1       8.813   2.213  24.043  0.00  0.00    +0.000 A 
ATOM      2  C   UNL     1       9.192   0.880  24.355  0.00  0.00    +0.000 A 
ATOM      3  C   UNL     1      10.569   0.337  24.475  0.00  0.00    +0.000 C 
ATOM      4  C   UNL     1       8.009   0.155  24.421  0.00  0.00    +0.000 A 
ATOM      5  N   UNL     1       7.054   1.021  24.305  0.00  0.00    +0.000 N 
ATOM      6 FE   UNL     1       5.803   1.034  25.663  0.00  0.00    +0.000 Fe
ATOM      7  N   UNL     1       5.599  -0.828  25.490  0.00  0.00    +1.000 N 
ATOM      8  C   UNL     1       6.319  -1.629  24.639  0.00  0.00    +0.000 C 
ATOM      9  C   UNL     1       5.564  -2.862  24.555  0.00  0.00    +0.000 C 
ATOM     10  C   UNL     1       4.777  -2.864  25.648  0.00  0.00    +0.000 C 
ATOM     11  C   UNL     1       3.816  -3.892  26.112  0.00  0.00    +0.000 C 
ATOM     12  C   UNL     1       4.964  -1.574  26.287  0.00  0.00    +0.000 C 
ATOM     13  C   UNL     1       4.800  -1.120  27.691  0.00  0.00    +0.000 C 
ATOM     14  C   UNL     1       4.784   0.162  27.992  0.00  0.00    +0.000 A 
ATOM     15  C   UNL     1       4.807   0.856  29.177  0.00  0.00    +0.000 A 
ATOM     16  C   UNL     1       5.311   0.319  30.485  0.00  0.00    +0.000 C 
ATOM     17  C   UNL     1       4.325   2.135  28.857  0.00  0.00    +0.000 A 
ATOM     18  C   UNL     1       4.120   2.117  27.489  0.00  0.00    +0.000 A 
ATOM     19  C   UNL     1       3.522   2.967  26.665  0.00  0.00    +0.000 C 
ATOM     20  C   UNL     1       3.662   2.819  25.193  0.00  0.00    +0.000 C 
ATOM     21  C   UNL     1       2.954   3.401  24.051  0.00  0.00    +0.000 C 
ATOM     22  C   UNL     1       3.812   3.342  23.016  0.00  0.00    +0.000 C 
ATOM     23  C   UNL     1       3.556   3.627  21.585  0.00  0.00    +0.000 C 
ATOM     24  C   UNL     1       5.039   2.801  23.558  0.00  0.00    +0.000 C 
ATOM     25  C   UNL     1       6.361   3.005  23.282  0.00  0.00    +0.000 C 
ATOM     26  N   UNL     1       4.577   0.994  27.028  0.00  0.00    +0.000 N 
ATOM     27  N   UNL     1       4.679   2.212  24.738  0.00  0.00    +1.000 N 
ATOM     28  C   UNL     1       7.587  -1.264  24.306  0.00  0.00    +0.000 C 
ATOM     29  C   UNL     1       7.427   2.190  23.916  0.00  0.00    +0.000 A 
ENDROOT
BRANCH   1  31
ATOM     30  C   UNL     1       9.366   4.699  24.382  0.00  0.00    +0.000 C 
ATOM     31  C   UNL     1       9.703   3.348  23.798  0.00  0.00    +0.000 C 
ATOM     32  O   UNL     1      10.651   3.218  23.043  0.00  0.00    +0.000 OA
ENDBRANCH   1  31
BRANCH   9  33
ATOM     33  C   UNL     1       5.611  -3.807  23.442  0.00  0.00    +0.000 C 
ATOM     34  C   UNL     1       6.645  -4.662  23.333  0.00  0.00    +0.000 C 
BRANCH  33  35
ATOM     35  O   UNL     1       4.568  -3.864  22.596  0.00  0.00    +0.000 OA
ATOM     36  H   UNL     1       4.688  -4.024  21.653  0.00  0.00    +0.000 HD
ENDBRANCH  33  35
ENDBRANCH   9  33
BRANCH  17  37
ATOM     37  C   UNL     1       4.103   3.314  29.748  0.00  0.00    +0.000 C 
BRANCH  37  38
ATOM     38  C   UNL     1       5.388   3.896  30.308  0.00  0.00    +0.000 C 
BRANCH  38  39
ATOM     39  C   UNL     1       6.482   4.062  29.315  0.00  0.00    +0.000 C 
ATOM     40  O   UNL     1       6.401   4.979  28.512  0.00  0.00    +0.000 OA
BRANCH  39  41
ATOM     41  O   UNL     1       7.543   3.231  29.274  0.00  0.00    +0.000 OA
ATOM     42  H   UNL     1       7.778   2.649  30.010  0.00  0.00    +0.000 HD
ENDBRANCH  39  41
ENDBRANCH  38  39
ENDBRANCH  37  38
ENDBRANCH  17  37
BRANCH  21  43
ATOM     43  C   UNL     1       1.503   3.772  24.007  0.00  0.00    +0.000 C 
BRANCH  43  44
ATOM     44  C   UNL     1       1.342   5.269  23.879  0.00  0.00    +0.000 C 
BRANCH  44  45
ATOM     45  C   UNL     1       1.900   6.018  25.050  0.00  0.00    +0.000 C 
ATOM     46  O   UNL     1       2.815   6.798  24.853  0.00  0.00    +0.000 OA
BRANCH  45  47
ATOM     47  O   UNL     1       1.453   5.839  26.315  0.00  0.00    +0.000 OA
ATOM     48  H   UNL     1       1.257   4.973  26.697  0.00  0.00    +0.000 HD
ENDBRANCH  45  47
ENDBRANCH  44  45
ENDBRANCH  43  44
ENDBRANCH  21  43
TORSDOF 11
ENDMDL
