MODEL 1
REMARK VINA RESULT:      -6.1      0.000      0.000
REMARK  Name = 
REMARK  1 active torsions:
REMARK  status: ('A' for Active; 'I' for Inactive)
REMARK    1  A    between atoms: N_3  and  C_7
REMARK                            x       y       z     vdW  Elec       q    Type
REMARK                         _______ _______ _______ _____ _____    ______ ____
ROOT
ATOM      1  C   UNL     1       6.239  -5.261  24.956  0.00  0.00    +0.152 A 
ATOM      2  N   UNL     1       5.515  -5.602  26.070  0.00  0.00    -0.218 NA
ATOM      3  C   UNL     1       6.129  -5.755  27.262  0.00  0.00    +0.225 A 
ATOM      4  N   UNL     1       7.435  -5.621  27.546  0.00  0.00    -0.216 NA
ATOM      5  C   UNL     1       8.119  -5.292  26.445  0.00  0.00    +0.163 A 
ATOM      6  N   UNL     1       9.462  -5.062  26.377  0.00  0.00    -0.329 N 
ATOM      7  H   UNL     1      10.100  -5.108  27.157  0.00  0.00    +0.168 HD
ATOM      8  C   UNL     1       9.763  -4.752  25.082  0.00  0.00    +0.198 A 
ATOM      9  N   UNL     1       8.692  -4.764  24.319  0.00  0.00    -0.231 NA
ATOM     10  C   UNL     1       7.638  -5.102  25.157  0.00  0.00    +0.147 A 
ENDROOT
BRANCH   1  15
ATOM     11  C   UNL     1       6.475  -5.330  21.491  0.00  0.00    +0.178 C 
ATOM     12  O   UNL     1       5.862  -4.091  21.093  0.00  0.00    -0.377 OA
ATOM     13  C   UNL     1       5.817  -3.178  22.203  0.00  0.00    +0.178 C 
ATOM     14  C   UNL     1       5.006  -3.756  23.373  0.00  0.00    +0.134 C 
ATOM     15  N   UNL     1       5.563  -5.055  23.768  0.00  0.00    -0.309 N 
ATOM     16  C   UNL     1       5.718  -5.998  22.651  0.00  0.00    +0.134 C 
ENDBRANCH   1  15
TORSDOF 1
ENDMDL
MODEL 2
REMARK VINA RESULT:      -5.8      1.132      2.827
REMARK  Name = 
REMARK  1 active torsions:
REMARK  status: ('A' for Active; 'I' for Inactive)
REMARK    1  A    between atoms: N_3  and  C_7
REMARK                            x       y       z     vdW  Elec       q    Type
REMARK                         _______ _______ _______ _____ _____    ______ ____
ROOT
ATOM      1  C   UNL     1       7.597  -4.777  24.430  0.00  0.00    +0.152 A 
ATOM      2  N   UNL     1       8.706  -4.335  25.103  0.00  0.00    -0.218 NA
ATOM      3  C   UNL     1       8.828  -4.543  26.431  0.00  0.00    +0.225 A 
ATOM      4  N   UNL     1       7.965  -5.158  27.257  0.00  0.00    -0.216 NA
ATOM      5  C   UNL     1       6.891  -5.577  26.578  0.00  0.00    +0.163 A 
ATOM      6  N   UNL     1       5.829  -6.255  27.102  0.00  0.00    -0.329 N 
ATOM      7  H   UNL     1       5.732  -6.525  28.069  0.00  0.00    +0.168 HD
ATOM      8  C   UNL     1       4.954  -6.501  26.084  0.00  0.00    +0.198 A 
ATOM      9  N   UNL     1       5.394  -6.026  24.940  0.00  0.00    -0.231 NA
ATOM     10  C   UNL     1       6.620  -5.439  25.224  0.00  0.00    +0.147 A 
ENDROOT
BRANCH   1  15
ATOM     11  C   UNL     1       5.811  -3.354  21.812  0.00  0.00    +0.178 C 
ATOM     12  O   UNL     1       5.748  -4.412  20.840  0.00  0.00    -0.377 OA
ATOM     13  C   UNL     1       6.017  -5.680  21.465  0.00  0.00    +0.178 C 
ATOM     14  C   UNL     1       7.414  -5.704  22.107  0.00  0.00    +0.134 C 
ATOM     15  N   UNL     1       7.540  -4.596  23.060  0.00  0.00    -0.309 N 
ATOM     16  C   UNL     1       7.186  -3.286  22.498  0.00  0.00    +0.134 C 
ENDBRANCH   1  15
TORSDOF 1
ENDMDL
MODEL 3
REMARK VINA RESULT:      -5.6      3.372      5.039
REMARK  Name = 
REMARK  1 active torsions:
REMARK  status: ('A' for Active; 'I' for Inactive)
REMARK    1  A    between atoms: N_3  and  C_7
REMARK                            x       y       z     vdW  Elec       q    Type
REMARK                         _______ _______ _______ _____ _____    ______ ____
ROOT
ATOM      1  C   UNL     1       9.240  -2.969  24.208  0.00  0.00    +0.152 A 
ATOM      2  N   UNL     1       9.936  -2.716  23.055  0.00  0.00    -0.218 NA
ATOM      3  C   UNL     1      10.418  -1.480  22.805  0.00  0.00    +0.225 A 
ATOM      4  N   UNL     1      10.309  -0.378  23.565  0.00  0.00    -0.216 NA
ATOM      5  C   UNL     1       9.625  -0.650  24.682  0.00  0.00    +0.163 A 
ATOM      6  N   UNL     1       9.346   0.235  25.682  0.00  0.00    -0.329 N 
ATOM      7  H   UNL     1       9.629   1.202  25.699  0.00  0.00    +0.168 HD
ATOM      8  C   UNL     1       8.637  -0.434  26.638  0.00  0.00    +0.198 A 
ATOM      9  N   UNL     1       8.451  -1.694  26.312  0.00  0.00    -0.231 NA
ATOM     10  C   UNL     1       9.068  -1.857  25.079  0.00  0.00    +0.147 A 
ENDROOT
BRANCH   1  15
ATOM     11  C   UNL     1       6.544  -4.964  25.113  0.00  0.00    +0.178 C 
ATOM     12  O   UNL     1       7.101  -5.843  26.106  0.00  0.00    -0.377 OA
ATOM     13  C   UNL     1       8.324  -5.294  26.628  0.00  0.00    +0.178 C 
ATOM     14  C   UNL     1       9.371  -5.103  25.520  0.00  0.00    +0.134 C 
ATOM     15  N   UNL     1       8.816  -4.263  24.453  0.00  0.00    -0.309 N 
ATOM     16  C   UNL     1       7.518  -4.727  23.946  0.00  0.00    +0.134 C 
ENDBRANCH   1  15
TORSDOF 1
ENDMDL
MODEL 4
REMARK VINA RESULT:      -5.4      3.445      5.024
REMARK  Name = 
REMARK  1 active torsions:
REMARK  status: ('A' for Active; 'I' for Inactive)
REMARK    1  A    between atoms: N_3  and  C_7
REMARK                            x       y       z     vdW  Elec       q    Type
REMARK                         _______ _______ _______ _____ _____    ______ ____
ROOT
ATOM      1  C   UNL     1       9.058  -2.822  23.804  0.00  0.00    +0.152 A 
ATOM      2  N   UNL     1       9.580  -3.881  24.500  0.00  0.00    -0.218 NA
ATOM      3  C   UNL     1       8.847  -4.998  24.696  0.00  0.00    +0.225 A 
ATOM      4  N   UNL     1       7.591  -5.248  24.288  0.00  0.00    -0.216 NA
ATOM      5  C   UNL     1       7.104  -4.200  23.615  0.00  0.00    +0.163 A 
ATOM      6  N   UNL     1       5.867  -4.121  23.047  0.00  0.00    -0.329 N 
ATOM      7  H   UNL     1       5.172  -4.852  23.063  0.00  0.00    +0.168 HD
ATOM      8  C   UNL     1       5.762  -2.896  22.454  0.00  0.00    +0.198 A 
ATOM      9  N   UNL     1       6.860  -2.188  22.605  0.00  0.00    -0.231 NA
ATOM     10  C   UNL     1       7.726  -2.992  23.335  0.00  0.00    +0.147 A 
ENDROOT
BRANCH   1  15
ATOM     11  C   UNL     1       9.254   0.644  23.920  0.00  0.00    +0.178 C 
ATOM     12  O   UNL     1       9.848   0.985  22.655  0.00  0.00    -0.377 OA
ATOM     13  C   UNL     1       9.710  -0.107  21.729  0.00  0.00    +0.178 C 
ATOM     14  C   UNL     1      10.398  -1.377  22.253  0.00  0.00    +0.134 C 
ATOM     15  N   UNL     1       9.864  -1.722  23.575  0.00  0.00    -0.309 N 
ATOM     16  C   UNL     1       9.896  -0.611  24.535  0.00  0.00    +0.134 C 
ENDBRANCH   1  15
TORSDOF 1
ENDMDL
MODEL 5
REMARK VINA RESULT:      -5.3      3.663      4.849
REMARK  Name = 
REMARK  1 active torsions:
REMARK  status: ('A' for Active; 'I' for Inactive)
REMARK    1  A    between atoms: N_3  and  C_7
REMARK                            x       y       z     vdW  Elec       q    Type
REMARK                         _______ _______ _______ _____ _____    ______ ____
ROOT
ATOM      1  C   UNL     1       8.462  -2.185  23.290  0.00  0.00    +0.152 A 
ATOM      2  N   UNL     1       7.172  -1.837  22.981  0.00  0.00    -0.218 NA
ATOM      3  C   UNL     1       6.141  -2.612  23.380  0.00  0.00    +0.225 A 
ATOM      4  N   UNL     1       6.187  -3.757  24.081  0.00  0.00    -0.216 NA
ATOM      5  C   UNL     1       7.455  -4.076  24.368  0.00  0.00    +0.163 A 
ATOM      6  N   UNL     1       7.862  -5.165  25.082  0.00  0.00    -0.329 N 
ATOM      7  H   UNL     1       7.250  -5.858  25.484  0.00  0.00    +0.168 HD
ATOM      8  C   UNL     1       9.225  -5.124  25.155  0.00  0.00    +0.198 A 
ATOM      9  N   UNL     1       9.712  -4.072  24.535  0.00  0.00    -0.231 NA
ATOM     10  C   UNL     1       8.613  -3.391  24.030  0.00  0.00    +0.147 A 
ENDROOT
BRANCH   1  15
ATOM     11  C   UNL     1       9.918   0.926  23.810  0.00  0.00    +0.178 C 
ATOM     12  O   UNL     1      10.137   1.416  22.475  0.00  0.00    -0.377 OA
ATOM     13  C   UNL     1       9.315   0.697  21.539  0.00  0.00    +0.178 C 
ATOM     14  C   UNL     1       9.633  -0.807  21.553  0.00  0.00    +0.134 C 
ATOM     15  N   UNL     1       9.483  -1.332  22.914  0.00  0.00    -0.309 N 
ATOM     16  C   UNL     1      10.230  -0.575  23.928  0.00  0.00    +0.134 C 
ENDBRANCH   1  15
TORSDOF 1
ENDMDL
MODEL 6
REMARK VINA RESULT:      -5.3      1.916      3.432
REMARK  Name = 
REMARK  1 active torsions:
REMARK  status: ('A' for Active; 'I' for Inactive)
REMARK    1  A    between atoms: N_3  and  C_7
REMARK                            x       y       z     vdW  Elec       q    Type
REMARK                         _______ _______ _______ _____ _____    ______ ____
ROOT
ATOM      1  C   UNL     1       7.611  -3.462  22.827  0.00  0.00    +0.152 A 
ATOM      2  N   UNL     1       8.322  -2.422  22.287  0.00  0.00    -0.218 NA
ATOM      3  C   UNL     1       9.527  -2.083  22.794  0.00  0.00    +0.225 A 
ATOM      4  N   UNL     1      10.181  -2.644  23.825  0.00  0.00    -0.216 NA
ATOM      5  C   UNL     1       9.466  -3.652  24.335  0.00  0.00    +0.163 A 
ATOM      6  N   UNL     1       9.840  -4.449  25.377  0.00  0.00    -0.329 N 
ATOM      7  H   UNL     1      10.709  -4.374  25.884  0.00  0.00    +0.168 HD
ATOM      8  C   UNL     1       8.840  -5.355  25.585  0.00  0.00    +0.198 A 
ATOM      9  N   UNL     1       7.850  -5.188  24.735  0.00  0.00    -0.231 NA
ATOM     10  C   UNL     1       8.223  -4.118  23.932  0.00  0.00    +0.147 A 
ENDROOT
BRANCH   1  15
ATOM     11  C   UNL     1       4.342  -4.485  23.409  0.00  0.00    +0.178 C 
ATOM     12  O   UNL     1       4.164  -5.568  22.479  0.00  0.00    -0.377 OA
ATOM     13  C   UNL     1       5.441  -6.064  22.040  0.00  0.00    +0.178 C 
ATOM     14  C   UNL     1       6.260  -4.967  21.344  0.00  0.00    +0.134 C 
ATOM     15  N   UNL     1       6.410  -3.815  22.240  0.00  0.00    -0.309 N 
ATOM     16  C   UNL     1       5.140  -3.324  22.792  0.00  0.00    +0.134 C 
ENDBRANCH   1  15
TORSDOF 1
ENDMDL
MODEL 7
REMARK VINA RESULT:      -5.2      3.094      3.617
REMARK  Name = 
REMARK  1 active torsions:
REMARK  status: ('A' for Active; 'I' for Inactive)
REMARK    1  A    between atoms: N_3  and  C_7
REMARK                            x       y       z     vdW  Elec       q    Type
REMARK                         _______ _______ _______ _____ _____    ______ ____
ROOT
ATOM      1  C   UNL     1       7.816  -2.311  25.088  0.00  0.00    +0.152 A 
ATOM      2  N   UNL     1       6.752  -2.120  25.930  0.00  0.00    -0.218 NA
ATOM      3  C   UNL     1       6.481  -3.016  26.903  0.00  0.00    +0.225 A 
ATOM      4  N   UNL     1       7.139  -4.151  27.192  0.00  0.00    -0.216 NA
ATOM      5  C   UNL     1       8.170  -4.316  26.357  0.00  0.00    +0.163 A 
ATOM      6  N   UNL     1       9.058  -5.351  26.379  0.00  0.00    -0.329 N 
ATOM      7  H   UNL     1       9.044  -6.116  27.036  0.00  0.00    +0.168 HD
ATOM      8  C   UNL     1       9.956  -5.147  25.371  0.00  0.00    +0.198 A 
ATOM      9  N   UNL     1       9.698  -4.040  24.709  0.00  0.00    -0.231 NA
ATOM     10  C   UNL     1       8.574  -3.494  25.314  0.00  0.00    +0.147 A 
ENDROOT
BRANCH   1  15
ATOM     11  C   UNL     1       9.141  -1.691  21.937  0.00  0.00    +0.178 C 
ATOM     12  O   UNL     1       9.985  -0.547  22.152  0.00  0.00    -0.377 OA
ATOM     13  C   UNL     1      10.288  -0.407  23.551  0.00  0.00    +0.178 C 
ATOM     14  C   UNL     1       9.012  -0.221  24.386  0.00  0.00    +0.134 C 
ATOM     15  N   UNL     1       8.094  -1.340  24.144  0.00  0.00    -0.309 N 
ATOM     16  C   UNL     1       7.822  -1.587  22.722  0.00  0.00    +0.134 C 
ENDBRANCH   1  15
TORSDOF 1
ENDMDL
MODEL 8
REMARK VINA RESULT:      -5.2      2.659      4.190
REMARK  Name = 
REMARK  1 active torsions:
REMARK  status: ('A' for Active; 'I' for Inactive)
REMARK    1  A    between atoms: N_3  and  C_7
REMARK                            x       y       z     vdW  Elec       q    Type
REMARK                         _______ _______ _______ _____ _____    ______ ____
ROOT
ATOM      1  C   UNL     1       7.689  -3.720  23.668  0.00  0.00    +0.152 A 
ATOM      2  N   UNL     1       7.436  -3.722  25.015  0.00  0.00    -0.218 NA
ATOM      3  C   UNL     1       6.576  -4.616  25.548  0.00  0.00    +0.225 A 
ATOM      4  N   UNL     1       5.875  -5.571  24.914  0.00  0.00    -0.216 NA
ATOM      5  C   UNL     1       6.137  -5.547  23.603  0.00  0.00    +0.163 A 
ATOM      6  N   UNL     1       5.610  -6.390  22.668  0.00  0.00    -0.329 N 
ATOM      7  H   UNL     1       4.962  -7.139  22.859  0.00  0.00    +0.168 HD
ATOM      8  C   UNL     1       6.131  -6.039  21.456  0.00  0.00    +0.198 A 
ATOM      9  N   UNL     1       6.963  -5.026  21.560  0.00  0.00    -0.231 NA
ATOM     10  C   UNL     1       6.986  -4.697  22.909  0.00  0.00    +0.147 A 
ENDROOT
BRANCH   1  15
ATOM     11  C   UNL     1       9.817  -1.089  24.453  0.00  0.00    +0.178 C 
ATOM     12  O   UNL     1       9.576  -0.142  23.396  0.00  0.00    -0.377 OA
ATOM     13  C   UNL     1       8.324  -0.426  22.749  0.00  0.00    +0.178 C 
ATOM     14  C   UNL     1       8.316  -1.835  22.136  0.00  0.00    +0.134 C 
ATOM     15  N   UNL     1       8.622  -2.827  23.172  0.00  0.00    -0.309 N 
ATOM     16  C   UNL     1       9.846  -2.535  23.931  0.00  0.00    +0.134 C 
ENDBRANCH   1  15
TORSDOF 1
ENDMDL
MODEL 9
REMARK VINA RESULT:      -5.2      3.038      4.354
REMARK  Name = 
REMARK  1 active torsions:
REMARK  status: ('A' for Active; 'I' for Inactive)
REMARK    1  A    between atoms: N_3  and  C_7
REMARK                            x       y       z     vdW  Elec       q    Type
REMARK                         _______ _______ _______ _____ _____    ______ ____
ROOT
ATOM      1  C   UNL     1       6.194  -3.309  23.544  0.00  0.00    +0.152 A 
ATOM      2  N   UNL     1       4.976  -3.080  24.129  0.00  0.00    -0.218 NA
ATOM      3  C   UNL     1       3.943  -3.919  23.906  0.00  0.00    +0.225 A 
ATOM      4  N   UNL     1       3.921  -5.023  23.140  0.00  0.00    -0.216 NA
ATOM      5  C   UNL     1       5.119  -5.222  22.579  0.00  0.00    +0.163 A 
ATOM      6  N   UNL     1       5.452  -6.259  21.757  0.00  0.00    -0.329 N 
ATOM      7  H   UNL     1       4.832  -7.003  21.479  0.00  0.00    +0.168 HD
ATOM      8  C   UNL     1       6.762  -6.101  21.405  0.00  0.00    +0.198 A 
ATOM      9  N   UNL     1       7.287  -5.029  21.957  0.00  0.00    -0.231 NA
ATOM     10  C   UNL     1       6.268  -4.456  22.706  0.00  0.00    +0.147 A 
ENDROOT
BRANCH   1  15
ATOM     11  C   UNL     1       9.044  -1.744  22.319  0.00  0.00    +0.178 C 
ATOM     12  O   UNL     1      10.015  -1.965  23.357  0.00  0.00    -0.377 OA
ATOM     13  C   UNL     1       9.600  -3.050  24.205  0.00  0.00    +0.178 C 
ATOM     14  C   UNL     1       8.248  -2.753  24.873  0.00  0.00    +0.134 C 
ATOM     15  N   UNL     1       7.242  -2.458  23.847  0.00  0.00    -0.309 N 
ATOM     16  C   UNL     1       7.655  -1.419  22.894  0.00  0.00    +0.134 C 
ENDBRANCH   1  15
TORSDOF 1
ENDMDL
