MODEL 1
REMARK VINA RESULT:      -5.5      0.000      0.000
REMARK  Name = 
REMARK  9 active torsions:
REMARK  status: ('A' for Active; 'I' for Inactive)
REMARK    1  A    between atoms: C_1  and  C_2
REMARK    2  A    between atoms: C_3  and  C_4
REMARK    3  A    between atoms: C_4  and  O_5
REMARK    4  A    between atoms: O_5  and  C_6
REMARK    5  A    between atoms: C_9  and  S_12
REMARK    6  A    between atoms: S_12  and  C_15
REMARK    7  A    between atoms: C_15  and  C_16
REMARK    8  A    between atoms: C_16  and  C_17
REMARK    9  A    between atoms: C_17  and  S_18
REMARK                            x       y       z     vdW  Elec       q    Type
REMARK                         _______ _______ _______ _____ _____    ______ ____
ROOT
ATOM      1  C   UNL     1       9.981   0.161  23.246  0.00  0.00    +0.122 A 
ATOM      2  C   UNL     1       9.458   0.116  24.543  0.00  0.00    +0.047 A 
ATOM      3  C   UNL     1       9.163  -1.107  25.155  0.00  0.00    +0.030 A 
ATOM      4  C   UNL     1       9.413  -2.296  24.467  0.00  0.00    +0.088 A 
ATOM      5  C   UNL     1       9.963  -2.266  23.183  0.00  0.00    +0.030 A 
ATOM      6  C   UNL     1      10.252  -1.036  22.578  0.00  0.00    +0.047 A 
ENDROOT
BRANCH   4   7
ATOM      7  S   UNL     1       8.941  -3.858  25.183  0.00  0.00    -0.003 S 
ATOM      8  O   UNL     1       8.714  -3.605  26.594  0.00  0.00    -0.169 OA
ATOM      9  O   UNL     1       9.906  -4.849  24.749  0.00  0.00    -0.169 OA
BRANCH   7  10
ATOM     10  C   UNL     1       7.377  -4.266  24.429  0.00  0.00    +0.172 C 
BRANCH  10  11
ATOM     11  C   UNL     1       7.578  -5.147  23.193  0.00  0.00    +0.033 C 
BRANCH  11  12
ATOM     12  C   UNL     1       6.804  -4.673  21.965  0.00  0.00    +0.067 C 
BRANCH  12  13
ATOM     13  S   UNL     1       5.954  -3.089  22.237  0.00  0.00    -0.178 S 
ATOM     14  H   UNL     1       4.997  -3.261  21.311  0.00  0.00    +0.102 HD
ENDBRANCH  12  13
ENDBRANCH  11  12
ENDBRANCH  10  11
ENDBRANCH   7  10
ENDBRANCH   4   7
BRANCH   1  15
ATOM     15  O   UNL     1      10.216   1.416  22.749  0.00  0.00    -0.480 OA
BRANCH  15  16
ATOM     16  C   UNL     1      10.062   2.493  23.676  0.00  0.00    +0.317 C 
BRANCH  16  19
ATOM     17  C   UNL     1      13.045   5.301  23.077  0.00  0.00    +0.106 C 
ATOM     18  C   UNL     1      11.960   4.333  23.258  0.00  0.00    -0.102 C 
ATOM     19  C   UNL     1      11.090   3.523  23.428  0.00  0.00    -0.062 C 
ENDBRANCH  16  19
ENDBRANCH  15  16
ENDBRANCH   1  15
TORSDOF 8
ENDMDL
MODEL 2
REMARK VINA RESULT:      -5.4      1.663      2.515
REMARK  Name = 
REMARK  9 active torsions:
REMARK  status: ('A' for Active; 'I' for Inactive)
REMARK    1  A    between atoms: C_1  and  C_2
REMARK    2  A    between atoms: C_3  and  C_4
REMARK    3  A    between atoms: C_4  and  O_5
REMARK    4  A    between atoms: O_5  and  C_6
REMARK    5  A    between atoms: C_9  and  S_12
REMARK    6  A    between atoms: S_12  and  C_15
REMARK    7  A    between atoms: C_15  and  C_16
REMARK    8  A    between atoms: C_16  and  C_17
REMARK    9  A    between atoms: C_17  and  S_18
REMARK                            x       y       z     vdW  Elec       q    Type
REMARK                         _______ _______ _______ _____ _____    ______ ____
ROOT
ATOM      1  C   UNL     1      10.030   0.083  23.779  0.00  0.00    +0.122 A 
ATOM      2  C   UNL     1      10.292  -1.035  22.981  0.00  0.00    +0.047 A 
ATOM      3  C   UNL     1       9.920  -2.318  23.399  0.00  0.00    +0.030 A 
ATOM      4  C   UNL     1       9.260  -2.477  24.619  0.00  0.00    +0.088 A 
ATOM      5  C   UNL     1       8.965  -1.364  25.412  0.00  0.00    +0.030 A 
ATOM      6  C   UNL     1       9.345  -0.085  24.985  0.00  0.00    +0.047 A 
ENDROOT
BRANCH   4   7
ATOM      7  S   UNL     1       8.878  -4.109  25.221  0.00  0.00    -0.003 S 
ATOM      8  O   UNL     1       8.671  -3.976  26.651  0.00  0.00    -0.169 OA
ATOM      9  O   UNL     1       9.880  -5.017  24.694  0.00  0.00    -0.169 OA
BRANCH   7  10
ATOM     10  C   UNL     1       7.319  -4.535  24.467  0.00  0.00    +0.172 C 
BRANCH  10  11
ATOM     11  C   UNL     1       7.535  -5.241  23.126  0.00  0.00    +0.033 C 
BRANCH  11  12
ATOM     12  C   UNL     1       6.771  -4.608  21.965  0.00  0.00    +0.067 C 
BRANCH  12  13
ATOM     13  S   UNL     1       6.007  -3.019  22.408  0.00  0.00    -0.178 S 
ATOM     14  H   UNL     1       7.038  -2.240  22.046  0.00  0.00    +0.102 HD
ENDBRANCH  12  13
ENDBRANCH  11  12
ENDBRANCH  10  11
ENDBRANCH   7  10
ENDBRANCH   4   7
BRANCH   1  15
ATOM     15  O   UNL     1      10.454   1.283  23.270  0.00  0.00    -0.480 OA
BRANCH  15  16
ATOM     16  C   UNL     1       9.969   1.614  21.967  0.00  0.00    +0.317 C 
BRANCH  16  19
ATOM     17  C   UNL     1       6.204   3.320  22.204  0.00  0.00    +0.106 C 
ATOM     18  C   UNL     1       7.516   2.671  22.129  0.00  0.00    -0.102 C 
ATOM     19  C   UNL     1       8.605   2.170  22.062  0.00  0.00    -0.062 C 
ENDBRANCH  16  19
ENDBRANCH  15  16
ENDBRANCH   1  15
TORSDOF 8
ENDMDL
MODEL 3
REMARK VINA RESULT:      -5.3      1.020      1.660
REMARK  Name = 
REMARK  9 active torsions:
REMARK  status: ('A' for Active; 'I' for Inactive)
REMARK    1  A    between atoms: C_1  and  C_2
REMARK    2  A    between atoms: C_3  and  C_4
REMARK    3  A    between atoms: C_4  and  O_5
REMARK    4  A    between atoms: O_5  and  C_6
REMARK    5  A    between atoms: C_9  and  S_12
REMARK    6  A    between atoms: S_12  and  C_15
REMARK    7  A    between atoms: C_15  and  C_16
REMARK    8  A    between atoms: C_16  and  C_17
REMARK    9  A    between atoms: C_17  and  S_18
REMARK                            x       y       z     vdW  Elec       q    Type
REMARK                         _______ _______ _______ _____ _____    ______ ____
ROOT
ATOM      1  C   UNL     1       9.472  -0.199  25.079  0.00  0.00    +0.122 A 
ATOM      2  C   UNL     1       9.817  -1.090  24.058  0.00  0.00    +0.047 A 
ATOM      3  C   UNL     1       9.518  -2.453  24.165  0.00  0.00    +0.030 A 
ATOM      4  C   UNL     1       8.850  -2.922  25.298  0.00  0.00    +0.088 A 
ATOM      5  C   UNL     1       8.472  -2.036  26.311  0.00  0.00    +0.030 A 
ATOM      6  C   UNL     1       8.778  -0.675  26.195  0.00  0.00    +0.047 A 
ENDROOT
BRANCH   4   7
ATOM      7  S   UNL     1       8.560  -4.667  25.505  0.00  0.00    -0.003 S 
ATOM      8  O   UNL     1       8.245  -4.862  26.909  0.00  0.00    -0.169 OA
ATOM      9  O   UNL     1       9.665  -5.372  24.884  0.00  0.00    -0.169 OA
BRANCH   7  10
ATOM     10  C   UNL     1       7.095  -5.017  24.550  0.00  0.00    +0.172 C 
BRANCH  10  11
ATOM     11  C   UNL     1       7.453  -5.326  23.093  0.00  0.00    +0.033 C 
BRANCH  11  12
ATOM     12  C   UNL     1       6.568  -4.610  22.075  0.00  0.00    +0.067 C 
BRANCH  12  13
ATOM     13  S   UNL     1       5.972  -3.000  22.671  0.00  0.00    -0.178 S 
ATOM     14  H   UNL     1       4.691  -3.159  22.303  0.00  0.00    +0.102 HD
ENDBRANCH  12  13
ENDBRANCH  11  12
ENDBRANCH  10  11
ENDBRANCH   7  10
ENDBRANCH   4   7
BRANCH   1  15
ATOM     15  O   UNL     1       9.829   1.107  24.866  0.00  0.00    -0.480 OA
BRANCH  15  16
ATOM     16  C   UNL     1       9.911   1.516  23.499  0.00  0.00    +0.317 C 
BRANCH  16  19
ATOM     17  C   UNL     1      12.165   4.985  23.335  0.00  0.00    +0.106 C 
ATOM     18  C   UNL     1      11.383   3.746  23.346  0.00  0.00    -0.102 C 
ATOM     19  C   UNL     1      10.730   2.739  23.387  0.00  0.00    -0.062 C 
ENDBRANCH  16  19
ENDBRANCH  15  16
ENDBRANCH   1  15
TORSDOF 8
ENDMDL
MODEL 4
REMARK VINA RESULT:      -5.3      1.530      2.127
REMARK  Name = 
REMARK  9 active torsions:
REMARK  status: ('A' for Active; 'I' for Inactive)
REMARK    1  A    between atoms: C_1  and  C_2
REMARK    2  A    between atoms: C_3  and  C_4
REMARK    3  A    between atoms: C_4  and  O_5
REMARK    4  A    between atoms: O_5  and  C_6
REMARK    5  A    between atoms: C_9  and  S_12
REMARK    6  A    between atoms: S_12  and  C_15
REMARK    7  A    between atoms: C_15  and  C_16
REMARK    8  A    between atoms: C_16  and  C_17
REMARK    9  A    between atoms: C_17  and  S_18
REMARK                            x       y       z     vdW  Elec       q    Type
REMARK                         _______ _______ _______ _____ _____    ______ ____
ROOT
ATOM      1  C   UNL     1       9.856   0.599  22.592  0.00  0.00    +0.122 A 
ATOM      2  C   UNL     1       9.956   0.165  23.918  0.00  0.00    +0.047 A 
ATOM      3  C   UNL     1       9.544  -1.120  24.285  0.00  0.00    +0.030 A 
ATOM      4  C   UNL     1       9.045  -1.985  23.308  0.00  0.00    +0.088 A 
ATOM      5  C   UNL     1       8.968  -1.574  21.975  0.00  0.00    +0.030 A 
ATOM      6  C   UNL     1       9.382  -0.284  21.619  0.00  0.00    +0.047 A 
ENDROOT
BRANCH   4   7
ATOM      7  S   UNL     1       8.411  -3.584  23.772  0.00  0.00    -0.003 S 
ATOM      8  O   UNL     1       9.512  -4.291  24.399  0.00  0.00    -0.169 OA
ATOM      9  O   UNL     1       7.731  -4.138  22.616  0.00  0.00    -0.169 OA
BRANCH   7  10
ATOM     10  C   UNL     1       7.175  -3.256  25.015  0.00  0.00    +0.172 C 
BRANCH  10  11
ATOM     11  C   UNL     1       6.004  -4.235  24.894  0.00  0.00    +0.033 C 
BRANCH  11  12
ATOM     12  C   UNL     1       6.180  -5.513  25.711  0.00  0.00    +0.067 C 
BRANCH  12  13
ATOM     13  S   UNL     1       7.249  -5.278  27.162  0.00  0.00    -0.178 S 
ATOM     14  H   UNL     1       6.318  -5.542  28.091  0.00  0.00    +0.102 HD
ENDBRANCH  12  13
ENDBRANCH  11  12
ENDBRANCH  10  11
ENDBRANCH   7  10
ENDBRANCH   4   7
BRANCH   1  15
ATOM     15  O   UNL     1      10.278   1.882  22.359  0.00  0.00    -0.480 OA
BRANCH  15  16
ATOM     16  C   UNL     1      10.308   2.746  23.498  0.00  0.00    +0.317 C 
BRANCH  16  19
ATOM     17  C   UNL     1      13.237   5.599  22.851  0.00  0.00    +0.106 C 
ATOM     18  C   UNL     1      12.200   4.602  23.129  0.00  0.00    -0.102 C 
ATOM     19  C   UNL     1      11.351   3.775  23.323  0.00  0.00    -0.062 C 
ENDBRANCH  16  19
ENDBRANCH  15  16
ENDBRANCH   1  15
TORSDOF 8
ENDMDL
MODEL 5
REMARK VINA RESULT:      -5.3      2.924      6.915
REMARK  Name = 
REMARK  9 active torsions:
REMARK  status: ('A' for Active; 'I' for Inactive)
REMARK    1  A    between atoms: C_1  and  C_2
REMARK    2  A    between atoms: C_3  and  C_4
REMARK    3  A    between atoms: C_4  and  O_5
REMARK    4  A    between atoms: O_5  and  C_6
REMARK    5  A    between atoms: C_9  and  S_12
REMARK    6  A    between atoms: S_12  and  C_15
REMARK    7  A    between atoms: C_15  and  C_16
REMARK    8  A    between atoms: C_16  and  C_17
REMARK    9  A    between atoms: C_17  and  S_18
REMARK                            x       y       z     vdW  Elec       q    Type
REMARK                         _______ _______ _______ _____ _____    ______ ____
ROOT
ATOM      1  C   UNL     1       9.631  -2.390  24.146  0.00  0.00    +0.122 A 
ATOM      2  C   UNL     1      10.193  -1.748  23.037  0.00  0.00    +0.047 A 
ATOM      3  C   UNL     1      10.195  -0.353  22.942  0.00  0.00    +0.030 A 
ATOM      4  C   UNL     1       9.647   0.406  23.978  0.00  0.00    +0.088 A 
ATOM      5  C   UNL     1       9.111  -0.222  25.105  0.00  0.00    +0.030 A 
ATOM      6  C   UNL     1       9.111  -1.620  25.189  0.00  0.00    +0.047 A 
ENDROOT
BRANCH   4   7
ATOM      7  S   UNL     1       9.539   2.178  23.827  0.00  0.00    -0.003 S 
ATOM      8  O   UNL     1      10.894   2.649  23.604  0.00  0.00    -0.169 OA
ATOM      9  O   UNL     1       8.754   2.667  24.944  0.00  0.00    -0.169 OA
BRANCH   7  10
ATOM     10  C   UNL     1       8.595   2.465  22.341  0.00  0.00    +0.172 C 
BRANCH  10  11
ATOM     11  C   UNL     1       7.194   1.858  22.458  0.00  0.00    +0.033 C 
BRANCH  11  12
ATOM     12  C   UNL     1       6.074   2.896  22.500  0.00  0.00    +0.067 C 
BRANCH  12  13
ATOM     13  S   UNL     1       6.695   4.596  22.664  0.00  0.00    -0.178 S 
ATOM     14  H   UNL     1       6.477   4.969  21.394  0.00  0.00    +0.102 HD
ENDBRANCH  12  13
ENDBRANCH  11  12
ENDBRANCH  10  11
ENDBRANCH   7  10
ENDBRANCH   4   7
BRANCH   1  15
ATOM     15  O   UNL     1       9.676  -3.760  24.118  0.00  0.00    -0.480 OA
BRANCH  15  16
ATOM     16  C   UNL     1       8.486  -4.431  24.540  0.00  0.00    +0.317 C 
BRANCH  16  19
ATOM     17  C   UNL     1       6.459  -5.759  21.184  0.00  0.00    +0.106 C 
ATOM     18  C   UNL     1       7.133  -5.268  22.388  0.00  0.00    -0.102 C 
ATOM     19  C   UNL     1       7.716  -4.879  23.364  0.00  0.00    -0.062 C 
ENDBRANCH  16  19
ENDBRANCH  15  16
ENDBRANCH   1  15
TORSDOF 8
ENDMDL
MODEL 6
REMARK VINA RESULT:      -5.2      3.151      7.367
REMARK  Name = 
REMARK  9 active torsions:
REMARK  status: ('A' for Active; 'I' for Inactive)
REMARK    1  A    between atoms: C_1  and  C_2
REMARK    2  A    between atoms: C_3  and  C_4
REMARK    3  A    between atoms: C_4  and  O_5
REMARK    4  A    between atoms: O_5  and  C_6
REMARK    5  A    between atoms: C_9  and  S_12
REMARK    6  A    between atoms: S_12  and  C_15
REMARK    7  A    between atoms: C_15  and  C_16
REMARK    8  A    between atoms: C_16  and  C_17
REMARK    9  A    between atoms: C_17  and  S_18
REMARK                            x       y       z     vdW  Elec       q    Type
REMARK                         _______ _______ _______ _____ _____    ______ ____
ROOT
ATOM      1  C   UNL     1       9.693  -2.387  23.891  0.00  0.00    +0.122 A 
ATOM      2  C   UNL     1       9.243  -1.597  24.954  0.00  0.00    +0.047 A 
ATOM      3  C   UNL     1       9.159  -0.206  24.829  0.00  0.00    +0.030 A 
ATOM      4  C   UNL     1       9.510   0.396  23.618  0.00  0.00    +0.088 A 
ATOM      5  C   UNL     1       9.932  -0.385  22.539  0.00  0.00    +0.030 A 
ATOM      6  C   UNL     1      10.015  -1.776  22.676  0.00  0.00    +0.047 A 
ENDROOT
BRANCH   4   7
ATOM      7  S   UNL     1       9.517   2.171  23.473  0.00  0.00    -0.003 S 
ATOM      8  O   UNL     1       8.798   2.481  22.251  0.00  0.00    -0.169 OA
ATOM      9  O   UNL     1      10.882   2.622  23.670  0.00  0.00    -0.169 OA
BRANCH   7  10
ATOM     10  C   UNL     1       8.553   2.759  24.854  0.00  0.00    +0.172 C 
BRANCH  10  11
ATOM     11  C   UNL     1       8.009   4.164  24.583  0.00  0.00    +0.033 C 
BRANCH  11  12
ATOM     12  C   UNL     1       8.957   5.285  25.003  0.00  0.00    +0.067 C 
BRANCH  12  13
ATOM     13  S   UNL     1       9.432   6.362  23.617  0.00  0.00    -0.178 S 
ATOM     14  H   UNL     1       9.037   7.518  24.171  0.00  0.00    +0.102 HD
ENDBRANCH  12  13
ENDBRANCH  11  12
ENDBRANCH  10  11
ENDBRANCH   7  10
ENDBRANCH   4   7
BRANCH   1  15
ATOM     15  O   UNL     1       9.745  -3.734  24.138  0.00  0.00    -0.480 OA
BRANCH  15  16
ATOM     16  C   UNL     1       8.515  -4.343  24.538  0.00  0.00    +0.317 C 
BRANCH  16  19
ATOM     17  C   UNL     1       6.386  -5.758  21.281  0.00  0.00    +0.106 C 
ATOM     18  C   UNL     1       7.149  -5.215  22.408  0.00  0.00    -0.102 C 
ATOM     19  C   UNL     1       7.769  -4.799  23.349  0.00  0.00    -0.062 C 
ENDBRANCH  16  19
ENDBRANCH  15  16
ENDBRANCH   1  15
TORSDOF 8
ENDMDL
MODEL 7
REMARK VINA RESULT:      -5.2      2.073      2.808
REMARK  Name = 
REMARK  9 active torsions:
REMARK  status: ('A' for Active; 'I' for Inactive)
REMARK    1  A    between atoms: C_1  and  C_2
REMARK    2  A    between atoms: C_3  and  C_4
REMARK    3  A    between atoms: C_4  and  O_5
REMARK    4  A    between atoms: O_5  and  C_6
REMARK    5  A    between atoms: C_9  and  S_12
REMARK    6  A    between atoms: S_12  and  C_15
REMARK    7  A    between atoms: C_15  and  C_16
REMARK    8  A    between atoms: C_16  and  C_17
REMARK    9  A    between atoms: C_17  and  S_18
REMARK                            x       y       z     vdW  Elec       q    Type
REMARK                         _______ _______ _______ _____ _____    ______ ____
ROOT
ATOM      1  C   UNL     1       8.559   2.756  23.174  0.00  0.00    +0.122 A 
ATOM      2  C   UNL     1       8.988   2.132  21.997  0.00  0.00    +0.047 A 
ATOM      3  C   UNL     1       9.256   0.760  21.970  0.00  0.00    +0.030 A 
ATOM      4  C   UNL     1       9.074   0.002  23.128  0.00  0.00    +0.088 A 
ATOM      5  C   UNL     1       8.618   0.607  24.302  0.00  0.00    +0.030 A 
ATOM      6  C   UNL     1       8.354   1.983  24.319  0.00  0.00    +0.047 A 
ENDROOT
BRANCH   4   7
ATOM      7  S   UNL     1       9.517  -1.723  23.146  0.00  0.00    -0.003 S 
ATOM      8  O   UNL     1       9.550  -2.120  24.542  0.00  0.00    -0.169 OA
ATOM      9  O   UNL     1      10.682  -1.886  22.297  0.00  0.00    -0.169 OA
BRANCH   7  10
ATOM     10  C   UNL     1       8.157  -2.565  22.357  0.00  0.00    +0.172 C 
BRANCH  10  11
ATOM     11  C   UNL     1       7.368  -3.400  23.371  0.00  0.00    +0.033 C 
BRANCH  11  12
ATOM     12  C   UNL     1       7.642  -4.899  23.280  0.00  0.00    +0.067 C 
BRANCH  12  13
ATOM     13  S   UNL     1       6.951  -5.651  21.776  0.00  0.00    -0.178 S 
ATOM     14  H   UNL     1       8.121  -6.014  21.228  0.00  0.00    +0.102 HD
ENDBRANCH  12  13
ENDBRANCH  11  12
ENDBRANCH  10  11
ENDBRANCH   7  10
ENDBRANCH   4   7
BRANCH   1  15
ATOM     15  O   UNL     1       8.342   4.105  23.080  0.00  0.00    -0.480 OA
BRANCH  15  16
ATOM     16  C   UNL     1       8.974   4.910  24.078  0.00  0.00    +0.317 C 
BRANCH  16  19
ATOM     17  C   UNL     1      12.993   5.188  23.123  0.00  0.00    +0.106 C 
ATOM     18  C   UNL     1      11.576   5.128  23.493  0.00  0.00    -0.102 C 
ATOM     19  C   UNL     1      10.412   5.052  23.776  0.00  0.00    -0.062 C 
ENDBRANCH  16  19
ENDBRANCH  15  16
ENDBRANCH   1  15
TORSDOF 8
ENDMDL
MODEL 8
REMARK VINA RESULT:      -5.2      1.631      2.030
REMARK  Name = 
REMARK  9 active torsions:
REMARK  status: ('A' for Active; 'I' for Inactive)
REMARK    1  A    between atoms: C_1  and  C_2
REMARK    2  A    between atoms: C_3  and  C_4
REMARK    3  A    between atoms: C_4  and  O_5
REMARK    4  A    between atoms: O_5  and  C_6
REMARK    5  A    between atoms: C_9  and  S_12
REMARK    6  A    between atoms: S_12  and  C_15
REMARK    7  A    between atoms: C_15  and  C_16
REMARK    8  A    between atoms: C_16  and  C_17
REMARK    9  A    between atoms: C_17  and  S_18
REMARK                            x       y       z     vdW  Elec       q    Type
REMARK                         _______ _______ _______ _____ _____    ______ ____
ROOT
ATOM      1  C   UNL     1       9.846   0.086  22.708  0.00  0.00    +0.122 A 
ATOM      2  C   UNL     1      10.117  -0.373  24.001  0.00  0.00    +0.047 A 
ATOM      3  C   UNL     1       9.701  -1.645  24.412  0.00  0.00    +0.030 A 
ATOM      4  C   UNL     1       9.026  -2.470  23.511  0.00  0.00    +0.088 A 
ATOM      5  C   UNL     1       8.775  -2.034  22.207  0.00  0.00    +0.030 A 
ATOM      6  C   UNL     1       9.194  -0.759  21.807  0.00  0.00    +0.047 A 
ENDROOT
BRANCH   4   7
ATOM      7  S   UNL     1       8.390  -4.045  24.047  0.00  0.00    -0.003 S 
ATOM      8  O   UNL     1       9.501  -4.740  24.672  0.00  0.00    -0.169 OA
ATOM      9  O   UNL     1       7.676  -4.634  22.930  0.00  0.00    -0.169 OA
BRANCH   7  10
ATOM     10  C   UNL     1       7.189  -3.662  25.309  0.00  0.00    +0.172 C 
BRANCH  10  11
ATOM     11  C   UNL     1       6.103  -2.730  24.765  0.00  0.00    +0.033 C 
BRANCH  11  12
ATOM     12  C   UNL     1       5.981  -1.413  25.530  0.00  0.00    +0.067 C 
BRANCH  12  13
ATOM     13  S   UNL     1       6.267   0.041  24.477  0.00  0.00    -0.178 S 
ATOM     14  H   UNL     1       7.578   0.170  24.735  0.00  0.00    +0.102 HD
ENDBRANCH  12  13
ENDBRANCH  11  12
ENDBRANCH  10  11
ENDBRANCH   7  10
ENDBRANCH   4   7
BRANCH   1  15
ATOM     15  O   UNL     1      10.291   1.351  22.427  0.00  0.00    -0.480 OA
BRANCH  15  16
ATOM     16  C   UNL     1      10.065   2.331  23.444  0.00  0.00    +0.317 C 
BRANCH  16  19
ATOM     17  C   UNL     1      12.889   5.352  23.242  0.00  0.00    +0.106 C 
ATOM     18  C   UNL     1      11.873   4.296  23.268  0.00  0.00    -0.102 C 
ATOM     19  C   UNL     1      11.051   3.422  23.320  0.00  0.00    -0.062 C 
ENDBRANCH  16  19
ENDBRANCH  15  16
ENDBRANCH   1  15
TORSDOF 8
ENDMDL
MODEL 9
REMARK VINA RESULT:      -5.2      2.359      3.112
REMARK  Name = 
REMARK  9 active torsions:
REMARK  status: ('A' for Active; 'I' for Inactive)
REMARK    1  A    between atoms: C_1  and  C_2
REMARK    2  A    between atoms: C_3  and  C_4
REMARK    3  A    between atoms: C_4  and  O_5
REMARK    4  A    between atoms: O_5  and  C_6
REMARK    5  A    between atoms: C_9  and  S_12
REMARK    6  A    between atoms: S_12  and  C_15
REMARK    7  A    between atoms: C_15  and  C_16
REMARK    8  A    between atoms: C_16  and  C_17
REMARK    9  A    between atoms: C_17  and  S_18
REMARK                            x       y       z     vdW  Elec       q    Type
REMARK                         _______ _______ _______ _____ _____    ______ ____
ROOT
ATOM      1  C   UNL     1       8.867   2.737  23.168  0.00  0.00    +0.122 A 
ATOM      2  C   UNL     1       8.844   1.967  24.335  0.00  0.00    +0.047 A 
ATOM      3  C   UNL     1       9.048   0.584  24.285  0.00  0.00    +0.030 A 
ATOM      4  C   UNL     1       9.297  -0.029  23.055  0.00  0.00    +0.088 A 
ATOM      5  C   UNL     1       9.352   0.734  21.886  0.00  0.00    +0.030 A 
ATOM      6  C   UNL     1       9.144   2.118  21.946  0.00  0.00    +0.047 A 
ENDROOT
BRANCH   4   7
ATOM      7  S   UNL     1       9.448  -1.801  22.955  0.00  0.00    -0.003 S 
ATOM      8  O   UNL     1      10.832  -2.071  22.612  0.00  0.00    -0.169 OA
ATOM      9  O   UNL     1       8.365  -2.287  22.122  0.00  0.00    -0.169 OA
BRANCH   7  10
ATOM     10  C   UNL     1       9.158  -2.391  24.613  0.00  0.00    +0.172 C 
BRANCH  10  11
ATOM     11  C   UNL     1       9.120  -3.922  24.650  0.00  0.00    +0.033 C 
BRANCH  11  12
ATOM     12  C   UNL     1       9.233  -4.508  26.055  0.00  0.00    +0.067 C 
BRANCH  12  13
ATOM     13  S   UNL     1       7.629  -5.031  26.731  0.00  0.00    -0.178 S 
ATOM     14  H   UNL     1       8.031  -6.225  27.192  0.00  0.00    +0.102 HD
ENDBRANCH  12  13
ENDBRANCH  11  12
ENDBRANCH  10  11
ENDBRANCH   7  10
ENDBRANCH   4   7
BRANCH   1  15
ATOM     15  O   UNL     1       8.640   4.078  23.342  0.00  0.00    -0.480 OA
BRANCH  15  16
ATOM     16  C   UNL     1       9.451   4.725  24.326  0.00  0.00    +0.317 C 
BRANCH  16  19
ATOM     17  C   UNL     1      13.161   5.442  22.634  0.00  0.00    +0.106 C 
ATOM     18  C   UNL     1      11.866   5.202  23.277  0.00  0.00    -0.102 C 
ATOM     19  C   UNL     1      10.793   4.995  23.774  0.00  0.00    -0.062 C 
ENDBRANCH  16  19
ENDBRANCH  15  16
ENDBRANCH   1  15
TORSDOF 8
ENDMDL
