MODEL 1
REMARK VINA RESULT:      -5.9      0.000      0.000
REMARK  Name = 
REMARK  7 active torsions:
REMARK  status: ('A' for Active; 'I' for Inactive)
REMARK    1  A    between atoms: C_1  and  O_2
REMARK    2  A    between atoms: O_2  and  C_3
REMARK    3  A    between atoms: C_10  and  C_11
REMARK    4  A    between atoms: C_10  and  C_21
REMARK    5  A    between atoms: C_15  and  O_17
REMARK    6  A    between atoms: C_18  and  O_20
REMARK    7  A    between atoms: C_21  and  O_22
REMARK                            x       y       z     vdW  Elec       q    Type
REMARK                         _______ _______ _______ _____ _____    ______ ____
ROOT
ATOM      1  C   UNL     1       6.713  -3.973  27.098  0.00  0.00    +0.281 C 
ATOM      2  C   UNL     1       7.657  -5.111  26.644  0.00  0.00    +0.201 C 
ATOM      3  C   UNL     1       9.062  -4.613  26.314  0.00  0.00    +0.179 C 
ATOM      4  C   UNL     1       9.016  -3.375  25.427  0.00  0.00    +0.184 C 
ATOM      5  C   UNL     1       8.223  -2.305  26.163  0.00  0.00    +0.178 C 
ATOM      6  C   UNL     1       8.118  -1.101  25.236  0.00  0.00    +0.198 C 
ATOM      7  O   UNL     1       7.508  -1.467  23.990  0.00  0.00    -0.337 OA
ATOM      8  C   UNL     1       8.155  -2.581  23.350  0.00  0.00    +0.268 C 
ATOM      9  C   UNL     1       7.180  -3.055  22.268  0.00  0.00    +0.087 C 
ATOM     10  O   UNL     1       8.358  -3.705  24.197  0.00  0.00    -0.331 OA
ATOM     11  O   UNL     1       6.885  -2.741  26.405  0.00  0.00    -0.341 OA
ENDROOT
BRANCH   1  13
ATOM     12  C   UNL     1       5.152  -4.770  25.481  0.00  0.00    +0.197 C 
ATOM     13  O   UNL     1       5.379  -4.442  26.841  0.00  0.00    -0.352 OA
ENDBRANCH   1  13
BRANCH   2  14
ATOM     14  O   UNL     1       7.774  -6.116  27.673  0.00  0.00    -0.384 OA
ATOM     15  H   UNL     1       6.867  -6.250  28.011  0.00  0.00    +0.210 HD
ENDBRANCH   2  14
BRANCH   3  16
ATOM     16  O   UNL     1       9.790  -5.674  25.675  0.00  0.00    -0.386 OA
ATOM     17  H   UNL     1       9.398  -6.510  25.996  0.00  0.00    +0.210 HD
ENDBRANCH   3  16
BRANCH   8  18
ATOM     18  C   UNL     1       9.418  -2.048  22.603  0.00  0.00    +0.365 C 
ATOM     19  O   UNL     1      10.572  -2.366  22.843  0.00  0.00    -0.245 OA
BRANCH  18  20
ATOM     20  O   UNL     1       9.094  -1.126  21.652  0.00  0.00    -0.477 OA
ATOM     21  H   UNL     1       8.160  -0.837  21.770  0.00  0.00    +0.295 HD
ENDBRANCH  18  20
ENDBRANCH   8  18
TORSDOF 5
ENDMDL
MODEL 2
REMARK VINA RESULT:      -5.7      2.298      4.306
REMARK  Name = 
REMARK  7 active torsions:
REMARK  status: ('A' for Active; 'I' for Inactive)
REMARK    1  A    between atoms: C_1  and  O_2
REMARK    2  A    between atoms: O_2  and  C_3
REMARK    3  A    between atoms: C_10  and  C_11
REMARK    4  A    between atoms: C_10  and  C_21
REMARK    5  A    between atoms: C_15  and  O_17
REMARK    6  A    between atoms: C_18  and  O_20
REMARK    7  A    between atoms: C_21  and  O_22
REMARK                            x       y       z     vdW  Elec       q    Type
REMARK                         _______ _______ _______ _____ _____    ______ ____
ROOT
ATOM      1  C   UNL     1       8.189  -3.226  24.294  0.00  0.00    +0.281 C 
ATOM      2  C   UNL     1       7.033  -2.334  24.806  0.00  0.00    +0.201 C 
ATOM      3  C   UNL     1       6.445  -1.447  23.712  0.00  0.00    +0.179 C 
ATOM      4  C   UNL     1       7.542  -0.747  22.919  0.00  0.00    +0.184 C 
ATOM      5  C   UNL     1       8.440  -1.820  22.321  0.00  0.00    +0.178 C 
ATOM      6  C   UNL     1       9.575  -1.108  21.596  0.00  0.00    +0.198 C 
ATOM      7  O   UNL     1      10.288  -0.242  22.490  0.00  0.00    -0.337 OA
ATOM      8  C   UNL     1       9.432   0.683  23.183  0.00  0.00    +0.268 C 
ATOM      9  C   UNL     1      10.279   1.249  24.327  0.00  0.00    +0.087 C 
ATOM     10  O   UNL     1       8.304   0.082  23.807  0.00  0.00    -0.331 OA
ATOM     11  O   UNL     1       9.050  -2.603  23.348  0.00  0.00    -0.341 OA
ENDROOT
BRANCH   1  13
ATOM     12  C   UNL     1       9.556  -4.848  25.383  0.00  0.00    +0.197 C 
ATOM     13  O   UNL     1       8.972  -3.558  25.453  0.00  0.00    -0.352 OA
ENDBRANCH   1  13
BRANCH   2  14
ATOM     14  O   UNL     1       5.964  -3.143  25.341  0.00  0.00    -0.384 OA
ATOM     15  H   UNL     1       6.398  -3.797  25.924  0.00  0.00    +0.210 HD
ENDBRANCH   2  14
BRANCH   3  16
ATOM     16  O   UNL     1       5.561  -0.490  24.317  0.00  0.00    -0.386 OA
ATOM     17  H   UNL     1       5.197   0.050  23.587  0.00  0.00    +0.210 HD
ENDBRANCH   3  16
BRANCH   8  18
ATOM     18  C   UNL     1       9.130   1.880  22.226  0.00  0.00    +0.365 C 
ATOM     19  O   UNL     1       8.029   2.363  22.020  0.00  0.00    -0.245 OA
BRANCH  18  20
ATOM     20  O   UNL     1      10.253   2.314  21.587  0.00  0.00    -0.477 OA
ATOM     21  H   UNL     1      10.974   1.651  21.687  0.00  0.00    +0.295 HD
ENDBRANCH  18  20
ENDBRANCH   8  18
TORSDOF 5
ENDMDL
MODEL 3
REMARK VINA RESULT:      -5.7      2.076      3.387
REMARK  Name = 
REMARK  7 active torsions:
REMARK  status: ('A' for Active; 'I' for Inactive)
REMARK    1  A    between atoms: C_1  and  O_2
REMARK    2  A    between atoms: O_2  and  C_3
REMARK    3  A    between atoms: C_10  and  C_11
REMARK    4  A    between atoms: C_10  and  C_21
REMARK    5  A    between atoms: C_15  and  O_17
REMARK    6  A    between atoms: C_18  and  O_20
REMARK    7  A    between atoms: C_21  and  O_22
REMARK                            x       y       z     vdW  Elec       q    Type
REMARK                         _______ _______ _______ _____ _____    ______ ____
ROOT
ATOM      1  C   UNL     1       5.440  -4.404  24.523  0.00  0.00    +0.281 C 
ATOM      2  C   UNL     1       5.000  -4.076  23.077  0.00  0.00    +0.201 C 
ATOM      3  C   UNL     1       6.098  -4.345  22.052  0.00  0.00    +0.179 C 
ATOM      4  C   UNL     1       7.431  -3.761  22.503  0.00  0.00    +0.184 C 
ATOM      5  C   UNL     1       7.780  -4.386  23.847  0.00  0.00    +0.178 C 
ATOM      6  C   UNL     1       9.074  -3.739  24.323  0.00  0.00    +0.198 C 
ATOM      7  O   UNL     1       8.931  -2.314  24.410  0.00  0.00    -0.337 OA
ATOM      8  C   UNL     1       8.453  -1.719  23.191  0.00  0.00    +0.268 C 
ATOM      9  C   UNL     1       8.017  -0.300  23.569  0.00  0.00    +0.087 C 
ATOM     10  O   UNL     1       7.294  -2.342  22.651  0.00  0.00    -0.331 OA
ATOM     11  O   UNL     1       6.790  -4.071  24.826  0.00  0.00    -0.341 OA
ENDROOT
BRANCH   1  13
ATOM     12  C   UNL     1       4.934  -2.250  25.413  0.00  0.00    +0.197 C 
ATOM     13  O   UNL     1       4.590  -3.625  25.381  0.00  0.00    -0.352 OA
ENDBRANCH   1  13
BRANCH   2  14
ATOM     14  O   UNL     1       3.846  -4.860  22.706  0.00  0.00    -0.384 OA
ATOM     15  H   UNL     1       4.019  -5.758  23.051  0.00  0.00    +0.210 HD
ENDBRANCH   2  14
BRANCH   3  16
ATOM     16  O   UNL     1       5.698  -3.789  20.789  0.00  0.00    -0.386 OA
ATOM     17  H   UNL     1       5.893  -4.469  20.114  0.00  0.00    +0.210 HD
ENDBRANCH   3  16
BRANCH   8  18
ATOM     18  C   UNL     1       9.664  -1.563  22.217  0.00  0.00    +0.365 C 
ATOM     19  O   UNL     1      10.814  -1.894  22.455  0.00  0.00    -0.245 OA
BRANCH  18  20
ATOM     20  O   UNL     1       9.301  -0.957  21.050  0.00  0.00    -0.477 OA
ATOM     21  H   UNL     1       8.421  -0.529  21.155  0.00  0.00    +0.295 HD
ENDBRANCH  18  20
ENDBRANCH   8  18
TORSDOF 5
ENDMDL
MODEL 4
REMARK VINA RESULT:      -5.6      1.908      5.206
REMARK  Name = 
REMARK  7 active torsions:
REMARK  status: ('A' for Active; 'I' for Inactive)
REMARK    1  A    between atoms: C_1  and  O_2
REMARK    2  A    between atoms: O_2  and  C_3
REMARK    3  A    between atoms: C_10  and  C_11
REMARK    4  A    between atoms: C_10  and  C_21
REMARK    5  A    between atoms: C_15  and  O_17
REMARK    6  A    between atoms: C_18  and  O_20
REMARK    7  A    between atoms: C_21  and  O_22
REMARK                            x       y       z     vdW  Elec       q    Type
REMARK                         _______ _______ _______ _____ _____    ______ ____
ROOT
ATOM      1  C   UNL     1       7.619   0.715  22.723  0.00  0.00    +0.281 C 
ATOM      2  C   UNL     1       9.044   0.230  22.363  0.00  0.00    +0.201 C 
ATOM      3  C   UNL     1       9.058  -1.188  21.800  0.00  0.00    +0.179 C 
ATOM      4  C   UNL     1       8.217  -2.130  22.653  0.00  0.00    +0.184 C 
ATOM      5  C   UNL     1       6.799  -1.579  22.693  0.00  0.00    +0.178 C 
ATOM      6  C   UNL     1       5.987  -2.485  23.609  0.00  0.00    +0.198 C 
ATOM      7  O   UNL     1       6.578  -2.553  24.914  0.00  0.00    -0.337 OA
ATOM      8  C   UNL     1       7.966  -2.927  24.887  0.00  0.00    +0.268 C 
ATOM      9  C   UNL     1       8.509  -2.594  26.280  0.00  0.00    +0.087 C 
ATOM     10  O   UNL     1       8.758  -2.169  23.980  0.00  0.00    -0.331 OA
ATOM     11  O   UNL     1       6.775  -0.281  23.289  0.00  0.00    -0.341 OA
ENDROOT
BRANCH   1  13
ATOM     12  C   UNL     1       8.540   1.343  24.831  0.00  0.00    +0.197 C 
ATOM     13  O   UNL     1       7.792   1.755  23.700  0.00  0.00    -0.352 OA
ENDBRANCH   1  13
BRANCH   2  14
ATOM     14  O   UNL     1       9.645   1.102  21.382  0.00  0.00    -0.384 OA
ATOM     15  H   UNL     1       9.795   0.543  20.594  0.00  0.00    +0.210 HD
ENDBRANCH   2  14
BRANCH   3  16
ATOM     16  O   UNL     1      10.419  -1.643  21.727  0.00  0.00    -0.386 OA
ATOM     17  H   UNL     1      10.872  -1.286  22.518  0.00  0.00    +0.210 HD
ENDBRANCH   3  16
BRANCH   8  18
ATOM     18  C   UNL     1       8.052  -4.479  24.740  0.00  0.00    +0.365 C 
ATOM     19  O   UNL     1       7.131  -5.260  24.914  0.00  0.00    -0.245 OA
BRANCH  18  20
ATOM     20  O   UNL     1       9.315  -4.890  24.432  0.00  0.00    -0.477 OA
ATOM     21  H   UNL     1       9.765  -5.225  25.241  0.00  0.00    +0.295 HD
ENDBRANCH  18  20
ENDBRANCH   8  18
TORSDOF 5
ENDMDL
MODEL 5
REMARK VINA RESULT:      -5.6      3.189      6.137
REMARK  Name = 
REMARK  7 active torsions:
REMARK  status: ('A' for Active; 'I' for Inactive)
REMARK    1  A    between atoms: C_1  and  O_2
REMARK    2  A    between atoms: O_2  and  C_3
REMARK    3  A    between atoms: C_10  and  C_11
REMARK    4  A    between atoms: C_10  and  C_21
REMARK    5  A    between atoms: C_15  and  O_17
REMARK    6  A    between atoms: C_18  and  O_20
REMARK    7  A    between atoms: C_21  and  O_22
REMARK                            x       y       z     vdW  Elec       q    Type
REMARK                         _______ _______ _______ _____ _____    ______ ____
ROOT
ATOM      1  C   UNL     1       6.659   2.482  23.372  0.00  0.00    +0.281 C 
ATOM      2  C   UNL     1       8.014   2.944  22.788  0.00  0.00    +0.201 C 
ATOM      3  C   UNL     1       8.578   1.964  21.763  0.00  0.00    +0.179 C 
ATOM      4  C   UNL     1       8.515   0.531  22.276  0.00  0.00    +0.184 C 
ATOM      5  C   UNL     1       7.059   0.212  22.585  0.00  0.00    +0.178 C 
ATOM      6  C   UNL     1       7.018  -1.194  23.168  0.00  0.00    +0.198 C 
ATOM      7  O   UNL     1       7.851  -1.290  24.332  0.00  0.00    -0.337 OA
ATOM      8  C   UNL     1       9.199  -0.847  24.099  0.00  0.00    +0.268 C 
ATOM      9  C   UNL     1       9.820  -0.668  25.488  0.00  0.00    +0.087 C 
ATOM     10  O   UNL     1       9.297   0.427  23.473  0.00  0.00    -0.331 OA
ATOM     11  O   UNL     1       6.553   1.081  23.599  0.00  0.00    -0.341 OA
ENDROOT
BRANCH   1  13
ATOM     12  C   UNL     1       7.531   2.773  25.573  0.00  0.00    +0.197 C 
ATOM     13  O   UNL     1       6.530   3.145  24.641  0.00  0.00    -0.352 OA
ENDBRANCH   1  13
BRANCH   2  14
ATOM     14  O   UNL     1       7.879   4.229  22.143  0.00  0.00    -0.384 OA
ATOM     15  H   UNL     1       8.712   4.704  22.330  0.00  0.00    +0.210 HD
ENDBRANCH   2  14
BRANCH   3  16
ATOM     16  O   UNL     1       9.932   2.339  21.460  0.00  0.00    -0.386 OA
ATOM     17  H   UNL     1       9.894   2.872  20.641  0.00  0.00    +0.210 HD
ENDBRANCH   3  16
BRANCH   8  18
ATOM     18  C   UNL     1       9.984  -2.009  23.412  0.00  0.00    +0.365 C 
ATOM     19  O   UNL     1      10.640  -1.915  22.388  0.00  0.00    -0.245 OA
BRANCH  18  20
ATOM     20  O   UNL     1       9.817  -3.192  24.071  0.00  0.00    -0.477 OA
ATOM     21  H   UNL     1       9.583  -3.021  25.012  0.00  0.00    +0.295 HD
ENDBRANCH  18  20
ENDBRANCH   8  18
TORSDOF 5
ENDMDL
MODEL 6
REMARK VINA RESULT:      -5.4      2.169      4.644
REMARK  Name = 
REMARK  7 active torsions:
REMARK  status: ('A' for Active; 'I' for Inactive)
REMARK    1  A    between atoms: C_1  and  O_2
REMARK    2  A    between atoms: O_2  and  C_3
REMARK    3  A    between atoms: C_10  and  C_11
REMARK    4  A    between atoms: C_10  and  C_21
REMARK    5  A    between atoms: C_15  and  O_17
REMARK    6  A    between atoms: C_18  and  O_20
REMARK    7  A    between atoms: C_21  and  O_22
REMARK                            x       y       z     vdW  Elec       q    Type
REMARK                         _______ _______ _______ _____ _____    ______ ____
ROOT
ATOM      1  C   UNL     1       8.448  -0.111  24.401  0.00  0.00    +0.281 C 
ATOM      2  C   UNL     1       9.558  -0.577  23.429  0.00  0.00    +0.201 C 
ATOM      3  C   UNL     1       8.999  -1.212  22.159  0.00  0.00    +0.179 C 
ATOM      4  C   UNL     1       7.909  -2.228  22.482  0.00  0.00    +0.184 C 
ATOM      5  C   UNL     1       6.814  -1.504  23.252  0.00  0.00    +0.178 C 
ATOM      6  C   UNL     1       5.768  -2.544  23.635  0.00  0.00    +0.198 C 
ATOM      7  O   UNL     1       6.359  -3.604  24.400  0.00  0.00    -0.337 OA
ATOM      8  C   UNL     1       7.496  -4.202  23.754  0.00  0.00    +0.268 C 
ATOM      9  C   UNL     1       8.200  -5.025  24.837  0.00  0.00    +0.087 C 
ATOM     10  O   UNL     1       8.466  -3.268  23.295  0.00  0.00    -0.331 OA
ATOM     11  O   UNL     1       7.320  -0.975  24.478  0.00  0.00    -0.341 OA
ENDROOT
BRANCH   1  13
ATOM     12  C   UNL     1       8.699  -1.159  26.529  0.00  0.00    +0.197 C 
ATOM     13  O   UNL     1       9.058  -0.065  25.702  0.00  0.00    -0.352 OA
ENDBRANCH   1  13
BRANCH   2  14
ATOM     14  O   UNL     1      10.392   0.534  23.038  0.00  0.00    -0.384 OA
ATOM     15  H   UNL     1      11.270   0.349  23.424  0.00  0.00    +0.210 HD
ENDBRANCH   2  14
BRANCH   3  16
ATOM     16  O   UNL     1      10.076  -1.831  21.438  0.00  0.00    -0.386 OA
ATOM     17  H   UNL     1      10.840  -1.853  22.049  0.00  0.00    +0.210 HD
ENDBRANCH   3  16
BRANCH   8  18
ATOM     18  C   UNL     1       6.974  -5.224  22.695  0.00  0.00    +0.365 C 
ATOM     19  O   UNL     1       7.410  -5.360  21.563  0.00  0.00    -0.245 OA
BRANCH  18  20
ATOM     20  O   UNL     1       5.914  -5.943  23.163  0.00  0.00    -0.477 OA
ATOM     21  H   UNL     1       5.861  -6.806  22.692  0.00  0.00    +0.295 HD
ENDBRANCH  18  20
ENDBRANCH   8  18
TORSDOF 5
ENDMDL
MODEL 7
REMARK VINA RESULT:      -5.4      2.675      5.696
REMARK  Name = 
REMARK  7 active torsions:
REMARK  status: ('A' for Active; 'I' for Inactive)
REMARK    1  A    between atoms: C_1  and  O_2
REMARK    2  A    between atoms: O_2  and  C_3
REMARK    3  A    between atoms: C_10  and  C_11
REMARK    4  A    between atoms: C_10  and  C_21
REMARK    5  A    between atoms: C_15  and  O_17
REMARK    6  A    between atoms: C_18  and  O_20
REMARK    7  A    between atoms: C_21  and  O_22
REMARK                            x       y       z     vdW  Elec       q    Type
REMARK                         _______ _______ _______ _____ _____    ______ ____
ROOT
ATOM      1  C   UNL     1       9.523   1.361  21.955  0.00  0.00    +0.281 C 
ATOM      2  C   UNL     1       9.933   1.597  23.427  0.00  0.00    +0.201 C 
ATOM      3  C   UNL     1      10.526   0.352  24.081  0.00  0.00    +0.179 C 
ATOM      4  C   UNL     1       9.669  -0.878  23.804  0.00  0.00    +0.184 C 
ATOM      5  C   UNL     1       9.578  -1.050  22.295  0.00  0.00    +0.178 C 
ATOM      6  C   UNL     1       8.658  -2.235  22.030  0.00  0.00    +0.198 C 
ATOM      7  O   UNL     1       7.372  -2.028  22.631  0.00  0.00    -0.337 OA
ATOM      8  C   UNL     1       7.447  -1.712  24.032  0.00  0.00    +0.268 C 
ATOM      9  C   UNL     1       6.063  -1.172  24.406  0.00  0.00    +0.087 C 
ATOM     10  O   UNL     1       8.360  -0.667  24.348  0.00  0.00    -0.331 OA
ATOM     11  O   UNL     1       8.954   0.083  21.691  0.00  0.00    -0.341 OA
ENDROOT
BRANCH   1  13
ATOM     12  C   UNL     1       7.233   2.008  22.113  0.00  0.00    +0.197 C 
ATOM     13  O   UNL     1       8.529   2.357  21.658  0.00  0.00    -0.352 OA
ENDBRANCH   1  13
BRANCH   2  14
ATOM     14  O   UNL     1      10.913   2.654  23.520  0.00  0.00    -0.384 OA
ATOM     15  H   UNL     1      10.444   3.409  23.925  0.00  0.00    +0.210 HD
ENDBRANCH   2  14
BRANCH   3  16
ATOM     16  O   UNL     1      10.647   0.583  25.493  0.00  0.00    -0.386 OA
ATOM     17  H   UNL     1      10.969  -0.254  25.883  0.00  0.00    +0.210 HD
ENDBRANCH   3  16
BRANCH   8  18
ATOM     18  C   UNL     1       7.629  -3.045  24.824  0.00  0.00    +0.365 C 
ATOM     19  O   UNL     1       8.428  -3.230  25.727  0.00  0.00    -0.245 OA
BRANCH  18  20
ATOM     20  O   UNL     1       6.807  -4.028  24.358  0.00  0.00    -0.477 OA
ATOM     21  H   UNL     1       6.857  -4.069  23.376  0.00  0.00    +0.295 HD
ENDBRANCH  18  20
ENDBRANCH   8  18
TORSDOF 5
ENDMDL
MODEL 8
REMARK VINA RESULT:      -5.4      2.184      5.020
REMARK  Name = 
REMARK  7 active torsions:
REMARK  status: ('A' for Active; 'I' for Inactive)
REMARK    1  A    between atoms: C_1  and  O_2
REMARK    2  A    between atoms: O_2  and  C_3
REMARK    3  A    between atoms: C_10  and  C_11
REMARK    4  A    between atoms: C_10  and  C_21
REMARK    5  A    between atoms: C_15  and  O_17
REMARK    6  A    between atoms: C_18  and  O_20
REMARK    7  A    between atoms: C_21  and  O_22
REMARK                            x       y       z     vdW  Elec       q    Type
REMARK                         _______ _______ _______ _____ _____    ______ ____
ROOT
ATOM      1  C   UNL     1       8.114  -2.850  22.572  0.00  0.00    +0.281 C 
ATOM      2  C   UNL     1       8.717  -3.040  23.984  0.00  0.00    +0.201 C 
ATOM      3  C   UNL     1       8.818  -4.508  24.389  0.00  0.00    +0.179 C 
ATOM      4  C   UNL     1       7.519  -5.251  24.100  0.00  0.00    +0.184 C 
ATOM      5  C   UNL     1       7.230  -5.119  22.612  0.00  0.00    +0.178 C 
ATOM      6  C   UNL     1       5.892  -5.799  22.349  0.00  0.00    +0.198 C 
ATOM      7  O   UNL     1       4.857  -5.220  23.156  0.00  0.00    -0.337 OA
ATOM      8  C   UNL     1       5.179  -5.197  24.557  0.00  0.00    +0.268 C 
ATOM      9  C   UNL     1       4.168  -4.240  25.196  0.00  0.00    +0.087 C 
ATOM     10  O   UNL     1       6.459  -4.651  24.855  0.00  0.00    -0.331 OA
ATOM     11  O   UNL     1       7.060  -3.749  22.247  0.00  0.00    -0.341 OA
ENDROOT
BRANCH   1  13
ATOM     12  C   UNL     1       6.474  -1.339  23.416  0.00  0.00    +0.197 C 
ATOM     13  O   UNL     1       7.580  -1.515  22.548  0.00  0.00    -0.352 OA
ENDBRANCH   1  13
BRANCH   2  14
ATOM     14  O   UNL     1      10.041  -2.470  24.054  0.00  0.00    -0.384 OA
ATOM     15  H   UNL     1      10.624  -3.108  23.597  0.00  0.00    +0.210 HD
ENDBRANCH   2  14
BRANCH   3  16
ATOM     16  O   UNL     1       9.149  -4.582  25.785  0.00  0.00    -0.386 OA
ATOM     17  H   UNL     1      10.124  -4.525  25.840  0.00  0.00    +0.210 HD
ENDBRANCH   3  16
BRANCH   8  18
ATOM     18  C   UNL     1       4.883  -6.611  25.150  0.00  0.00    +0.365 C 
ATOM     19  O   UNL     1       4.221  -7.483  24.610  0.00  0.00    -0.245 OA
BRANCH  18  20
ATOM     20  O   UNL     1       5.420  -6.763  26.394  0.00  0.00    -0.477 OA
ATOM     21  H   UNL     1       6.202  -7.360  26.351  0.00  0.00    +0.295 HD
ENDBRANCH  18  20
ENDBRANCH   8  18
TORSDOF 5
ENDMDL
MODEL 9
REMARK VINA RESULT:      -5.3      2.122      5.232
REMARK  Name = 
REMARK  7 active torsions:
REMARK  status: ('A' for Active; 'I' for Inactive)
REMARK    1  A    between atoms: C_1  and  O_2
REMARK    2  A    between atoms: O_2  and  C_3
REMARK    3  A    between atoms: C_10  and  C_11
REMARK    4  A    between atoms: C_10  and  C_21
REMARK    5  A    between atoms: C_15  and  O_17
REMARK    6  A    between atoms: C_18  and  O_20
REMARK    7  A    between atoms: C_21  and  O_22
REMARK                            x       y       z     vdW  Elec       q    Type
REMARK                         _______ _______ _______ _____ _____    ______ ____
ROOT
ATOM      1  C   UNL     1       6.101  -2.805  22.679  0.00  0.00    +0.281 C 
ATOM      2  C   UNL     1       6.105  -4.293  22.255  0.00  0.00    +0.201 C 
ATOM      3  C   UNL     1       5.132  -5.140  23.071  0.00  0.00    +0.179 C 
ATOM      4  C   UNL     1       5.271  -4.859  24.562  0.00  0.00    +0.184 C 
ATOM      5  C   UNL     1       5.011  -3.376  24.782  0.00  0.00    +0.178 C 
ATOM      6  C   UNL     1       5.228  -3.093  26.263  0.00  0.00    +0.198 C 
ATOM      7  O   UNL     1       6.549  -3.478  26.669  0.00  0.00    -0.337 OA
ATOM      8  C   UNL     1       6.870  -4.838  26.332  0.00  0.00    +0.268 C 
ATOM      9  C   UNL     1       8.388  -4.955  26.492  0.00  0.00    +0.087 C 
ATOM     10  O   UNL     1       6.604  -5.184  24.977  0.00  0.00    -0.331 OA
ATOM     11  O   UNL     1       5.969  -2.583  24.079  0.00  0.00    -0.341 OA
ENDROOT
BRANCH   1  13
ATOM     12  C   UNL     1       8.449  -2.701  23.081  0.00  0.00    +0.197 C 
ATOM     13  O   UNL     1       7.371  -2.274  22.266  0.00  0.00    -0.352 OA
ENDBRANCH   1  13
BRANCH   2  14
ATOM     14  O   UNL     1       5.748  -4.426  20.863  0.00  0.00    -0.384 OA
ATOM     15  H   UNL     1       6.218  -3.704  20.403  0.00  0.00    +0.210 HD
ENDBRANCH   2  14
BRANCH   3  16
ATOM     16  O   UNL     1       5.375  -6.527  22.787  0.00  0.00    -0.386 OA
ATOM     17  H   UNL     1       5.514  -6.965  23.651  0.00  0.00    +0.210 HD
ENDBRANCH   3  16
BRANCH   8  18
ATOM     18  C   UNL     1       6.239  -5.771  27.414  0.00  0.00    +0.365 C 
ATOM     19  O   UNL     1       5.612  -6.794  27.191  0.00  0.00    -0.245 OA
BRANCH  18  20
ATOM     20  O   UNL     1       6.428  -5.286  28.674  0.00  0.00    -0.477 OA
ATOM     21  H   UNL     1       6.931  -4.441  28.635  0.00  0.00    +0.295 HD
ENDBRANCH  18  20
ENDBRANCH   8  18
TORSDOF 5
ENDMDL
