MODEL 1
REMARK VINA RESULT:      -7.3      0.000      0.000
REMARK  Name = 
REMARK  8 active torsions:
REMARK  status: ('A' for Active; 'I' for Inactive)
REMARK    1  A    between atoms: C_1  and  C_2
REMARK    2  A    between atoms: C_1  and  C_23
REMARK    3  A    between atoms: C_2  and  N_3
REMARK    4  A    between atoms: C_6  and  O_9
REMARK    5  A    between atoms: O_9  and  C_10
REMARK    6  A    between atoms: C_10  and  C_11
REMARK    7  A    between atoms: C_10  and  C_17
REMARK    8  A    between atoms: C_23  and  C_24
REMARK                            x       y       z     vdW  Elec       q    Type
REMARK                         _______ _______ _______ _____ _____    ______ ____
ROOT
ATOM      1  N   UNL     1       7.907  -1.710  22.779  0.00  0.00    -0.302 NA
ATOM      2  C   UNL     1       8.739  -0.979  21.801  0.00  0.00    +0.087 C 
ATOM      3  C   UNL     1      10.194  -0.790  22.268  0.00  0.00    +0.047 C 
ATOM      4  C   UNL     1      10.217   0.070  23.536  0.00  0.00    +0.122 C 
ATOM      5  C   UNL     1       9.347  -0.639  24.584  0.00  0.00    +0.047 C 
ATOM      6  C   UNL     1       7.952  -1.037  24.084  0.00  0.00    +0.087 C 
ENDROOT
BRANCH   1   7
ATOM      7  C   UNL     1       8.245  -3.137  22.759  0.00  0.00    +0.085 C 
BRANCH   7   8
ATOM      8  C   UNL     1       7.397  -4.055  23.642  0.00  0.00    +0.023 C 
BRANCH   8   9
ATOM      9  C   UNL     1       8.317  -4.783  24.630  0.00  0.00    +0.079 C 
BRANCH   9  10
ATOM     10  C   UNL     1       7.571  -5.318  25.788  0.00  0.00    +0.149 A 
ATOM     11  N   UNL     1       8.121  -5.535  27.018  0.00  0.00    -0.243 N 
ATOM     12  H   UNL     1       9.067  -5.390  27.348  0.00  0.00    +0.192 HD
ATOM     13  N   UNL     1       7.193  -6.016  27.853  0.00  0.00    -0.047 NA
ATOM     14  N   UNL     1       6.083  -6.090  27.131  0.00  0.00    -0.023 NA
ATOM     15  N   UNL     1       6.301  -5.656  25.846  0.00  0.00    -0.114 NA
ENDBRANCH   9  10
ENDBRANCH   8   9
ENDBRANCH   7   8
ENDBRANCH   1   7
BRANCH   4  16
ATOM     16  O   UNL     1       9.864   1.365  23.066  0.00  0.00    -0.364 OA
BRANCH  16  17
ATOM     17  C   UNL     1       9.416   2.408  23.921  0.00  0.00    +0.179 C 
BRANCH  17  18
ATOM     18  C   UNL     1       7.920   2.512  23.592  0.00  0.00    -0.014 A 
ATOM     19  C   UNL     1       6.944   2.495  24.612  0.00  0.00    +0.006 A 
ATOM     20  C   UNL     1       5.595   2.719  24.336  0.00  0.00    +0.000 A 
ATOM     21  C   UNL     1       5.194   2.986  23.028  0.00  0.00    +0.000 A 
ATOM     22  C   UNL     1       6.139   2.991  22.003  0.00  0.00    +0.000 A 
ATOM     23  C   UNL     1       7.488   2.748  22.278  0.00  0.00    +0.006 A 
ENDBRANCH  17  18
BRANCH  17  24
ATOM     24  C   UNL     1      10.230   3.696  23.796  0.00  0.00    -0.014 A 
ATOM     25  C   UNL     1      11.567   3.615  23.360  0.00  0.00    +0.006 A 
ATOM     26  C   UNL     1      12.395   4.742  23.320  0.00  0.00    +0.000 A 
ATOM     27  C   UNL     1      11.899   5.983  23.705  0.00  0.00    +0.000 A 
ATOM     28  C   UNL     1      10.567   6.101  24.086  0.00  0.00    +0.000 A 
ATOM     29  C   UNL     1       9.737   4.973  24.122  0.00  0.00    +0.006 A 
ENDBRANCH  17  24
ENDBRANCH  16  17
ENDBRANCH   4  16
TORSDOF 8
ENDMDL
MODEL 2
REMARK VINA RESULT:      -7.1      3.621      8.660
REMARK  Name = 
REMARK  8 active torsions:
REMARK  status: ('A' for Active; 'I' for Inactive)
REMARK    1  A    between atoms: C_1  and  C_2
REMARK    2  A    between atoms: C_1  and  C_23
REMARK    3  A    between atoms: C_2  and  N_3
REMARK    4  A    between atoms: C_6  and  O_9
REMARK    5  A    between atoms: O_9  and  C_10
REMARK    6  A    between atoms: C_10  and  C_11
REMARK    7  A    between atoms: C_10  and  C_17
REMARK    8  A    between atoms: C_23  and  C_24
REMARK                            x       y       z     vdW  Elec       q    Type
REMARK                         _______ _______ _______ _____ _____    ______ ____
ROOT
ATOM      1  N   UNL     1       8.784  -0.543  23.315  0.00  0.00    -0.302 NA
ATOM      2  C   UNL     1       7.935  -0.595  24.524  0.00  0.00    +0.087 C 
ATOM      3  C   UNL     1       8.628  -1.275  25.719  0.00  0.00    +0.047 C 
ATOM      4  C   UNL     1       8.926  -2.738  25.374  0.00  0.00    +0.122 C 
ATOM      5  C   UNL     1       9.795  -2.740  24.108  0.00  0.00    +0.047 C 
ATOM      6  C   UNL     1       9.237  -1.893  22.957  0.00  0.00    +0.087 C 
ENDROOT
BRANCH   1   7
ATOM      7  C   UNL     1       9.822   0.482  23.475  0.00  0.00    +0.085 C 
BRANCH   7   8
ATOM      8  C   UNL     1      10.014   1.450  22.305  0.00  0.00    +0.023 C 
BRANCH   8   9
ATOM      9  C   UNL     1       8.738   1.461  21.455  0.00  0.00    +0.079 C 
BRANCH   9  10
ATOM     10  C   UNL     1       7.776   2.485  21.917  0.00  0.00    +0.149 A 
ATOM     11  N   UNL     1       8.090   3.801  22.101  0.00  0.00    -0.243 N 
ATOM     12  H   UNL     1       8.967   4.289  21.973  0.00  0.00    +0.192 HD
ATOM     13  N   UNL     1       7.010   4.472  22.515  0.00  0.00    -0.047 NA
ATOM     14  N   UNL     1       6.044   3.565  22.583  0.00  0.00    -0.023 NA
ATOM     15  N   UNL     1       6.504   2.326  22.210  0.00  0.00    -0.114 NA
ENDBRANCH   9  10
ENDBRANCH   8   9
ENDBRANCH   7   8
ENDBRANCH   1   7
BRANCH   4  16
ATOM     16  O   UNL     1       7.641  -3.346  25.365  0.00  0.00    -0.364 OA
BRANCH  16  17
ATOM     17  C   UNL     1       7.438  -4.733  25.131  0.00  0.00    +0.179 C 
BRANCH  17  18
ATOM     18  C   UNL     1       6.926  -4.773  23.684  0.00  0.00    -0.014 A 
ATOM     19  C   UNL     1       6.110  -3.743  23.168  0.00  0.00    +0.006 A 
ATOM     20  C   UNL     1       5.749  -3.703  21.821  0.00  0.00    +0.000 A 
ATOM     21  C   UNL     1       6.215  -4.688  20.953  0.00  0.00    +0.000 A 
ATOM     22  C   UNL     1       7.008  -5.724  21.445  0.00  0.00    +0.000 A 
ATOM     23  C   UNL     1       7.354  -5.773  22.798  0.00  0.00    +0.006 A 
ENDBRANCH  17  18
BRANCH  17  24
ATOM     24  C   UNL     1       6.558  -5.410  26.182  0.00  0.00    -0.014 A 
ATOM     25  C   UNL     1       6.942  -5.340  27.536  0.00  0.00    +0.006 A 
ATOM     26  C   UNL     1       6.237  -6.022  28.534  0.00  0.00    +0.000 A 
ATOM     27  C   UNL     1       5.121  -6.782  28.202  0.00  0.00    +0.000 A 
ATOM     28  C   UNL     1       4.688  -6.823  26.881  0.00  0.00    +0.000 A 
ATOM     29  C   UNL     1       5.391  -6.137  25.883  0.00  0.00    +0.006 A 
ENDBRANCH  17  24
ENDBRANCH  16  17
ENDBRANCH   4  16
TORSDOF 8
ENDMDL
MODEL 3
REMARK VINA RESULT:      -7.0      2.082      2.502
REMARK  Name = 
REMARK  8 active torsions:
REMARK  status: ('A' for Active; 'I' for Inactive)
REMARK    1  A    between atoms: C_1  and  C_2
REMARK    2  A    between atoms: C_1  and  C_23
REMARK    3  A    between atoms: C_2  and  N_3
REMARK    4  A    between atoms: C_6  and  O_9
REMARK    5  A    between atoms: O_9  and  C_10
REMARK    6  A    between atoms: C_10  and  C_11
REMARK    7  A    between atoms: C_10  and  C_17
REMARK    8  A    between atoms: C_23  and  C_24
REMARK                            x       y       z     vdW  Elec       q    Type
REMARK                         _______ _______ _______ _____ _____    ______ ____
ROOT
ATOM      1  N   UNL     1       8.338  -1.311  24.869  0.00  0.00    -0.302 NA
ATOM      2  C   UNL     1       8.168  -0.906  23.458  0.00  0.00    +0.087 C 
ATOM      3  C   UNL     1       9.503  -0.767  22.704  0.00  0.00    +0.047 C 
ATOM      4  C   UNL     1      10.339   0.347  23.344  0.00  0.00    +0.122 C 
ATOM      5  C   UNL     1      10.530  -0.018  24.823  0.00  0.00    +0.047 C 
ATOM      6  C   UNL     1       9.232  -0.373  25.560  0.00  0.00    +0.087 C 
ENDROOT
BRANCH   1   7
ATOM      7  C   UNL     1       8.687  -2.734  24.943  0.00  0.00    +0.085 C 
BRANCH   7   8
ATOM      8  C   UNL     1       7.540  -3.731  24.764  0.00  0.00    +0.023 C 
BRANCH   8   9
ATOM      9  C   UNL     1       7.959  -4.791  23.738  0.00  0.00    +0.079 C 
BRANCH   9  10
ATOM     10  C   UNL     1       7.088  -4.777  22.543  0.00  0.00    +0.149 A 
ATOM     11  N   UNL     1       6.948  -5.830  21.686  0.00  0.00    -0.243 N 
ATOM     12  H   UNL     1       7.379  -6.745  21.697  0.00  0.00    +0.192 HD
ATOM     13  N   UNL     1       6.089  -5.512  20.711  0.00  0.00    -0.047 NA
ATOM     14  N   UNL     1       5.709  -4.269  20.976  0.00  0.00    -0.023 NA
ATOM     15  N   UNL     1       6.319  -3.800  22.114  0.00  0.00    -0.114 NA
ENDBRANCH   9  10
ENDBRANCH   8   9
ENDBRANCH   7   8
ENDBRANCH   1   7
BRANCH   4  16
ATOM     16  O   UNL     1       9.645   1.534  22.980  0.00  0.00    -0.364 OA
BRANCH  16  17
ATOM     17  C   UNL     1       9.290   2.545  23.914  0.00  0.00    +0.179 C 
BRANCH  17  18
ATOM     18  C   UNL     1       7.779   2.709  23.696  0.00  0.00    -0.014 A 
ATOM     19  C   UNL     1       6.884   2.758  24.786  0.00  0.00    +0.006 A 
ATOM     20  C   UNL     1       5.529   3.037  24.607  0.00  0.00    +0.000 A 
ATOM     21  C   UNL     1       5.042   3.294  23.326  0.00  0.00    +0.000 A 
ATOM     22  C   UNL     1       5.905   3.234  22.234  0.00  0.00    +0.000 A 
ATOM     23  C   UNL     1       7.259   2.936  22.413  0.00  0.00    +0.006 A 
ENDBRANCH  17  18
BRANCH  17  24
ATOM     24  C   UNL     1      10.135   3.813  23.795  0.00  0.00    -0.014 A 
ATOM     25  C   UNL     1      11.466   3.703  23.346  0.00  0.00    +0.006 A 
ATOM     26  C   UNL     1      12.322   4.809  23.310  0.00  0.00    +0.000 A 
ATOM     27  C   UNL     1      11.862   6.058  23.713  0.00  0.00    +0.000 A 
ATOM     28  C   UNL     1      10.536   6.206  24.108  0.00  0.00    +0.000 A 
ATOM     29  C   UNL     1       9.679   5.099  24.139  0.00  0.00    +0.006 A 
ENDBRANCH  17  24
ENDBRANCH  16  17
ENDBRANCH   4  16
TORSDOF 8
ENDMDL
MODEL 4
REMARK VINA RESULT:      -7.0      2.427      4.053
REMARK  Name = 
REMARK  8 active torsions:
REMARK  status: ('A' for Active; 'I' for Inactive)
REMARK    1  A    between atoms: C_1  and  C_2
REMARK    2  A    between atoms: C_1  and  C_23
REMARK    3  A    between atoms: C_2  and  N_3
REMARK    4  A    between atoms: C_6  and  O_9
REMARK    5  A    between atoms: O_9  and  C_10
REMARK    6  A    between atoms: C_10  and  C_11
REMARK    7  A    between atoms: C_10  and  C_17
REMARK    8  A    between atoms: C_23  and  C_24
REMARK                            x       y       z     vdW  Elec       q    Type
REMARK                         _______ _______ _______ _____ _____    ______ ____
ROOT
ATOM      1  N   UNL     1       5.513  -4.441  24.302  0.00  0.00    -0.302 NA
ATOM      2  C   UNL     1       4.927  -3.312  23.549  0.00  0.00    +0.087 C 
ATOM      3  C   UNL     1       5.580  -3.102  22.171  0.00  0.00    +0.047 C 
ATOM      4  C   UNL     1       7.057  -2.738  22.354  0.00  0.00    +0.122 C 
ATOM      5  C   UNL     1       7.712  -3.876  23.151  0.00  0.00    +0.047 C 
ATOM      6  C   UNL     1       6.964  -4.260  24.434  0.00  0.00    +0.087 C 
ENDROOT
BRANCH   1   7
ATOM      7  C   UNL     1       5.054  -5.714  23.735  0.00  0.00    +0.085 C 
BRANCH   7   8
ATOM      8  C   UNL     1       4.947  -6.895  24.703  0.00  0.00    +0.023 C 
BRANCH   8   9
ATOM      9  C   UNL     1       4.348  -6.400  26.026  0.00  0.00    +0.079 C 
BRANCH   9  10
ATOM     10  C   UNL     1       5.279  -6.591  27.158  0.00  0.00    +0.149 A 
ATOM     11  N   UNL     1       5.057  -7.453  28.193  0.00  0.00    -0.243 N 
ATOM     12  H   UNL     1       4.278  -8.072  28.375  0.00  0.00    +0.192 HD
ATOM     13  N   UNL     1       6.081  -7.403  29.053  0.00  0.00    -0.047 NA
ATOM     14  N   UNL     1       6.921  -6.514  28.541  0.00  0.00    -0.023 NA
ATOM     15  N   UNL     1       6.438  -6.003  27.361  0.00  0.00    -0.114 NA
ENDBRANCH   9  10
ENDBRANCH   8   9
ENDBRANCH   7   8
ENDBRANCH   1   7
BRANCH   4  16
ATOM     16  O   UNL     1       7.011  -1.421  22.887  0.00  0.00    -0.364 OA
BRANCH  16  17
ATOM     17  C   UNL     1       7.887  -0.964  23.909  0.00  0.00    +0.179 C 
BRANCH  17  18
ATOM     18  C   UNL     1       6.928  -0.571  25.042  0.00  0.00    -0.014 A 
ATOM     19  C   UNL     1       5.900   0.374  24.837  0.00  0.00    +0.006 A 
ATOM     20  C   UNL     1       4.945   0.639  25.818  0.00  0.00    +0.000 A 
ATOM     21  C   UNL     1       4.987  -0.054  27.026  0.00  0.00    +0.000 A 
ATOM     22  C   UNL     1       6.003  -0.980  27.257  0.00  0.00    +0.000 A 
ATOM     23  C   UNL     1       6.971  -1.232  26.280  0.00  0.00    +0.006 A 
ENDBRANCH  17  18
BRANCH  17  24
ATOM     24  C   UNL     1       8.865   0.115  23.442  0.00  0.00    -0.014 A 
ATOM     25  C   UNL     1       9.704   0.729  24.394  0.00  0.00    +0.006 A 
ATOM     26  C   UNL     1      10.548   1.790  24.050  0.00  0.00    +0.000 A 
ATOM     27  C   UNL     1      10.582   2.256  22.740  0.00  0.00    +0.000 A 
ATOM     28  C   UNL     1       9.806   1.631  21.770  0.00  0.00    +0.000 A 
ATOM     29  C   UNL     1       8.964   0.566  22.113  0.00  0.00    +0.006 A 
ENDBRANCH  17  24
ENDBRANCH  16  17
ENDBRANCH   4  16
TORSDOF 8
ENDMDL
MODEL 5
REMARK VINA RESULT:      -6.9      1.776      3.349
REMARK  Name = 
REMARK  8 active torsions:
REMARK  status: ('A' for Active; 'I' for Inactive)
REMARK    1  A    between atoms: C_1  and  C_2
REMARK    2  A    between atoms: C_1  and  C_23
REMARK    3  A    between atoms: C_2  and  N_3
REMARK    4  A    between atoms: C_6  and  O_9
REMARK    5  A    between atoms: O_9  and  C_10
REMARK    6  A    between atoms: C_10  and  C_11
REMARK    7  A    between atoms: C_10  and  C_17
REMARK    8  A    between atoms: C_23  and  C_24
REMARK                            x       y       z     vdW  Elec       q    Type
REMARK                         _______ _______ _______ _____ _____    ______ ____
ROOT
ATOM      1  N   UNL     1       6.970  -1.142  25.314  0.00  0.00    -0.302 NA
ATOM      2  C   UNL     1       7.931  -0.455  26.201  0.00  0.00    +0.087 C 
ATOM      3  C   UNL     1       7.420   0.906  26.706  0.00  0.00    +0.047 C 
ATOM      4  C   UNL     1       7.225   1.853  25.517  0.00  0.00    +0.122 C 
ATOM      5  C   UNL     1       6.243   1.175  24.550  0.00  0.00    +0.047 C 
ATOM      6  C   UNL     1       6.609  -0.270  24.188  0.00  0.00    +0.087 C 
ENDROOT
BRANCH   1   7
ATOM      7  C   UNL     1       5.863  -1.694  26.104  0.00  0.00    +0.085 C 
BRANCH   7   8
ATOM      8  C   UNL     1       6.048  -3.115  26.641  0.00  0.00    +0.023 C 
BRANCH   8   9
ATOM      9  C   UNL     1       6.257  -4.070  25.459  0.00  0.00    +0.079 C 
BRANCH   9  10
ATOM     10  C   UNL     1       7.688  -4.369  25.238  0.00  0.00    +0.149 A 
ATOM     11  N   UNL     1       8.523  -3.596  24.485  0.00  0.00    -0.243 N 
ATOM     12  H   UNL     1       8.341  -2.744  23.970  0.00  0.00    +0.192 HD
ATOM     13  N   UNL     1       9.752  -4.124  24.482  0.00  0.00    -0.047 NA
ATOM     14  N   UNL     1       9.662  -5.215  25.232  0.00  0.00    -0.023 NA
ATOM     15  N   UNL     1       8.386  -5.378  25.712  0.00  0.00    -0.114 NA
ENDBRANCH   9  10
ENDBRANCH   8   9
ENDBRANCH   7   8
ENDBRANCH   1   7
BRANCH   4  16
ATOM     16  O   UNL     1       8.553   2.147  25.104  0.00  0.00    -0.364 OA
BRANCH  16  17
ATOM     17  C   UNL     1       8.879   2.612  23.801  0.00  0.00    +0.179 C 
BRANCH  17  18
ATOM     18  C   UNL     1       9.394   1.348  23.097  0.00  0.00    -0.014 A 
ATOM     19  C   UNL     1      10.172   0.393  23.785  0.00  0.00    +0.006 A 
ATOM     20  C   UNL     1      10.533  -0.818  23.193  0.00  0.00    +0.000 A 
ATOM     21  C   UNL     1      10.104  -1.108  21.899  0.00  0.00    +0.000 A 
ATOM     22  C   UNL     1       9.349  -0.171  21.195  0.00  0.00    +0.000 A 
ATOM     23  C   UNL     1       9.003   1.049  21.782  0.00  0.00    +0.006 A 
ENDBRANCH  17  18
BRANCH  17  24
ATOM     24  C   UNL     1       9.813   3.821  23.797  0.00  0.00    -0.014 A 
ATOM     25  C   UNL     1      11.125   3.665  23.306  0.00  0.00    +0.006 A 
ATOM     26  C   UNL     1      12.059   4.704  23.367  0.00  0.00    +0.000 A 
ATOM     27  C   UNL     1      11.700   5.932  23.911  0.00  0.00    +0.000 A 
ATOM     28  C   UNL     1      10.396   6.131  24.352  0.00  0.00    +0.000 A 
ATOM     29  C   UNL     1       9.459   5.092  24.286  0.00  0.00    +0.006 A 
ENDBRANCH  17  24
ENDBRANCH  16  17
ENDBRANCH   4  16
TORSDOF 8
ENDMDL
MODEL 6
REMARK VINA RESULT:      -6.9      3.523      8.983
REMARK  Name = 
REMARK  8 active torsions:
REMARK  status: ('A' for Active; 'I' for Inactive)
REMARK    1  A    between atoms: C_1  and  C_2
REMARK    2  A    between atoms: C_1  and  C_23
REMARK    3  A    between atoms: C_2  and  N_3
REMARK    4  A    between atoms: C_6  and  O_9
REMARK    5  A    between atoms: O_9  and  C_10
REMARK    6  A    between atoms: C_10  and  C_11
REMARK    7  A    between atoms: C_10  and  C_17
REMARK    8  A    between atoms: C_23  and  C_24
REMARK                            x       y       z     vdW  Elec       q    Type
REMARK                         _______ _______ _______ _____ _____    ______ ____
ROOT
ATOM      1  N   UNL     1       8.751  -0.398  22.901  0.00  0.00    -0.302 NA
ATOM      2  C   UNL     1       7.789  -0.430  24.022  0.00  0.00    +0.087 C 
ATOM      3  C   UNL     1       8.419  -0.905  25.344  0.00  0.00    +0.047 C 
ATOM      4  C   UNL     1       8.904  -2.351  25.190  0.00  0.00    +0.122 C 
ATOM      5  C   UNL     1       9.897  -2.376  24.019  0.00  0.00    +0.047 C 
ATOM      6  C   UNL     1       9.379  -1.715  22.735  0.00  0.00    +0.087 C 
ENDROOT
BRANCH   1   7
ATOM      7  C   UNL     1       9.652   0.751  23.046  0.00  0.00    +0.085 C 
BRANCH   7   8
ATOM      8  C   UNL     1       9.088   2.118  22.650  0.00  0.00    +0.023 C 
BRANCH   8   9
ATOM      9  C   UNL     1       9.159   3.054  23.864  0.00  0.00    +0.079 C 
BRANCH   9  10
ATOM     10  C   UNL     1      10.211   4.081  23.708  0.00  0.00    +0.149 A 
ATOM     11  N   UNL     1      11.437   3.841  23.156  0.00  0.00    -0.243 N 
ATOM     12  H   UNL     1      11.832   2.988  22.784  0.00  0.00    +0.192 HD
ATOM     13  N   UNL     1      12.160   4.967  23.150  0.00  0.00    -0.047 NA
ATOM     14  N   UNL     1      11.374   5.886  23.696  0.00  0.00    -0.023 NA
ATOM     15  N   UNL     1      10.158   5.351  24.044  0.00  0.00    -0.114 NA
ENDBRANCH   9  10
ENDBRANCH   8   9
ENDBRANCH   7   8
ENDBRANCH   1   7
BRANCH   4  16
ATOM     16  O   UNL     1       7.698  -3.101  25.126  0.00  0.00    -0.364 OA
BRANCH  16  17
ATOM     17  C   UNL     1       7.666  -4.507  24.922  0.00  0.00    +0.179 C 
BRANCH  17  18
ATOM     18  C   UNL     1       7.191  -4.640  23.468  0.00  0.00    -0.014 A 
ATOM     19  C   UNL     1       7.509  -5.777  22.695  0.00  0.00    +0.006 A 
ATOM     20  C   UNL     1       6.974  -5.967  21.421  0.00  0.00    +0.000 A 
ATOM     21  C   UNL     1       6.090  -5.026  20.897  0.00  0.00    +0.000 A 
ATOM     22  C   UNL     1       5.776  -3.886  21.636  0.00  0.00    +0.000 A 
ATOM     23  C   UNL     1       6.326  -3.688  22.906  0.00  0.00    +0.006 A 
ENDBRANCH  17  18
BRANCH  17  24
ATOM     24  C   UNL     1       6.853  -5.262  25.974  0.00  0.00    -0.014 A 
ATOM     25  C   UNL     1       5.674  -5.923  25.575  0.00  0.00    +0.006 A 
ATOM     26  C   UNL     1       4.833  -6.545  26.504  0.00  0.00    +0.000 A 
ATOM     27  C   UNL     1       5.158  -6.532  27.856  0.00  0.00    +0.000 A 
ATOM     28  C   UNL     1       6.344  -5.935  28.269  0.00  0.00    +0.000 A 
ATOM     29  C   UNL     1       7.188  -5.316  27.339  0.00  0.00    +0.006 A 
ENDBRANCH  17  24
ENDBRANCH  16  17
ENDBRANCH   4  16
TORSDOF 8
ENDMDL
MODEL 7
REMARK VINA RESULT:      -6.8      1.161      3.813
REMARK  Name = 
REMARK  8 active torsions:
REMARK  status: ('A' for Active; 'I' for Inactive)
REMARK    1  A    between atoms: C_1  and  C_2
REMARK    2  A    between atoms: C_1  and  C_23
REMARK    3  A    between atoms: C_2  and  N_3
REMARK    4  A    between atoms: C_6  and  O_9
REMARK    5  A    between atoms: O_9  and  C_10
REMARK    6  A    between atoms: C_10  and  C_11
REMARK    7  A    between atoms: C_10  and  C_17
REMARK    8  A    between atoms: C_23  and  C_24
REMARK                            x       y       z     vdW  Elec       q    Type
REMARK                         _______ _______ _______ _____ _____    ______ ____
ROOT
ATOM      1  N   UNL     1       9.260  -2.248  24.155  0.00  0.00    -0.302 NA
ATOM      2  C   UNL     1       8.300  -1.252  24.676  0.00  0.00    +0.087 C 
ATOM      3  C   UNL     1       7.499  -0.547  23.566  0.00  0.00    +0.047 C 
ATOM      4  C   UNL     1       8.457   0.249  22.671  0.00  0.00    +0.122 C 
ATOM      5  C   UNL     1       9.491  -0.741  22.116  0.00  0.00    +0.047 C 
ATOM      6  C   UNL     1      10.162  -1.619  23.182  0.00  0.00    +0.087 C 
ENDROOT
BRANCH   1   7
ATOM      7  C   UNL     1       8.545  -3.450  23.714  0.00  0.00    +0.085 C 
BRANCH   7   8
ATOM      8  C   UNL     1       8.490  -4.616  24.704  0.00  0.00    +0.023 C 
BRANCH   8   9
ATOM      9  C   UNL     1       7.023  -4.996  24.942  0.00  0.00    +0.079 C 
BRANCH   9  10
ATOM     10  C   UNL     1       6.820  -5.603  26.275  0.00  0.00    +0.149 A 
ATOM     11  N   UNL     1       5.754  -6.390  26.602  0.00  0.00    -0.243 N 
ATOM     12  H   UNL     1       4.961  -6.684  26.046  0.00  0.00    +0.192 HD
ATOM     13  N   UNL     1       5.857  -6.790  27.875  0.00  0.00    -0.047 NA
ATOM     14  N   UNL     1       6.983  -6.246  28.318  0.00  0.00    -0.023 NA
ATOM     15  N   UNL     1       7.594  -5.508  27.334  0.00  0.00    -0.114 NA
ENDBRANCH   9  10
ENDBRANCH   8   9
ENDBRANCH   7   8
ENDBRANCH   1   7
BRANCH   4  16
ATOM     16  O   UNL     1       8.867   1.328  23.501  0.00  0.00    -0.364 OA
BRANCH  16  17
ATOM     17  C   UNL     1       8.199   2.583  23.531  0.00  0.00    +0.179 C 
BRANCH  17  18
ATOM     18  C   UNL     1       9.353   3.594  23.463  0.00  0.00    -0.014 A 
ATOM     19  C   UNL     1       9.136   4.969  23.699  0.00  0.00    +0.006 A 
ATOM     20  C   UNL     1      10.195   5.874  23.769  0.00  0.00    +0.000 A 
ATOM     21  C   UNL     1      11.503   5.417  23.621  0.00  0.00    +0.000 A 
ATOM     22  C   UNL     1      11.739   4.067  23.370  0.00  0.00    +0.000 A 
ATOM     23  C   UNL     1      10.676   3.163  23.283  0.00  0.00    +0.006 A 
ENDBRANCH  17  18
BRANCH  17  24
ATOM     24  C   UNL     1       7.231   2.735  24.704  0.00  0.00    -0.014 A 
ATOM     25  C   UNL     1       7.659   2.354  25.992  0.00  0.00    +0.006 A 
ATOM     26  C   UNL     1       6.791   2.374  27.088  0.00  0.00    +0.000 A 
ATOM     27  C   UNL     1       5.473   2.787  26.926  0.00  0.00    +0.000 A 
ATOM     28  C   UNL     1       5.041   3.221  25.677  0.00  0.00    +0.000 A 
ATOM     29  C   UNL     1       5.911   3.206  24.580  0.00  0.00    +0.006 A 
ENDBRANCH  17  24
ENDBRANCH  16  17
ENDBRANCH   4  16
TORSDOF 8
ENDMDL
MODEL 8
REMARK VINA RESULT:      -6.6      3.512      6.140
REMARK  Name = 
REMARK  8 active torsions:
REMARK  status: ('A' for Active; 'I' for Inactive)
REMARK    1  A    between atoms: C_1  and  C_2
REMARK    2  A    between atoms: C_1  and  C_23
REMARK    3  A    between atoms: C_2  and  N_3
REMARK    4  A    between atoms: C_6  and  O_9
REMARK    5  A    between atoms: O_9  and  C_10
REMARK    6  A    between atoms: C_10  and  C_11
REMARK    7  A    between atoms: C_10  and  C_17
REMARK    8  A    between atoms: C_23  and  C_24
REMARK                            x       y       z     vdW  Elec       q    Type
REMARK                         _______ _______ _______ _____ _____    ______ ____
ROOT
ATOM      1  N   UNL     1       4.792  -4.579  27.144  0.00  0.00    -0.302 NA
ATOM      2  C   UNL     1       5.429  -3.261  27.340  0.00  0.00    +0.087 C 
ATOM      3  C   UNL     1       4.766  -2.141  26.517  0.00  0.00    +0.047 C 
ATOM      4  C   UNL     1       4.922  -2.444  25.022  0.00  0.00    +0.122 C 
ATOM      5  C   UNL     1       4.289  -3.819  24.767  0.00  0.00    +0.047 C 
ATOM      6  C   UNL     1       4.772  -4.924  25.716  0.00  0.00    +0.087 C 
ENDROOT
BRANCH   1   7
ATOM      7  C   UNL     1       3.508  -4.627  27.853  0.00  0.00    +0.085 C 
BRANCH   7   8
ATOM      8  C   UNL     1       2.748  -5.954  27.804  0.00  0.00    +0.023 C 
BRANCH   8   9
ATOM      9  C   UNL     1       2.992  -6.715  29.114  0.00  0.00    +0.079 C 
BRANCH   9  10
ATOM     10  C   UNL     1       4.434  -6.862  29.405  0.00  0.00    +0.149 A 
ATOM     11  N   UNL     1       5.333  -7.428  28.548  0.00  0.00    -0.243 N 
ATOM     12  H   UNL     1       5.199  -7.828  27.628  0.00  0.00    +0.192 HD
ATOM     13  N   UNL     1       6.555  -7.410  29.093  0.00  0.00    -0.047 NA
ATOM     14  N   UNL     1       6.396  -6.834  30.278  0.00  0.00    -0.023 NA
ATOM     15  N   UNL     1       5.084  -6.485  30.484  0.00  0.00    -0.114 NA
ENDBRANCH   9  10
ENDBRANCH   8   9
ENDBRANCH   7   8
ENDBRANCH   1   7
BRANCH   4  16
ATOM     16  O   UNL     1       6.308  -2.234  24.784  0.00  0.00    -0.364 OA
BRANCH  16  17
ATOM     17  C   UNL     1       6.842  -1.945  23.499  0.00  0.00    +0.179 C 
BRANCH  17  18
ATOM     18  C   UNL     1       6.962  -3.331  22.849  0.00  0.00    -0.014 A 
ATOM     19  C   UNL     1       7.729  -4.355  23.447  0.00  0.00    +0.006 A 
ATOM     20  C   UNL     1       7.739  -5.653  22.936  0.00  0.00    +0.000 A 
ATOM     21  C   UNL     1       6.961  -5.961  21.821  0.00  0.00    +0.000 A 
ATOM     22  C   UNL     1       6.210  -4.961  21.205  0.00  0.00    +0.000 A 
ATOM     23  C   UNL     1       6.215  -3.657  21.707  0.00  0.00    +0.006 A 
ENDBRANCH  17  18
BRANCH  17  24
ATOM     24  C   UNL     1       8.115  -1.100  23.538  0.00  0.00    -0.014 A 
ATOM     25  C   UNL     1       8.569  -0.499  22.348  0.00  0.00    +0.006 A 
ATOM     26  C   UNL     1       9.779   0.201  22.295  0.00  0.00    +0.000 A 
ATOM     27  C   UNL     1      10.559   0.329  23.439  0.00  0.00    +0.000 A 
ATOM     28  C   UNL     1      10.107  -0.206  24.640  0.00  0.00    +0.000 A 
ATOM     29  C   UNL     1       8.894  -0.904  24.694  0.00  0.00    +0.006 A 
ENDBRANCH  17  24
ENDBRANCH  16  17
ENDBRANCH   4  16
TORSDOF 8
ENDMDL
MODEL 9
REMARK VINA RESULT:      -6.5      1.452      3.920
REMARK  Name = 
REMARK  8 active torsions:
REMARK  status: ('A' for Active; 'I' for Inactive)
REMARK    1  A    between atoms: C_1  and  C_2
REMARK    2  A    between atoms: C_1  and  C_23
REMARK    3  A    between atoms: C_2  and  N_3
REMARK    4  A    between atoms: C_6  and  O_9
REMARK    5  A    between atoms: O_9  and  C_10
REMARK    6  A    between atoms: C_10  and  C_11
REMARK    7  A    between atoms: C_10  and  C_17
REMARK    8  A    between atoms: C_23  and  C_24
REMARK                            x       y       z     vdW  Elec       q    Type
REMARK                         _______ _______ _______ _____ _____    ______ ____
ROOT
ATOM      1  N   UNL     1       7.562  -0.893  25.336  0.00  0.00    -0.302 NA
ATOM      2  C   UNL     1       7.275   0.124  24.303  0.00  0.00    +0.087 C 
ATOM      3  C   UNL     1       8.472   0.395  23.373  0.00  0.00    +0.047 C 
ATOM      4  C   UNL     1       9.634   0.970  24.190  0.00  0.00    +0.122 C 
ATOM      5  C   UNL     1       9.962  -0.045  25.295  0.00  0.00    +0.047 C 
ATOM      6  C   UNL     1       8.747  -0.504  26.112  0.00  0.00    +0.087 C 
ENDROOT
BRANCH   1   7
ATOM      7  C   UNL     1       7.576  -2.230  24.733  0.00  0.00    +0.085 C 
BRANCH   7   8
ATOM      8  C   UNL     1       7.915  -3.397  25.664  0.00  0.00    +0.023 C 
BRANCH   8   9
ATOM      9  C   UNL     1       6.959  -4.560  25.371  0.00  0.00    +0.079 C 
BRANCH   9  10
ATOM     10  C   UNL     1       6.755  -5.419  26.558  0.00  0.00    +0.149 A 
ATOM     11  N   UNL     1       5.729  -6.310  26.688  0.00  0.00    -0.243 N 
ATOM     12  H   UNL     1       4.972  -6.535  26.057  0.00  0.00    +0.192 HD
ATOM     13  N   UNL     1       5.820  -6.938  27.866  0.00  0.00    -0.047 NA
ATOM     14  N   UNL     1       6.898  -6.428  28.448  0.00  0.00    -0.023 NA
ATOM     15  N   UNL     1       7.492  -5.485  27.645  0.00  0.00    -0.114 NA
ENDBRANCH   9  10
ENDBRANCH   8   9
ENDBRANCH   7   8
ENDBRANCH   1   7
BRANCH   4  16
ATOM     16  O   UNL     1       9.190   2.279  24.524  0.00  0.00    -0.364 OA
BRANCH  16  17
ATOM     17  C   UNL     1       8.859   3.260  23.551  0.00  0.00    +0.179 C 
BRANCH  17  18
ATOM     18  C   UNL     1      10.025   4.255  23.646  0.00  0.00    -0.014 A 
ATOM     19  C   UNL     1       9.872   5.501  24.290  0.00  0.00    +0.006 A 
ATOM     20  C   UNL     1      10.957   6.354  24.497  0.00  0.00    +0.000 A 
ATOM     21  C   UNL     1      12.228   5.967  24.078  0.00  0.00    +0.000 A 
ATOM     22  C   UNL     1      12.399   4.748  23.425  0.00  0.00    +0.000 A 
ATOM     23  C   UNL     1      11.308   3.902  23.202  0.00  0.00    +0.006 A 
ENDBRANCH  17  18
BRANCH  17  24
ATOM     24  C   UNL     1       7.455   3.841  23.717  0.00  0.00    -0.014 A 
ATOM     25  C   UNL     1       6.813   3.718  24.966  0.00  0.00    +0.006 A 
ATOM     26  C   UNL     1       5.492   4.137  25.155  0.00  0.00    +0.000 A 
ATOM     27  C   UNL     1       4.783   4.703  24.101  0.00  0.00    +0.000 A 
ATOM     28  C   UNL     1       5.412   4.887  22.873  0.00  0.00    +0.000 A 
ATOM     29  C   UNL     1       6.736   4.471  22.685  0.00  0.00    +0.006 A 
ENDBRANCH  17  24
ENDBRANCH  16  17
ENDBRANCH   4  16
TORSDOF 8
ENDMDL
