MODEL 1
REMARK VINA RESULT:      -5.6      0.000      0.000
REMARK  Name = 
REMARK  4 active torsions:
REMARK  status: ('A' for Active; 'I' for Inactive)
REMARK    1  A    between atoms: O_1  and  C_2
REMARK    2  A    between atoms: C_2  and  C_4
REMARK    3  A    between atoms: C_5  and  C_6
REMARK    4  A    between atoms: C_9  and  O_10
REMARK                            x       y       z     vdW  Elec       q    Type
REMARK                         _______ _______ _______ _____ _____    ______ ____
ROOT
ATOM      1  C   UNL     1       9.891  -1.503  23.388  0.00  0.00    -0.025 A 
ATOM      2  C   UNL     1       9.502  -1.399  22.045  0.00  0.00    +0.011 A 
ATOM      3  C   UNL     1       9.486  -0.160  21.401  0.00  0.00    +0.046 A 
ATOM      4  C   UNL     1       9.876   0.979  22.091  0.00  0.00    +0.117 A 
ATOM      5  C   UNL     1      10.305   0.898  23.411  0.00  0.00    +0.046 A 
ATOM      6  C   UNL     1      10.317  -0.345  24.055  0.00  0.00    +0.011 A 
ENDROOT
BRANCH   1   8
ATOM      7  C   UNL     1       8.845  -3.616  24.160  0.00  0.00    +0.092 C 
ATOM      8  C   UNL     1       9.897  -2.784  24.111  0.00  0.00    +0.015 C 
BRANCH   7   9
ATOM      9  C   UNL     1       8.927  -4.864  24.942  0.00  0.00    +0.330 C 
ATOM     10  O   UNL     1       7.989  -5.387  25.516  0.00  0.00    -0.246 OA
BRANCH   9  11
ATOM     11  O   UNL     1      10.177  -5.371  24.951  0.00  0.00    -0.478 OA
ATOM     12  H   UNL     1      10.245  -6.324  25.141  0.00  0.00    +0.295 HD
ENDBRANCH   9  11
ENDBRANCH   7   9
ENDBRANCH   1   8
BRANCH   4  13
ATOM     13  O   UNL     1       9.822   2.169  21.429  0.00  0.00    -0.507 OA
ATOM     14  H   UNL     1      10.724   2.423  21.175  0.00  0.00    +0.292 HD
ENDBRANCH   4  13
TORSDOF 4
ENDMDL
MODEL 2
REMARK VINA RESULT:      -5.3      3.155      6.920
REMARK  Name = 
REMARK  4 active torsions:
REMARK  status: ('A' for Active; 'I' for Inactive)
REMARK    1  A    between atoms: O_1  and  C_2
REMARK    2  A    between atoms: C_2  and  C_4
REMARK    3  A    between atoms: C_5  and  C_6
REMARK    4  A    between atoms: C_9  and  O_10
REMARK                            x       y       z     vdW  Elec       q    Type
REMARK                         _______ _______ _______ _____ _____    ______ ____
ROOT
ATOM      1  C   UNL     1      10.354   2.044  23.158  0.00  0.00    -0.025 A 
ATOM      2  C   UNL     1      10.675   1.038  24.079  0.00  0.00    +0.011 A 
ATOM      3  C   UNL     1      10.424  -0.304  23.787  0.00  0.00    +0.046 A 
ATOM      4  C   UNL     1       9.867  -0.648  22.563  0.00  0.00    +0.117 A 
ATOM      5  C   UNL     1       9.577   0.327  21.616  0.00  0.00    +0.046 A 
ATOM      6  C   UNL     1       9.827   1.671  21.913  0.00  0.00    +0.011 A 
ENDROOT
BRANCH   1   8
ATOM      7  C   UNL     1      11.783   4.061  23.380  0.00  0.00    +0.092 C 
ATOM      8  C   UNL     1      10.578   3.471  23.438  0.00  0.00    +0.015 C 
BRANCH   7   9
ATOM      9  C   UNL     1      11.920   5.491  23.712  0.00  0.00    +0.330 C 
ATOM     10  O   UNL     1      10.989   6.264  23.850  0.00  0.00    -0.246 OA
BRANCH   9  11
ATOM     11  O   UNL     1      13.211   5.855  23.848  0.00  0.00    -0.478 OA
ATOM     12  H   UNL     1      13.627   5.630  24.699  0.00  0.00    +0.295 HD
ENDBRANCH   9  11
ENDBRANCH   7   9
ENDBRANCH   1   8
BRANCH   4  13
ATOM     13  O   UNL     1       9.618  -1.967  22.330  0.00  0.00    -0.507 OA
ATOM     14  H   UNL     1       9.052  -2.307  23.042  0.00  0.00    +0.292 HD
ENDBRANCH   4  13
TORSDOF 4
ENDMDL
MODEL 3
REMARK VINA RESULT:      -5.2      3.124      6.799
REMARK  Name = 
REMARK  4 active torsions:
REMARK  status: ('A' for Active; 'I' for Inactive)
REMARK    1  A    between atoms: O_1  and  C_2
REMARK    2  A    between atoms: C_2  and  C_4
REMARK    3  A    between atoms: C_5  and  C_6
REMARK    4  A    between atoms: C_9  and  O_10
REMARK                            x       y       z     vdW  Elec       q    Type
REMARK                         _______ _______ _______ _____ _____    ______ ____
ROOT
ATOM      1  C   UNL     1      10.259   2.003  23.078  0.00  0.00    -0.025 A 
ATOM      2  C   UNL     1       9.643   1.712  21.854  0.00  0.00    +0.011 A 
ATOM      3  C   UNL     1       9.485   0.390  21.432  0.00  0.00    +0.046 A 
ATOM      4  C   UNL     1       9.927  -0.648  22.240  0.00  0.00    +0.117 A 
ATOM      5  C   UNL     1      10.504  -0.387  23.477  0.00  0.00    +0.046 A 
ATOM      6  C   UNL     1      10.664   0.938  23.896  0.00  0.00    +0.011 A 
ENDROOT
BRANCH   1   8
ATOM      7  C   UNL     1      11.561   4.108  23.260  0.00  0.00    +0.092 C 
ATOM      8  C   UNL     1      10.469   3.382  23.548  0.00  0.00    +0.015 C 
BRANCH   7   9
ATOM      9  C   UNL     1      11.704   5.471  23.805  0.00  0.00    +0.330 C 
ATOM     10  O   UNL     1      12.711   5.902  24.338  0.00  0.00    -0.246 OA
BRANCH   9  11
ATOM     11  O   UNL     1      10.580   6.198  23.646  0.00  0.00    -0.478 OA
ATOM     12  H   UNL     1       9.785   5.697  23.390  0.00  0.00    +0.295 HD
ENDBRANCH   9  11
ENDBRANCH   7   9
ENDBRANCH   1   8
BRANCH   4  13
ATOM     13  O   UNL     1       9.772  -1.920  21.777  0.00  0.00    -0.507 OA
ATOM     14  H   UNL     1      10.390  -2.059  21.041  0.00  0.00    +0.292 HD
ENDBRANCH   4  13
TORSDOF 4
ENDMDL
MODEL 4
REMARK VINA RESULT:      -4.8      3.046      6.941
REMARK  Name = 
REMARK  4 active torsions:
REMARK  status: ('A' for Active; 'I' for Inactive)
REMARK    1  A    between atoms: O_1  and  C_2
REMARK    2  A    between atoms: C_2  and  C_4
REMARK    3  A    between atoms: C_5  and  C_6
REMARK    4  A    between atoms: C_9  and  O_10
REMARK                            x       y       z     vdW  Elec       q    Type
REMARK                         _______ _______ _______ _____ _____    ______ ____
ROOT
ATOM      1  C   UNL     1       9.936   2.006  23.251  0.00  0.00    -0.025 A 
ATOM      2  C   UNL     1      10.322   1.167  24.305  0.00  0.00    +0.011 A 
ATOM      3  C   UNL     1      10.464  -0.208  24.107  0.00  0.00    +0.046 A 
ATOM      4  C   UNL     1      10.237  -0.749  22.849  0.00  0.00    +0.117 A 
ATOM      5  C   UNL     1       9.892   0.066  21.777  0.00  0.00    +0.046 A 
ATOM      6  C   UNL     1       9.748   1.443  21.979  0.00  0.00    +0.011 A 
ENDROOT
BRANCH   1   8
ATOM      7  C   UNL     1      10.755   4.311  23.666  0.00  0.00    +0.092 C 
ATOM      8  C   UNL     1       9.749   3.455  23.423  0.00  0.00    +0.015 C 
BRANCH   7   9
ATOM      9  C   UNL     1      10.471   5.745  23.862  0.00  0.00    +0.330 C 
ATOM     10  O   UNL     1      10.957   6.435  24.740  0.00  0.00    -0.246 OA
BRANCH   9  11
ATOM     11  O   UNL     1       9.599   6.215  22.948  0.00  0.00    -0.478 OA
ATOM     12  H   UNL     1       9.746   5.919  22.032  0.00  0.00    +0.295 HD
ENDBRANCH   9  11
ENDBRANCH   7   9
ENDBRANCH   1   8
BRANCH   4  13
ATOM     13  O   UNL     1      10.365  -2.098  22.708  0.00  0.00    -0.507 OA
ATOM     14  H   UNL     1       9.806  -2.388  21.968  0.00  0.00    +0.292 HD
ENDBRANCH   4  13
TORSDOF 4
ENDMDL
MODEL 5
REMARK VINA RESULT:      -4.8      3.148      6.824
REMARK  Name = 
REMARK  4 active torsions:
REMARK  status: ('A' for Active; 'I' for Inactive)
REMARK    1  A    between atoms: O_1  and  C_2
REMARK    2  A    between atoms: C_2  and  C_4
REMARK    3  A    between atoms: C_5  and  C_6
REMARK    4  A    between atoms: C_9  and  O_10
REMARK                            x       y       z     vdW  Elec       q    Type
REMARK                         _______ _______ _______ _____ _____    ______ ____
ROOT
ATOM      1  C   UNL     1       9.152   2.037  22.812  0.00  0.00    -0.025 A 
ATOM      2  C   UNL     1       9.926   1.444  23.819  0.00  0.00    +0.011 A 
ATOM      3  C   UNL     1      10.419   0.146  23.668  0.00  0.00    +0.046 A 
ATOM      4  C   UNL     1      10.156  -0.558  22.502  0.00  0.00    +0.117 A 
ATOM      5  C   UNL     1       9.426   0.022  21.471  0.00  0.00    +0.046 A 
ATOM      6  C   UNL     1       8.930   1.321  21.626  0.00  0.00    +0.011 A 
ENDROOT
BRANCH   1   8
ATOM      7  C   UNL     1       7.547   3.836  22.224  0.00  0.00    +0.092 C 
ATOM      8  C   UNL     1       8.591   3.391  22.942  0.00  0.00    +0.015 C 
BRANCH   7   9
ATOM      9  C   UNL     1       7.074   5.223  22.393  0.00  0.00    +0.330 C 
ATOM     10  O   UNL     1       6.364   5.607  23.305  0.00  0.00    -0.246 OA
BRANCH   9  11
ATOM     11  O   UNL     1       7.521   6.031  21.411  0.00  0.00    -0.478 OA
ATOM     12  H   UNL     1       8.191   6.687  21.675  0.00  0.00    +0.295 HD
ENDBRANCH   9  11
ENDBRANCH   7   9
ENDBRANCH   1   8
BRANCH   4  13
ATOM     13  O   UNL     1      10.638  -1.829  22.409  0.00  0.00    -0.507 OA
ATOM     14  H   UNL     1      11.609  -1.796  22.435  0.00  0.00    +0.292 HD
ENDBRANCH   4  13
TORSDOF 4
ENDMDL
MODEL 6
REMARK VINA RESULT:      -4.7      3.109      6.253
REMARK  Name = 
REMARK  4 active torsions:
REMARK  status: ('A' for Active; 'I' for Inactive)
REMARK    1  A    between atoms: O_1  and  C_2
REMARK    2  A    between atoms: C_2  and  C_4
REMARK    3  A    between atoms: C_5  and  C_6
REMARK    4  A    between atoms: C_9  and  O_10
REMARK                            x       y       z     vdW  Elec       q    Type
REMARK                         _______ _______ _______ _____ _____    ______ ____
ROOT
ATOM      1  C   UNL     1       7.168  -4.132  23.010  0.00  0.00    -0.025 A 
ATOM      2  C   UNL     1       6.582  -4.315  24.269  0.00  0.00    +0.011 A 
ATOM      3  C   UNL     1       5.715  -5.384  24.504  0.00  0.00    +0.046 A 
ATOM      4  C   UNL     1       5.444  -6.287  23.485  0.00  0.00    +0.117 A 
ATOM      5  C   UNL     1       6.044  -6.151  22.239  0.00  0.00    +0.046 A 
ATOM      6  C   UNL     1       6.910  -5.077  22.006  0.00  0.00    +0.011 A 
ENDROOT
BRANCH   1   8
ATOM      7  C   UNL     1       9.168  -2.724  23.425  0.00  0.00    +0.092 C 
ATOM      8  C   UNL     1       8.066  -3.005  22.713  0.00  0.00    +0.015 C 
BRANCH   7   9
ATOM      9  C   UNL     1       9.991  -1.550  23.078  0.00  0.00    +0.330 C 
ATOM     10  O   UNL     1      10.291  -0.659  23.853  0.00  0.00    -0.246 OA
BRANCH   9  11
ATOM     11  O   UNL     1      10.380  -1.571  21.787  0.00  0.00    -0.478 OA
ATOM     12  H   UNL     1      10.706  -2.428  21.458  0.00  0.00    +0.295 HD
ENDBRANCH   9  11
ENDBRANCH   7   9
ENDBRANCH   1   8
BRANCH   4  13
ATOM     13  O   UNL     1       4.575  -7.301  23.754  0.00  0.00    -0.507 OA
ATOM     14  H   UNL     1       3.818  -7.229  23.149  0.00  0.00    +0.292 HD
ENDBRANCH   4  13
TORSDOF 4
ENDMDL
MODEL 7
REMARK VINA RESULT:      -4.7      1.293      5.746
REMARK  Name = 
REMARK  4 active torsions:
REMARK  status: ('A' for Active; 'I' for Inactive)
REMARK    1  A    between atoms: O_1  and  C_2
REMARK    2  A    between atoms: C_2  and  C_4
REMARK    3  A    between atoms: C_5  and  C_6
REMARK    4  A    between atoms: C_9  and  O_10
REMARK                            x       y       z     vdW  Elec       q    Type
REMARK                         _______ _______ _______ _____ _____    ______ ____
ROOT
ATOM      1  C   UNL     1       9.316  -1.584  22.962  0.00  0.00    -0.025 A 
ATOM      2  C   UNL     1       9.842  -2.351  24.011  0.00  0.00    +0.011 A 
ATOM      3  C   UNL     1       9.256  -3.566  24.368  0.00  0.00    +0.046 A 
ATOM      4  C   UNL     1       8.152  -4.031  23.666  0.00  0.00    +0.117 A 
ATOM      5  C   UNL     1       7.637  -3.309  22.596  0.00  0.00    +0.046 A 
ATOM      6  C   UNL     1       8.224  -2.090  22.242  0.00  0.00    +0.011 A 
ENDROOT
BRANCH   1   8
ATOM      7  C   UNL     1       9.734   0.841  23.286  0.00  0.00    +0.092 C 
ATOM      8  C   UNL     1       9.887  -0.285  22.571  0.00  0.00    +0.015 C 
BRANCH   7   9
ATOM      9  C   UNL     1      10.310   2.108  22.798  0.00  0.00    +0.330 C 
ATOM     10  O   UNL     1      10.910   2.909  23.491  0.00  0.00    -0.246 OA
BRANCH   9  11
ATOM     11  O   UNL     1      10.095   2.284  21.479  0.00  0.00    -0.478 OA
ATOM     12  H   UNL     1      10.279   3.177  21.136  0.00  0.00    +0.295 HD
ENDBRANCH   9  11
ENDBRANCH   7   9
ENDBRANCH   1   8
BRANCH   4  13
ATOM     13  O   UNL     1       7.600  -5.211  24.065  0.00  0.00    -0.507 OA
ATOM     14  H   UNL     1       8.217  -5.930  23.850  0.00  0.00    +0.292 HD
ENDBRANCH   4  13
TORSDOF 4
ENDMDL
MODEL 8
REMARK VINA RESULT:      -4.6      2.000      2.468
REMARK  Name = 
REMARK  4 active torsions:
REMARK  status: ('A' for Active; 'I' for Inactive)
REMARK    1  A    between atoms: O_1  and  C_2
REMARK    2  A    between atoms: C_2  and  C_4
REMARK    3  A    between atoms: C_5  and  C_6
REMARK    4  A    between atoms: C_9  and  O_10
REMARK                            x       y       z     vdW  Elec       q    Type
REMARK                         _______ _______ _______ _____ _____    ______ ____
ROOT
ATOM      1  C   UNL     1       8.196  -1.628  22.650  0.00  0.00    -0.025 A 
ATOM      2  C   UNL     1       7.355  -0.556  22.978  0.00  0.00    +0.011 A 
ATOM      3  C   UNL     1       7.671   0.745  22.582  0.00  0.00    +0.046 A 
ATOM      4  C   UNL     1       8.820   0.979  21.840  0.00  0.00    +0.117 A 
ATOM      5  C   UNL     1       9.650  -0.071  21.467  0.00  0.00    +0.046 A 
ATOM      6  C   UNL     1       9.333  -1.374  21.867  0.00  0.00    +0.011 A 
ENDROOT
BRANCH   1   8
ATOM      7  C   UNL     1       7.356  -3.931  22.269  0.00  0.00    +0.092 C 
ATOM      8  C   UNL     1       7.915  -3.009  23.069  0.00  0.00    +0.015 C 
BRANCH   7   9
ATOM      9  C   UNL     1       7.076  -5.284  22.785  0.00  0.00    +0.330 C 
ATOM     10  O   UNL     1       7.044  -6.294  22.105  0.00  0.00    -0.246 OA
BRANCH   9  11
ATOM     11  O   UNL     1       6.854  -5.279  24.115  0.00  0.00    -0.478 OA
ATOM     12  H   UNL     1       5.963  -5.002  24.394  0.00  0.00    +0.295 HD
ENDBRANCH   9  11
ENDBRANCH   7   9
ENDBRANCH   1   8
BRANCH   4  13
ATOM     13  O   UNL     1       9.100   2.268  21.496  0.00  0.00    -0.507 OA
ATOM     14  H   UNL     1       9.744   2.625  22.129  0.00  0.00    +0.292 HD
ENDBRANCH   4  13
TORSDOF 4
ENDMDL
MODEL 9
REMARK VINA RESULT:      -4.5      3.252      6.695
REMARK  Name = 
REMARK  4 active torsions:
REMARK  status: ('A' for Active; 'I' for Inactive)
REMARK    1  A    between atoms: O_1  and  C_2
REMARK    2  A    between atoms: C_2  and  C_4
REMARK    3  A    between atoms: C_5  and  C_6
REMARK    4  A    between atoms: C_9  and  O_10
REMARK                            x       y       z     vdW  Elec       q    Type
REMARK                         _______ _______ _______ _____ _____    ______ ____
ROOT
ATOM      1  C   UNL     1       9.396   2.073  23.197  0.00  0.00    -0.025 A 
ATOM      2  C   UNL     1       9.049   1.632  21.913  0.00  0.00    +0.011 A 
ATOM      3  C   UNL     1       9.414   0.358  21.473  0.00  0.00    +0.046 A 
ATOM      4  C   UNL     1      10.114  -0.488  22.322  0.00  0.00    +0.117 A 
ATOM      5  C   UNL     1      10.435  -0.091  23.614  0.00  0.00    +0.046 A 
ATOM      6  C   UNL     1      10.070   1.187  24.051  0.00  0.00    +0.011 A 
ENDROOT
BRANCH   1   8
ATOM      7  C   UNL     1       9.942   4.415  23.805  0.00  0.00    +0.092 C 
ATOM      8  C   UNL     1       9.053   3.416  23.690  0.00  0.00    +0.015 C 
BRANCH   7   9
ATOM      9  C   UNL     1       9.518   5.721  24.345  0.00  0.00    +0.330 C 
ATOM     10  O   UNL     1       9.535   6.767  23.722  0.00  0.00    -0.246 OA
BRANCH   9  11
ATOM     11  O   UNL     1       9.102   5.626  25.624  0.00  0.00    -0.478 OA
ATOM     12  H   UNL     1       9.474   4.885  26.135  0.00  0.00    +0.295 HD
ENDBRANCH   9  11
ENDBRANCH   7   9
ENDBRANCH   1   8
BRANCH   4  13
ATOM     13  O   UNL     1      10.469  -1.713  21.841  0.00  0.00    -0.507 OA
ATOM     14  H   UNL     1       9.744  -2.336  22.012  0.00  0.00    +0.292 HD
ENDBRANCH   4  13
TORSDOF 4
ENDMDL
