MODEL 1
REMARK VINA RESULT:      -4.9      0.000      0.000
REMARK  Name = 
REMARK  5 active torsions:
REMARK  status: ('A' for Active; 'I' for Inactive)
REMARK    1  A    between atoms: N_1  and  C_2
REMARK    2  A    between atoms: C_2  and  C_3
REMARK    3  A    between atoms: C_3  and  C_4
REMARK    4  A    between atoms: C_6  and  O_7
REMARK    5  A    between atoms: C_8  and  O_9
REMARK                            x       y       z     vdW  Elec       q    Type
REMARK                         _______ _______ _______ _____ _____    ______ ____
ROOT
ATOM      1  C   UNL     1       9.842  -1.498  23.380  0.00  0.00    -0.042 A 
ATOM      2  C   UNL     1       9.446  -1.383  22.037  0.00  0.00    +0.007 A 
ATOM      3  C   UNL     1       9.473  -0.145  21.390  0.00  0.00    +0.049 A 
ATOM      4  C   UNL     1       9.901   0.974  22.088  0.00  0.00    +0.158 A 
ATOM      5  C   UNL     1      10.317   0.870  23.412  0.00  0.00    +0.158 A 
ATOM      6  C   UNL     1      10.294  -0.358  24.065  0.00  0.00    +0.052 A 
ENDROOT
BRANCH   4   7
ATOM      7  O   UNL     1       9.906   2.188  21.463  0.00  0.00    -0.503 OA
ATOM      8  H   UNL     1      10.692   2.643  21.826  0.00  0.00    +0.292 HD
ENDBRANCH   4   7
BRANCH   5   9
ATOM      9  O   UNL     1      10.734   2.014  24.037  0.00  0.00    -0.503 OA
ATOM     10  H   UNL     1      10.938   2.674  23.351  0.00  0.00    +0.292 HD
ENDBRANCH   5   9
BRANCH   1  11
ATOM     11  C   UNL     1       9.776  -2.834  24.082  0.00  0.00    +0.050 C 
BRANCH  11  12
ATOM     12  C   UNL     1       8.471  -3.582  23.794  0.00  0.00    +0.082 C 
BRANCH  12  13
ATOM     13  N   UNL     1       8.618  -5.010  24.074  0.00  0.00    -0.330 NA
ATOM     14  H   UNL     1       8.131  -5.550  23.358  0.00  0.00    +0.118 HD
ATOM     15  H   UNL     1       9.602  -5.268  24.001  0.00  0.00    +0.118 HD
ENDBRANCH  12  13
ENDBRANCH  11  12
ENDBRANCH   1  11
TORSDOF 5
ENDMDL
MODEL 2
REMARK VINA RESULT:      -4.7      4.210      5.748
REMARK  Name = 
REMARK  5 active torsions:
REMARK  status: ('A' for Active; 'I' for Inactive)
REMARK    1  A    between atoms: N_1  and  C_2
REMARK    2  A    between atoms: C_2  and  C_3
REMARK    3  A    between atoms: C_3  and  C_4
REMARK    4  A    between atoms: C_6  and  O_7
REMARK    5  A    between atoms: C_8  and  O_9
REMARK                            x       y       z     vdW  Elec       q    Type
REMARK                         _______ _______ _______ _____ _____    ______ ____
ROOT
ATOM      1  C   UNL     1       8.794  -2.526  24.735  0.00  0.00    -0.042 A 
ATOM      2  C   UNL     1       7.862  -2.433  25.783  0.00  0.00    +0.007 A 
ATOM      3  C   UNL     1       7.645  -3.513  26.641  0.00  0.00    +0.049 A 
ATOM      4  C   UNL     1       8.365  -4.682  26.452  0.00  0.00    +0.158 A 
ATOM      5  C   UNL     1       9.307  -4.781  25.432  0.00  0.00    +0.158 A 
ATOM      6  C   UNL     1       9.531  -3.710  24.572  0.00  0.00    +0.052 A 
ENDROOT
BRANCH   4   7
ATOM      7  O   UNL     1       8.137  -5.747  27.276  0.00  0.00    -0.503 OA
ATOM      8  H   UNL     1       8.031  -5.348  28.162  0.00  0.00    +0.292 HD
ENDBRANCH   4   7
BRANCH   5   9
ATOM      9  O   UNL     1       9.987  -5.963  25.308  0.00  0.00    -0.503 OA
ATOM     10  H   UNL     1       9.842  -6.299  24.406  0.00  0.00    +0.292 HD
ENDBRANCH   5   9
BRANCH   1  11
ATOM     11  C   UNL     1       8.997  -1.364  23.790  0.00  0.00    +0.050 C 
BRANCH  11  12
ATOM     12  C   UNL     1      10.260  -1.519  22.937  0.00  0.00    +0.082 C 
BRANCH  12  13
ATOM     13  N   UNL     1       9.925  -1.538  21.514  0.00  0.00    -0.330 NA
ATOM     14  H   UNL     1      10.247  -0.674  21.076  0.00  0.00    +0.118 HD
ATOM     15  H   UNL     1      10.437  -2.292  21.057  0.00  0.00    +0.118 HD
ENDBRANCH  12  13
ENDBRANCH  11  12
ENDBRANCH   1  11
TORSDOF 5
ENDMDL
MODEL 3
REMARK VINA RESULT:      -4.7      3.935      5.391
REMARK  Name = 
REMARK  5 active torsions:
REMARK  status: ('A' for Active; 'I' for Inactive)
REMARK    1  A    between atoms: N_1  and  C_2
REMARK    2  A    between atoms: C_2  and  C_3
REMARK    3  A    between atoms: C_3  and  C_4
REMARK    4  A    between atoms: C_6  and  O_7
REMARK    5  A    between atoms: C_8  and  O_9
REMARK                            x       y       z     vdW  Elec       q    Type
REMARK                         _______ _______ _______ _____ _____    ______ ____
ROOT
ATOM      1  C   UNL     1      10.215   1.978  23.378  0.00  0.00    -0.042 A 
ATOM      2  C   UNL     1      10.464   1.196  24.519  0.00  0.00    +0.007 A 
ATOM      3  C   UNL     1      10.408  -0.198  24.453  0.00  0.00    +0.049 A 
ATOM      4  C   UNL     1      10.108  -0.807  23.244  0.00  0.00    +0.158 A 
ATOM      5  C   UNL     1       9.881  -0.046  22.101  0.00  0.00    +0.158 A 
ATOM      6  C   UNL     1       9.935   1.343  22.156  0.00  0.00    +0.052 A 
ENDROOT
BRANCH   4   7
ATOM      7  O   UNL     1      10.030  -2.169  23.185  0.00  0.00    -0.503 OA
ATOM      8  H   UNL     1       9.803  -2.438  24.097  0.00  0.00    +0.292 HD
ENDBRANCH   4   7
BRANCH   5   9
ATOM      9  O   UNL     1       9.598  -0.713  20.940  0.00  0.00    -0.503 OA
ATOM     10  H   UNL     1      10.253  -0.446  20.273  0.00  0.00    +0.292 HD
ENDBRANCH   5   9
BRANCH   1  11
ATOM     11  C   UNL     1      10.244   3.486  23.466  0.00  0.00    +0.050 C 
BRANCH  11  12
ATOM     12  C   UNL     1      11.659   4.053  23.318  0.00  0.00    +0.082 C 
BRANCH  12  13
ATOM     13  N   UNL     1      11.616   5.456  22.910  0.00  0.00    -0.330 NA
ATOM     14  H   UNL     1      11.551   6.051  23.737  0.00  0.00    +0.118 HD
ATOM     15  H   UNL     1      12.495   5.702  22.455  0.00  0.00    +0.118 HD
ENDBRANCH  12  13
ENDBRANCH  11  12
ENDBRANCH   1  11
TORSDOF 5
ENDMDL
MODEL 4
REMARK VINA RESULT:      -4.7      5.364      6.463
REMARK  Name = 
REMARK  5 active torsions:
REMARK  status: ('A' for Active; 'I' for Inactive)
REMARK    1  A    between atoms: N_1  and  C_2
REMARK    2  A    between atoms: C_2  and  C_3
REMARK    3  A    between atoms: C_3  and  C_4
REMARK    4  A    between atoms: C_6  and  O_7
REMARK    5  A    between atoms: C_8  and  O_9
REMARK                            x       y       z     vdW  Elec       q    Type
REMARK                         _______ _______ _______ _____ _____    ______ ____
ROOT
ATOM      1  C   UNL     1       7.299  -4.858  23.813  0.00  0.00    -0.042 A 
ATOM      2  C   UNL     1       6.161  -5.213  24.558  0.00  0.00    +0.007 A 
ATOM      3  C   UNL     1       6.272  -5.556  25.908  0.00  0.00    +0.049 A 
ATOM      4  C   UNL     1       7.521  -5.538  26.510  0.00  0.00    +0.158 A 
ATOM      5  C   UNL     1       8.653  -5.168  25.790  0.00  0.00    +0.158 A 
ATOM      6  C   UNL     1       8.553  -4.824  24.446  0.00  0.00    +0.052 A 
ENDROOT
BRANCH   4   7
ATOM      7  O   UNL     1       7.633  -5.896  27.823  0.00  0.00    -0.503 OA
ATOM      8  H   UNL     1       7.666  -5.045  28.303  0.00  0.00    +0.292 HD
ENDBRANCH   4   7
BRANCH   5   9
ATOM      9  O   UNL     1       9.852  -5.165  26.450  0.00  0.00    -0.503 OA
ATOM     10  H   UNL     1      10.341  -4.369  26.181  0.00  0.00    +0.292 HD
ENDBRANCH   5   9
BRANCH   1  11
ATOM     11  C   UNL     1       7.175  -4.522  22.345  0.00  0.00    +0.050 C 
BRANCH  11  12
ATOM     12  C   UNL     1       7.046  -5.771  21.469  0.00  0.00    +0.082 C 
BRANCH  12  13
ATOM     13  N   UNL     1       5.944  -5.627  20.519  0.00  0.00    -0.330 NA
ATOM     14  H   UNL     1       6.271  -5.853  19.579  0.00  0.00    +0.118 HD
ATOM     15  H   UNL     1       5.219  -6.310  20.737  0.00  0.00    +0.118 HD
ENDBRANCH  12  13
ENDBRANCH  11  12
ENDBRANCH   1  11
TORSDOF 5
ENDMDL
MODEL 5
REMARK VINA RESULT:      -4.6      0.941      2.111
REMARK  Name = 
REMARK  5 active torsions:
REMARK  status: ('A' for Active; 'I' for Inactive)
REMARK    1  A    between atoms: N_1  and  C_2
REMARK    2  A    between atoms: C_2  and  C_3
REMARK    3  A    between atoms: C_3  and  C_4
REMARK    4  A    between atoms: C_6  and  O_7
REMARK    5  A    between atoms: C_8  and  O_9
REMARK                            x       y       z     vdW  Elec       q    Type
REMARK                         _______ _______ _______ _____ _____    ______ ____
ROOT
ATOM      1  C   UNL     1       9.566  -0.954  23.372  0.00  0.00    -0.042 A 
ATOM      2  C   UNL     1      10.115  -0.487  24.579  0.00  0.00    +0.007 A 
ATOM      3  C   UNL     1      10.585   0.823  24.687  0.00  0.00    +0.049 A 
ATOM      4  C   UNL     1      10.501   1.666  23.590  0.00  0.00    +0.158 A 
ATOM      5  C   UNL     1       9.941   1.224  22.395  0.00  0.00    +0.158 A 
ATOM      6  C   UNL     1       9.469  -0.079  22.277  0.00  0.00    +0.052 A 
ENDROOT
BRANCH   4   7
ATOM      7  O   UNL     1      10.982   2.940  23.689  0.00  0.00    -0.503 OA
ATOM      8  H   UNL     1      11.613   2.903  24.435  0.00  0.00    +0.292 HD
ENDBRANCH   4   7
BRANCH   5   9
ATOM      9  O   UNL     1       9.883   2.112  21.355  0.00  0.00    -0.503 OA
ATOM     10  H   UNL     1       9.947   3.010  21.723  0.00  0.00    +0.292 HD
ENDBRANCH   5   9
BRANCH   1  11
ATOM     11  C   UNL     1       9.092  -2.383  23.252  0.00  0.00    +0.050 C 
BRANCH  11  12
ATOM     12  C   UNL     1       9.027  -3.092  24.608  0.00  0.00    +0.082 C 
BRANCH  12  13
ATOM     13  N   UNL     1       9.870  -4.287  24.610  0.00  0.00    -0.330 NA
ATOM     14  H   UNL     1      10.028  -4.593  25.571  0.00  0.00    +0.118 HD
ATOM     15  H   UNL     1       9.375  -5.050  24.149  0.00  0.00    +0.118 HD
ENDBRANCH  12  13
ENDBRANCH  11  12
ENDBRANCH   1  11
TORSDOF 5
ENDMDL
MODEL 6
REMARK VINA RESULT:      -4.5      1.824      2.610
REMARK  Name = 
REMARK  5 active torsions:
REMARK  status: ('A' for Active; 'I' for Inactive)
REMARK    1  A    between atoms: N_1  and  C_2
REMARK    2  A    between atoms: C_2  and  C_3
REMARK    3  A    between atoms: C_3  and  C_4
REMARK    4  A    between atoms: C_6  and  O_7
REMARK    5  A    between atoms: C_8  and  O_9
REMARK                            x       y       z     vdW  Elec       q    Type
REMARK                         _______ _______ _______ _____ _____    ______ ____
ROOT
ATOM      1  C   UNL     1       9.136  -2.383  24.865  0.00  0.00    -0.042 A 
ATOM      2  C   UNL     1       9.098  -1.093  25.422  0.00  0.00    +0.007 A 
ATOM      3  C   UNL     1       9.476   0.020  24.667  0.00  0.00    +0.049 A 
ATOM      4  C   UNL     1       9.886  -0.160  23.356  0.00  0.00    +0.158 A 
ATOM      5  C   UNL     1       9.907  -1.428  22.784  0.00  0.00    +0.158 A 
ATOM      6  C   UNL     1       9.532  -2.543  23.527  0.00  0.00    +0.052 A 
ENDROOT
BRANCH   4   7
ATOM      7  O   UNL     1      10.278   0.925  22.625  0.00  0.00    -0.503 OA
ATOM      8  H   UNL     1      11.125   1.197  23.031  0.00  0.00    +0.292 HD
ENDBRANCH   4   7
BRANCH   5   9
ATOM      9  O   UNL     1      10.316  -1.531  21.482  0.00  0.00    -0.503 OA
ATOM     10  H   UNL     1       9.981  -0.756  21.000  0.00  0.00    +0.292 HD
ENDBRANCH   5   9
BRANCH   1  11
ATOM     11  C   UNL     1       8.758  -3.585  25.699  0.00  0.00    +0.050 C 
BRANCH  11  12
ATOM     12  C   UNL     1       8.998  -4.906  24.962  0.00  0.00    +0.082 C 
BRANCH  12  13
ATOM     13  N   UNL     1      10.244  -5.528  25.406  0.00  0.00    -0.330 NA
ATOM     14  H   UNL     1      10.278  -5.536  26.426  0.00  0.00    +0.118 HD
ATOM     15  H   UNL     1      10.254  -6.506  25.117  0.00  0.00    +0.118 HD
ENDBRANCH  12  13
ENDBRANCH  11  12
ENDBRANCH   1  11
TORSDOF 5
ENDMDL
MODEL 7
REMARK VINA RESULT:      -4.5      5.853      7.432
REMARK  Name = 
REMARK  5 active torsions:
REMARK  status: ('A' for Active; 'I' for Inactive)
REMARK    1  A    between atoms: N_1  and  C_2
REMARK    2  A    between atoms: C_2  and  C_3
REMARK    3  A    between atoms: C_3  and  C_4
REMARK    4  A    between atoms: C_6  and  O_7
REMARK    5  A    between atoms: C_8  and  O_9
REMARK                            x       y       z     vdW  Elec       q    Type
REMARK                         _______ _______ _______ _____ _____    ______ ____
ROOT
ATOM      1  C   UNL     1       6.877  -5.037  24.994  0.00  0.00    -0.042 A 
ATOM      2  C   UNL     1       6.116  -5.698  25.974  0.00  0.00    +0.007 A 
ATOM      3  C   UNL     1       5.067  -6.544  25.609  0.00  0.00    +0.049 A 
ATOM      4  C   UNL     1       4.783  -6.731  24.265  0.00  0.00    +0.158 A 
ATOM      5  C   UNL     1       5.542  -6.100  23.284  0.00  0.00    +0.158 A 
ATOM      6  C   UNL     1       6.590  -5.256  23.636  0.00  0.00    +0.052 A 
ENDROOT
BRANCH   4   7
ATOM      7  O   UNL     1       3.742  -7.539  23.909  0.00  0.00    -0.503 OA
ATOM      8  H   UNL     1       3.531  -7.272  22.993  0.00  0.00    +0.292 HD
ENDBRANCH   4   7
BRANCH   5   9
ATOM      9  O   UNL     1       5.211  -6.335  21.977  0.00  0.00    -0.503 OA
ATOM     10  H   UNL     1       6.017  -6.235  21.441  0.00  0.00    +0.292 HD
ENDBRANCH   5   9
BRANCH   1  11
ATOM     11  C   UNL     1       7.988  -4.096  25.398  0.00  0.00    +0.050 C 
BRANCH  11  12
ATOM     12  C   UNL     1       9.103  -4.807  26.171  0.00  0.00    +0.082 C 
BRANCH  12  13
ATOM     13  N   UNL     1       9.886  -5.664  25.283  0.00  0.00    -0.330 NA
ATOM     14  H   UNL     1       9.374  -5.815  24.413  0.00  0.00    +0.118 HD
ATOM     15  H   UNL     1      10.746  -5.182  25.022  0.00  0.00    +0.118 HD
ENDBRANCH  12  13
ENDBRANCH  11  12
ENDBRANCH   1  11
TORSDOF 5
ENDMDL
MODEL 8
REMARK VINA RESULT:      -4.5      2.023      2.877
REMARK  Name = 
REMARK  5 active torsions:
REMARK  status: ('A' for Active; 'I' for Inactive)
REMARK    1  A    between atoms: N_1  and  C_2
REMARK    2  A    between atoms: C_2  and  C_3
REMARK    3  A    between atoms: C_3  and  C_4
REMARK    4  A    between atoms: C_6  and  O_7
REMARK    5  A    between atoms: C_8  and  O_9
REMARK                            x       y       z     vdW  Elec       q    Type
REMARK                         _______ _______ _______ _____ _____    ______ ____
ROOT
ATOM      1  C   UNL     1       9.008  -2.844  24.526  0.00  0.00    -0.042 A 
ATOM      2  C   UNL     1       9.768  -2.139  23.577  0.00  0.00    +0.007 A 
ATOM      3  C   UNL     1      10.129  -0.808  23.802  0.00  0.00    +0.049 A 
ATOM      4  C   UNL     1       9.734  -0.188  24.976  0.00  0.00    +0.158 A 
ATOM      5  C   UNL     1       9.000  -0.881  25.934  0.00  0.00    +0.158 A 
ATOM      6  C   UNL     1       8.635  -2.207  25.721  0.00  0.00    +0.052 A 
ENDROOT
BRANCH   4   7
ATOM      7  O   UNL     1      10.067   1.120  25.185  0.00  0.00    -0.503 OA
ATOM      8  H   UNL     1       9.629   1.600  24.455  0.00  0.00    +0.292 HD
ENDBRANCH   4   7
BRANCH   5   9
ATOM      9  O   UNL     1       8.649  -0.209  27.074  0.00  0.00    -0.503 OA
ATOM     10  H   UNL     1       9.334   0.459  27.251  0.00  0.00    +0.292 HD
ENDBRANCH   5   9
BRANCH   1  11
ATOM     11  C   UNL     1       8.592  -4.272  24.260  0.00  0.00    +0.050 C 
BRANCH  11  12
ATOM     12  C   UNL     1       8.933  -5.206  25.425  0.00  0.00    +0.082 C 
BRANCH  12  13
ATOM     13  N   UNL     1      10.362  -5.517  25.440  0.00  0.00    -0.330 NA
ATOM     14  H   UNL     1      10.778  -5.256  24.545  0.00  0.00    +0.118 HD
ATOM     15  H   UNL     1      10.825  -4.941  26.144  0.00  0.00    +0.118 HD
ENDBRANCH  12  13
ENDBRANCH  11  12
ENDBRANCH   1  11
TORSDOF 5
ENDMDL
MODEL 9
REMARK VINA RESULT:      -4.4      3.903      5.023
REMARK  Name = 
REMARK  5 active torsions:
REMARK  status: ('A' for Active; 'I' for Inactive)
REMARK    1  A    between atoms: N_1  and  C_2
REMARK    2  A    between atoms: C_2  and  C_3
REMARK    3  A    between atoms: C_3  and  C_4
REMARK    4  A    between atoms: C_6  and  O_7
REMARK    5  A    between atoms: C_8  and  O_9
REMARK                            x       y       z     vdW  Elec       q    Type
REMARK                         _______ _______ _______ _____ _____    ______ ____
ROOT
ATOM      1  C   UNL     1       9.962   1.895  23.264  0.00  0.00    -0.042 A 
ATOM      2  C   UNL     1       9.676   1.705  21.901  0.00  0.00    +0.007 A 
ATOM      3  C   UNL     1       9.549   0.419  21.372  0.00  0.00    +0.049 A 
ATOM      4  C   UNL     1       9.704  -0.675  22.209  0.00  0.00    +0.158 A 
ATOM      5  C   UNL     1       9.966  -0.503  23.565  0.00  0.00    +0.158 A 
ATOM      6  C   UNL     1      10.093   0.775  24.102  0.00  0.00    +0.052 A 
ENDROOT
BRANCH   4   7
ATOM      7  O   UNL     1       9.604  -1.933  21.688  0.00  0.00    -0.503 OA
ATOM      8  H   UNL     1       9.678  -1.801  20.722  0.00  0.00    +0.292 HD
ENDBRANCH   4   7
BRANCH   5   9
ATOM      9  O   UNL     1      10.100  -1.627  24.334  0.00  0.00    -0.503 OA
ATOM     10  H   UNL     1      10.154  -2.394  23.737  0.00  0.00    +0.292 HD
ENDBRANCH   5   9
BRANCH   1  11
ATOM     11  C   UNL     1      10.131   3.289  23.821  0.00  0.00    +0.050 C 
BRANCH  11  12
ATOM     12  C   UNL     1      11.425   3.955  23.344  0.00  0.00    +0.082 C 
BRANCH  12  13
ATOM     13  N   UNL     1      11.216   5.383  23.106  0.00  0.00    -0.330 NA
ATOM     14  H   UNL     1      10.243   5.547  22.844  0.00  0.00    +0.118 HD
ATOM     15  H   UNL     1      11.364   5.895  23.975  0.00  0.00    +0.118 HD
ENDBRANCH  12  13
ENDBRANCH  11  12
ENDBRANCH   1  11
TORSDOF 5
ENDMDL
