MODEL 1
REMARK VINA RESULT:      -6.8      0.000      0.000
REMARK  Name = 
REMARK  11 active torsions:
REMARK  status: ('A' for Active; 'I' for Inactive)
REMARK    1  A    between atoms: C_2  and  C_3
REMARK    2  A    between atoms: C_3  and  C_4
REMARK    3  A    between atoms: C_5  and  C_6
REMARK    4  A    between atoms: C_5  and  C_7
REMARK    5  A    between atoms: C_9  and  C_10
REMARK    6  A    between atoms: C_9  and  C_11
REMARK    7  A    between atoms: C_13  and  O_15
REMARK    8  A    between atoms: O_15  and  C_16
REMARK    9  A    between atoms: C_17  and  O_24
REMARK   10  A    between atoms: O_24  and  C_25
REMARK   11  A    between atoms: C_28  and  C_30
REMARK                            x       y       z     vdW  Elec       q    Type
REMARK                         _______ _______ _______ _____ _____    ______ ____
ROOT
ATOM      1  C   UNL     1       7.842  -2.377  24.121  0.00  0.00    +0.090 C 
ATOM      2  C   UNL     1       8.358  -2.649  25.531  0.00  0.00    +0.101 C 
ATOM      3  O   UNL     1       8.930  -1.539  26.235  0.00  0.00    -0.368 OA
ATOM      4  C   UNL     1       7.644  -1.967  26.689  0.00  0.00    +0.196 C 
ATOM      5  C   UNL     1       9.017  -3.970  25.795  0.00  0.00    +0.041 C 
ATOM      6  C   UNL     1       8.110  -5.108  25.347  0.00  0.00    +0.050 C 
ATOM      7  C   UNL     1       7.677  -4.921  23.888  0.00  0.00    +0.207 C 
ATOM      8  C   UNL     1       6.940  -3.567  23.691  0.00  0.00    +0.167 C 
ENDROOT
BRANCH   1  10
ATOM      9  C   UNL     1       8.568  -0.642  22.226  0.00  0.00    +0.155 C 
ATOM     10  C   UNL     1       8.867  -1.883  23.098  0.00  0.00    +0.101 C 
ATOM     11  C   UNL     1      10.292  -2.279  23.398  0.00  0.00    +0.045 C 
ATOM     12  O   UNL     1       8.528  -1.992  21.716  0.00  0.00    -0.364 OA
BRANCH   9  13
ATOM     13  C   UNL     1       9.609   0.243  21.607  0.00  0.00    +0.061 C 
BRANCH  13  14
ATOM     14  C   UNL     1       9.675   1.655  22.144  0.00  0.00    -0.026 C 
ATOM     15  C   UNL     1      10.257   2.084  23.282  0.00  0.00    -0.080 C 
ATOM     16  C   UNL     1      10.403   3.555  23.578  0.00  0.00    +0.038 C 
ATOM     17  C   UNL     1      10.840   1.190  24.338  0.00  0.00    +0.038 C 
ENDBRANCH  13  14
ENDBRANCH   9  13
ENDBRANCH   1  10
BRANCH   8  18
ATOM     18  O   UNL     1       5.734  -3.575  24.497  0.00  0.00    -0.376 OA
ATOM     19  C   UNL     1       4.918  -2.423  24.323  0.00  0.00    +0.194 C 
ENDBRANCH   8  18
BRANCH   7  20
ATOM     20  O   UNL     1       6.831  -6.050  23.580  0.00  0.00    -0.444 OA
BRANCH  20  21
ATOM     21  C   UNL     1       6.182  -6.039  22.396  0.00  0.00    +0.407 C 
ATOM     22  N   UNL     1       4.819  -6.056  22.534  0.00  0.00    -0.221 N 
ATOM     23  H   UNL     1       4.333  -5.959  21.647  0.00  0.00    +0.161 HD
ATOM     24  C   UNL     1       4.115  -6.687  23.539  0.00  0.00    +0.236 C 
ATOM     25  O   UNL     1       4.619  -7.227  24.524  0.00  0.00    -0.274 OA
ATOM     26  O   UNL     1       6.715  -6.018  21.295  0.00  0.00    -0.226 OA
BRANCH  24  27
ATOM     27  C   UNL     1       2.606  -6.580  23.429  0.00  0.00    +0.204 C 
ATOM     28 CL   UNL     1       1.820  -8.165  23.585  0.00  0.00    -0.116 Cl
ENDBRANCH  24  27
ENDBRANCH  20  21
ENDBRANCH   7  20
TORSDOF 7
ENDMDL
MODEL 2
REMARK VINA RESULT:      -6.7      2.977      4.424
REMARK  Name = 
REMARK  11 active torsions:
REMARK  status: ('A' for Active; 'I' for Inactive)
REMARK    1  A    between atoms: C_2  and  C_3
REMARK    2  A    between atoms: C_3  and  C_4
REMARK    3  A    between atoms: C_5  and  C_6
REMARK    4  A    between atoms: C_5  and  C_7
REMARK    5  A    between atoms: C_9  and  C_10
REMARK    6  A    between atoms: C_9  and  C_11
REMARK    7  A    between atoms: C_13  and  O_15
REMARK    8  A    between atoms: O_15  and  C_16
REMARK    9  A    between atoms: C_17  and  O_24
REMARK   10  A    between atoms: O_24  and  C_25
REMARK   11  A    between atoms: C_28  and  C_30
REMARK                            x       y       z     vdW  Elec       q    Type
REMARK                         _______ _______ _______ _____ _____    ______ ____
ROOT
ATOM      1  C   UNL     1       8.402   0.427  23.955  0.00  0.00    +0.090 C 
ATOM      2  C   UNL     1       9.844   0.523  23.463  0.00  0.00    +0.101 C 
ATOM      3  O   UNL     1      10.565   1.713  23.806  0.00  0.00    -0.368 OA
ATOM      4  C   UNL     1      10.949   0.529  24.510  0.00  0.00    +0.196 C 
ATOM      5  C   UNL     1      10.162  -0.041  22.111  0.00  0.00    +0.041 C 
ATOM      6  C   UNL     1       9.677  -1.480  22.014  0.00  0.00    +0.050 C 
ATOM      7  C   UNL     1       8.192  -1.583  22.385  0.00  0.00    +0.207 C 
ATOM      8  C   UNL     1       7.934  -1.048  23.822  0.00  0.00    +0.167 C 
ENDROOT
BRANCH   1  10
ATOM      9  C   UNL     1       6.791   2.497  24.457  0.00  0.00    +0.155 C 
ATOM     10  C   UNL     1       7.436   1.506  23.461  0.00  0.00    +0.101 C 
ATOM     11  C   UNL     1       7.611   1.886  22.012  0.00  0.00    +0.045 C 
ATOM     12  O   UNL     1       6.068   1.401  23.858  0.00  0.00    -0.364 OA
BRANCH   9  13
ATOM     13  C   UNL     1       6.287   3.864  24.102  0.00  0.00    +0.061 C 
BRANCH  13  14
ATOM     14  C   UNL     1       7.264   5.000  24.309  0.00  0.00    -0.026 C 
ATOM     15  C   UNL     1       7.666   5.922  23.411  0.00  0.00    -0.080 C 
ATOM     16  C   UNL     1       8.499   7.108  23.829  0.00  0.00    +0.038 C 
ATOM     17  C   UNL     1       7.323   5.905  21.949  0.00  0.00    +0.038 C 
ENDBRANCH  13  14
ENDBRANCH   9  13
ENDBRANCH   1  10
BRANCH   8  18
ATOM     18  O   UNL     1       8.668  -1.875  24.762  0.00  0.00    -0.376 OA
ATOM     19  C   UNL     1       8.290  -1.678  26.118  0.00  0.00    +0.194 C 
ENDBRANCH   8  18
BRANCH   7  20
ATOM     20  O   UNL     1       7.849  -2.980  22.256  0.00  0.00    -0.444 OA
BRANCH  20  21
ATOM     21  C   UNL     1       6.555  -3.323  22.429  0.00  0.00    +0.407 C 
ATOM     22  N   UNL     1       6.331  -3.989  23.606  0.00  0.00    -0.221 N 
ATOM     23  H   UNL     1       5.346  -4.169  23.775  0.00  0.00    +0.161 HD
ATOM     24  C   UNL     1       7.215  -4.847  24.231  0.00  0.00    +0.236 C 
ATOM     25  O   UNL     1       8.378  -5.042  23.880  0.00  0.00    -0.274 OA
ATOM     26  O   UNL     1       5.647  -3.086  21.645  0.00  0.00    -0.226 OA
BRANCH  24  27
ATOM     27  C   UNL     1       6.695  -5.482  25.506  0.00  0.00    +0.204 C 
ATOM     28 CL   UNL     1       7.806  -5.227  26.869  0.00  0.00    -0.116 Cl
ENDBRANCH  24  27
ENDBRANCH  20  21
ENDBRANCH   7  20
TORSDOF 7
ENDMDL
MODEL 3
REMARK VINA RESULT:      -6.6      2.430      3.434
REMARK  Name = 
REMARK  11 active torsions:
REMARK  status: ('A' for Active; 'I' for Inactive)
REMARK    1  A    between atoms: C_2  and  C_3
REMARK    2  A    between atoms: C_3  and  C_4
REMARK    3  A    between atoms: C_5  and  C_6
REMARK    4  A    between atoms: C_5  and  C_7
REMARK    5  A    between atoms: C_9  and  C_10
REMARK    6  A    between atoms: C_9  and  C_11
REMARK    7  A    between atoms: C_13  and  O_15
REMARK    8  A    between atoms: O_15  and  C_16
REMARK    9  A    between atoms: C_17  and  O_24
REMARK   10  A    between atoms: O_24  and  C_25
REMARK   11  A    between atoms: C_28  and  C_30
REMARK                            x       y       z     vdW  Elec       q    Type
REMARK                         _______ _______ _______ _____ _____    ______ ____
ROOT
ATOM      1  C   UNL     1       8.046  -0.114  24.140  0.00  0.00    +0.090 C 
ATOM      2  C   UNL     1       7.278   0.435  25.339  0.00  0.00    +0.101 C 
ATOM      3  O   UNL     1       6.961   1.833  25.316  0.00  0.00    -0.368 OA
ATOM      4  C   UNL     1       5.863   0.943  25.099  0.00  0.00    +0.196 C 
ATOM      5  C   UNL     1       7.604  -0.116  26.694  0.00  0.00    +0.041 C 
ATOM      6  C   UNL     1       7.519  -1.636  26.677  0.00  0.00    +0.050 C 
ATOM      7  C   UNL     1       8.385  -2.221  25.555  0.00  0.00    +0.207 C 
ATOM      8  C   UNL     1       7.955  -1.665  24.168  0.00  0.00    +0.167 C 
ENDROOT
BRANCH   1  10
ATOM      9  C   UNL     1       9.584   1.672  22.887  0.00  0.00    +0.155 C 
ATOM     10  C   UNL     1       9.426   0.492  23.872  0.00  0.00    +0.101 C 
ATOM     11  C   UNL     1      10.427   0.283  24.981  0.00  0.00    +0.045 C 
ATOM     12  O   UNL     1       9.981   0.321  22.568  0.00  0.00    -0.364 OA
BRANCH   9  13
ATOM     13  C   UNL     1      10.701   2.673  22.921  0.00  0.00    +0.061 C 
BRANCH  13  14
ATOM     14  C   UNL     1      10.399   3.972  23.635  0.00  0.00    -0.026 C 
ATOM     15  C   UNL     1      11.168   5.077  23.709  0.00  0.00    -0.080 C 
ATOM     16  C   UNL     1      10.638   6.359  24.299  0.00  0.00    +0.038 C 
ATOM     17  C   UNL     1      12.579   5.176  23.205  0.00  0.00    +0.038 C 
ENDBRANCH  13  14
ENDBRANCH   9  13
ENDBRANCH   1  10
BRANCH   8  18
ATOM     18  O   UNL     1       6.587  -2.074  23.910  0.00  0.00    -0.376 OA
ATOM     19  C   UNL     1       6.255  -2.130  22.528  0.00  0.00    +0.194 C 
ENDBRANCH   8  18
BRANCH   7  20
ATOM     20  O   UNL     1       8.226  -3.653  25.639  0.00  0.00    -0.444 OA
BRANCH  20  21
ATOM     21  C   UNL     1       8.875  -4.409  24.727  0.00  0.00    +0.407 C 
ATOM     22  N   UNL     1       8.033  -4.972  23.804  0.00  0.00    -0.221 N 
ATOM     23  H   UNL     1       8.529  -5.466  23.069  0.00  0.00    +0.161 HD
ATOM     24  C   UNL     1       6.736  -5.386  24.037  0.00  0.00    +0.236 C 
ATOM     25  O   UNL     1       6.111  -5.199  25.081  0.00  0.00    -0.274 OA
ATOM     26  O   UNL     1      10.082  -4.597  24.692  0.00  0.00    -0.226 OA
BRANCH  24  27
ATOM     27  C   UNL     1       6.041  -6.015  22.845  0.00  0.00    +0.204 C 
ATOM     28 CL   UNL     1       6.996  -5.835  21.357  0.00  0.00    -0.116 Cl
ENDBRANCH  24  27
ENDBRANCH  20  21
ENDBRANCH   7  20
TORSDOF 7
ENDMDL
MODEL 4
REMARK VINA RESULT:      -6.4      2.020      2.576
REMARK  Name = 
REMARK  11 active torsions:
REMARK  status: ('A' for Active; 'I' for Inactive)
REMARK    1  A    between atoms: C_2  and  C_3
REMARK    2  A    between atoms: C_3  and  C_4
REMARK    3  A    between atoms: C_5  and  C_6
REMARK    4  A    between atoms: C_5  and  C_7
REMARK    5  A    between atoms: C_9  and  C_10
REMARK    6  A    between atoms: C_9  and  C_11
REMARK    7  A    between atoms: C_13  and  O_15
REMARK    8  A    between atoms: O_15  and  C_16
REMARK    9  A    between atoms: C_17  and  O_24
REMARK   10  A    between atoms: O_24  and  C_25
REMARK   11  A    between atoms: C_28  and  C_30
REMARK                            x       y       z     vdW  Elec       q    Type
REMARK                         _______ _______ _______ _____ _____    ______ ____
ROOT
ATOM      1  C   UNL     1       7.677  -0.346  23.987  0.00  0.00    +0.090 C 
ATOM      2  C   UNL     1       8.991  -0.747  24.651  0.00  0.00    +0.101 C 
ATOM      3  O   UNL     1       9.723   0.292  25.313  0.00  0.00    -0.368 OA
ATOM      4  C   UNL     1       9.074  -0.652  26.168  0.00  0.00    +0.196 C 
ATOM      5  C   UNL     1       9.837  -1.777  23.965  0.00  0.00    +0.041 C 
ATOM      6  C   UNL     1       9.011  -3.019  23.662  0.00  0.00    +0.050 C 
ATOM      7  C   UNL     1       7.741  -2.654  22.883  0.00  0.00    +0.207 C 
ATOM      8  C   UNL     1       6.871  -1.636  23.673  0.00  0.00    +0.167 C 
ENDROOT
BRANCH   1  10
ATOM      9  C   UNL     1       7.176   2.118  23.088  0.00  0.00    +0.155 C 
ATOM     10  C   UNL     1       7.761   0.703  22.876  0.00  0.00    +0.101 C 
ATOM     11  C   UNL     1       8.879   0.479  21.888  0.00  0.00    +0.045 C 
ATOM     12  O   UNL     1       6.539   1.119  22.265  0.00  0.00    -0.364 OA
BRANCH   9  13
ATOM     13  C   UNL     1       7.628   3.350  22.362  0.00  0.00    +0.061 C 
BRANCH  13  14
ATOM     14  C   UNL     1       8.264   4.423  23.217  0.00  0.00    -0.026 C 
ATOM     15  C   UNL     1       9.532   4.477  23.672  0.00  0.00    -0.080 C 
ATOM     16  C   UNL     1      10.065   5.713  24.353  0.00  0.00    +0.038 C 
ATOM     17  C   UNL     1      10.542   3.375  23.534  0.00  0.00    +0.038 C 
ENDBRANCH  13  14
ENDBRANCH   9  13
ENDBRANCH   1  10
BRANCH   8  18
ATOM     18  O   UNL     1       6.448  -2.256  24.915  0.00  0.00    -0.376 OA
ATOM     19  C   UNL     1       5.322  -1.628  25.517  0.00  0.00    +0.194 C 
ENDBRANCH   8  18
BRANCH   7  20
ATOM     20  O   UNL     1       7.046  -3.900  22.655  0.00  0.00    -0.444 OA
BRANCH  20  21
ATOM     21  C   UNL     1       5.830  -3.839  22.072  0.00  0.00    +0.407 C 
ATOM     22  N   UNL     1       4.814  -4.198  22.919  0.00  0.00    -0.221 N 
ATOM     23  H   UNL     1       3.895  -4.067  22.507  0.00  0.00    +0.161 HD
ATOM     24  C   UNL     1       4.893  -5.139  23.925  0.00  0.00    +0.236 C 
ATOM     25  O   UNL     1       5.926  -5.706  24.283  0.00  0.00    -0.274 OA
ATOM     26  O   UNL     1       5.613  -3.505  20.916  0.00  0.00    -0.226 OA
BRANCH  24  27
ATOM     27  C   UNL     1       3.603  -5.371  24.688  0.00  0.00    +0.204 C 
ATOM     28 CL   UNL     1       2.178  -4.957  23.711  0.00  0.00    -0.116 Cl
ENDBRANCH  24  27
ENDBRANCH  20  21
ENDBRANCH   7  20
TORSDOF 7
ENDMDL
MODEL 5
REMARK VINA RESULT:      -6.3      3.609      5.013
REMARK  Name = 
REMARK  11 active torsions:
REMARK  status: ('A' for Active; 'I' for Inactive)
REMARK    1  A    between atoms: C_2  and  C_3
REMARK    2  A    between atoms: C_3  and  C_4
REMARK    3  A    between atoms: C_5  and  C_6
REMARK    4  A    between atoms: C_5  and  C_7
REMARK    5  A    between atoms: C_9  and  C_10
REMARK    6  A    between atoms: C_9  and  C_11
REMARK    7  A    between atoms: C_13  and  O_15
REMARK    8  A    between atoms: O_15  and  C_16
REMARK    9  A    between atoms: C_17  and  O_24
REMARK   10  A    between atoms: O_24  and  C_25
REMARK   11  A    between atoms: C_28  and  C_30
REMARK                            x       y       z     vdW  Elec       q    Type
REMARK                         _______ _______ _______ _____ _____    ______ ____
ROOT
ATOM      1  C   UNL     1       8.242   0.505  23.965  0.00  0.00    +0.090 C 
ATOM      2  C   UNL     1       9.594   0.747  23.302  0.00  0.00    +0.101 C 
ATOM      3  O   UNL     1      10.227   2.006  23.567  0.00  0.00    -0.368 OA
ATOM      4  C   UNL     1      10.813   0.869  24.207  0.00  0.00    +0.196 C 
ATOM      5  C   UNL     1       9.801   0.216  21.916  0.00  0.00    +0.041 C 
ATOM      6  C   UNL     1       9.458  -1.266  21.864  0.00  0.00    +0.050 C 
ATOM      7  C   UNL     1       8.048  -1.521  22.412  0.00  0.00    +0.207 C 
ATOM      8  C   UNL     1       7.915  -1.012  23.875  0.00  0.00    +0.167 C 
ENDROOT
BRANCH   1  10
ATOM      9  C   UNL     1       6.478   2.375  24.688  0.00  0.00    +0.155 C 
ATOM     10  C   UNL     1       7.116   1.476  23.603  0.00  0.00    +0.101 C 
ATOM     11  C   UNL     1       7.093   1.896  22.155  0.00  0.00    +0.045 C 
ATOM     12  O   UNL     1       5.819   1.214  24.138  0.00  0.00    -0.364 OA
BRANCH   9  13
ATOM     13  C   UNL     1       5.793   3.682  24.424  0.00  0.00    +0.061 C 
BRANCH  13  14
ATOM     14  C   UNL     1       4.289   3.682  24.585  0.00  0.00    -0.026 C 
ATOM     15  C   UNL     1       3.352   3.534  23.627  0.00  0.00    -0.080 C 
ATOM     16  C   UNL     1       1.896   3.364  23.978  0.00  0.00    +0.038 C 
ATOM     17  C   UNL     1       3.632   3.489  22.152  0.00  0.00    +0.038 C 
ENDBRANCH  13  14
ENDBRANCH   9  13
ENDBRANCH   1  10
BRANCH   8  18
ATOM     18  O   UNL     1       8.839  -1.756  24.710  0.00  0.00    -0.376 OA
ATOM     19  C   UNL     1       8.483  -1.774  26.087  0.00  0.00    +0.194 C 
ENDBRANCH   8  18
BRANCH   7  20
ATOM     20  O   UNL     1       7.837  -2.946  22.312  0.00  0.00    -0.444 OA
BRANCH  20  21
ATOM     21  C   UNL     1       6.572  -3.400  22.439  0.00  0.00    +0.407 C 
ATOM     22  N   UNL     1       6.364  -4.081  23.610  0.00  0.00    -0.221 N 
ATOM     23  H   UNL     1       5.393  -4.345  23.744  0.00  0.00    +0.161 HD
ATOM     24  C   UNL     1       7.295  -4.858  24.270  0.00  0.00    +0.236 C 
ATOM     25  O   UNL     1       8.483  -4.953  23.962  0.00  0.00    -0.274 OA
ATOM     26  O   UNL     1       5.676  -3.243  21.622  0.00  0.00    -0.226 OA
BRANCH  24  27
ATOM     27  C   UNL     1       6.786  -5.535  25.529  0.00  0.00    +0.204 C 
ATOM     28 CL   UNL     1       7.898  -5.303  26.895  0.00  0.00    -0.116 Cl
ENDBRANCH  24  27
ENDBRANCH  20  21
ENDBRANCH   7  20
TORSDOF 7
ENDMDL
MODEL 6
REMARK VINA RESULT:      -6.2      2.879      4.235
REMARK  Name = 
REMARK  11 active torsions:
REMARK  status: ('A' for Active; 'I' for Inactive)
REMARK    1  A    between atoms: C_2  and  C_3
REMARK    2  A    between atoms: C_3  and  C_4
REMARK    3  A    between atoms: C_5  and  C_6
REMARK    4  A    between atoms: C_5  and  C_7
REMARK    5  A    between atoms: C_9  and  C_10
REMARK    6  A    between atoms: C_9  and  C_11
REMARK    7  A    between atoms: C_13  and  O_15
REMARK    8  A    between atoms: O_15  and  C_16
REMARK    9  A    between atoms: C_17  and  O_24
REMARK   10  A    between atoms: O_24  and  C_25
REMARK   11  A    between atoms: C_28  and  C_30
REMARK                            x       y       z     vdW  Elec       q    Type
REMARK                         _______ _______ _______ _____ _____    ______ ____
ROOT
ATOM      1  C   UNL     1       8.012  -3.691  23.563  0.00  0.00    +0.090 C 
ATOM      2  C   UNL     1       6.930  -4.553  22.919  0.00  0.00    +0.101 C 
ATOM      3  O   UNL     1       7.005  -4.728  21.499  0.00  0.00    -0.368 OA
ATOM      4  C   UNL     1       7.359  -5.868  22.285  0.00  0.00    +0.196 C 
ATOM      5  C   UNL     1       5.539  -4.462  23.471  0.00  0.00    +0.041 C 
ATOM      6  C   UNL     1       5.555  -4.690  24.976  0.00  0.00    +0.050 C 
ATOM      7  C   UNL     1       6.549  -3.744  25.663  0.00  0.00    +0.207 C 
ATOM      8  C   UNL     1       7.985  -3.933  25.097  0.00  0.00    +0.167 C 
ENDROOT
BRANCH   1  10
ATOM      9  C   UNL     1       9.376  -1.712  22.399  0.00  0.00    +0.155 C 
ATOM     10  C   UNL     1       8.099  -2.236  23.095  0.00  0.00    +0.101 C 
ATOM     11  C   UNL     1       6.765  -1.581  22.836  0.00  0.00    +0.045 C 
ATOM     12  O   UNL     1       9.030  -1.382  23.761  0.00  0.00    -0.364 OA
BRANCH   9  13
ATOM     13  C   UNL     1       9.421  -0.550  21.453  0.00  0.00    +0.061 C 
BRANCH  13  14
ATOM     14  C   UNL     1       9.929   0.752  22.032  0.00  0.00    -0.026 C 
ATOM     15  C   UNL     1       9.222   1.865  22.315  0.00  0.00    -0.080 C 
ATOM     16  C   UNL     1       9.844   3.013  23.070  0.00  0.00    +0.038 C 
ATOM     17  C   UNL     1       7.780   2.081  21.959  0.00  0.00    +0.038 C 
ENDBRANCH  13  14
ENDBRANCH   9  13
ENDBRANCH   1  10
BRANCH   8  18
ATOM     18  O   UNL     1       8.419  -5.288  25.380  0.00  0.00    -0.376 OA
ATOM     19  C   UNL     1       9.830  -5.428  25.494  0.00  0.00    +0.194 C 
ENDBRANCH   8  18
BRANCH   7  20
ATOM     20  O   UNL     1       6.476  -4.050  27.072  0.00  0.00    -0.444 OA
BRANCH  20  21
ATOM     21  C   UNL     1       5.358  -3.683  27.734  0.00  0.00    +0.407 C 
ATOM     22  N   UNL     1       5.044  -4.532  28.764  0.00  0.00    -0.221 N 
ATOM     23  H   UNL     1       4.256  -4.207  29.314  0.00  0.00    +0.161 HD
ATOM     24  C   UNL     1       5.275  -5.893  28.789  0.00  0.00    +0.236 C 
ATOM     25  O   UNL     1       5.906  -6.519  27.938  0.00  0.00    -0.274 OA
ATOM     26  O   UNL     1       4.670  -2.706  27.477  0.00  0.00    -0.226 OA
BRANCH  24  27
ATOM     27  C   UNL     1       4.789  -6.601  30.040  0.00  0.00    +0.204 C 
ATOM     28 CL   UNL     1       3.175  -7.306  29.812  0.00  0.00    -0.116 Cl
ENDBRANCH  24  27
ENDBRANCH  20  21
ENDBRANCH   7  20
TORSDOF 7
ENDMDL
MODEL 7
REMARK VINA RESULT:      -6.1      4.444      7.938
REMARK  Name = 
REMARK  11 active torsions:
REMARK  status: ('A' for Active; 'I' for Inactive)
REMARK    1  A    between atoms: C_2  and  C_3
REMARK    2  A    between atoms: C_3  and  C_4
REMARK    3  A    between atoms: C_5  and  C_6
REMARK    4  A    between atoms: C_5  and  C_7
REMARK    5  A    between atoms: C_9  and  C_10
REMARK    6  A    between atoms: C_9  and  C_11
REMARK    7  A    between atoms: C_13  and  O_15
REMARK    8  A    between atoms: O_15  and  C_16
REMARK    9  A    between atoms: C_17  and  O_24
REMARK   10  A    between atoms: O_24  and  C_25
REMARK   11  A    between atoms: C_28  and  C_30
REMARK                            x       y       z     vdW  Elec       q    Type
REMARK                         _______ _______ _______ _____ _____    ______ ____
ROOT
ATOM      1  C   UNL     1       7.849  -1.108  24.968  0.00  0.00    +0.090 C 
ATOM      2  C   UNL     1       6.872  -0.509  25.975  0.00  0.00    +0.101 C 
ATOM      3  O   UNL     1       6.476  -1.347  27.068  0.00  0.00    -0.368 OA
ATOM      4  C   UNL     1       7.372  -0.282  27.395  0.00  0.00    +0.196 C 
ATOM      5  C   UNL     1       5.798   0.400  25.456  0.00  0.00    +0.041 C 
ATOM      6  C   UNL     1       6.411   1.506  24.609  0.00  0.00    +0.050 C 
ATOM      7  C   UNL     1       7.302   0.921  23.506  0.00  0.00    +0.207 C 
ATOM      8  C   UNL     1       8.437   0.045  24.108  0.00  0.00    +0.167 C 
ENDROOT
BRANCH   1  10
ATOM      9  C   UNL     1       8.178  -3.679  24.328  0.00  0.00    +0.155 C 
ATOM     10  C   UNL     1       7.382  -2.359  24.220  0.00  0.00    +0.101 C 
ATOM     11  C   UNL     1       5.909  -2.380  23.895  0.00  0.00    +0.045 C 
ATOM     12  O   UNL     1       8.204  -2.838  23.155  0.00  0.00    -0.364 OA
BRANCH   9  13
ATOM     13  C   UNL     1       7.602  -5.048  24.119  0.00  0.00    +0.061 C 
BRANCH  13  14
ATOM     14  C   UNL     1       7.382  -5.456  22.679  0.00  0.00    -0.026 C 
ATOM     15  C   UNL     1       6.210  -5.679  22.050  0.00  0.00    -0.080 C 
ATOM     16  C   UNL     1       6.153  -5.892  20.558  0.00  0.00    +0.038 C 
ATOM     17  C   UNL     1       4.867  -5.709  22.721  0.00  0.00    +0.038 C 
ENDBRANCH  13  14
ENDBRANCH   9  13
ENDBRANCH   1  10
BRANCH   8  18
ATOM     18  O   UNL     1       9.279   0.885  24.938  0.00  0.00    -0.376 OA
ATOM     19  C   UNL     1      10.610   0.403  25.080  0.00  0.00    +0.194 C 
ENDBRANCH   8  18
BRANCH   7  20
ATOM     20  O   UNL     1       7.821   2.053  22.775  0.00  0.00    -0.444 OA
BRANCH  20  21
ATOM     21  C   UNL     1       8.831   1.827  21.908  0.00  0.00    +0.407 C 
ATOM     22  N   UNL     1      10.020   2.368  22.320  0.00  0.00    -0.221 N 
ATOM     23  H   UNL     1      10.795   2.123  21.713  0.00  0.00    +0.161 HD
ATOM     24  C   UNL     1      10.170   3.533  23.046  0.00  0.00    +0.236 C 
ATOM     25  O   UNL     1       9.248   4.189  23.529  0.00  0.00    -0.274 OA
ATOM     26  O   UNL     1       8.738   1.211  20.856  0.00  0.00    -0.226 OA
BRANCH  24  27
ATOM     27  C   UNL     1      11.607   3.926  23.335  0.00  0.00    +0.204 C 
ATOM     28 CL   UNL     1      11.762   5.668  23.648  0.00  0.00    -0.116 Cl
ENDBRANCH  24  27
ENDBRANCH  20  21
ENDBRANCH   7  20
TORSDOF 7
ENDMDL
MODEL 8
REMARK VINA RESULT:      -6.1      2.243      3.380
REMARK  Name = 
REMARK  11 active torsions:
REMARK  status: ('A' for Active; 'I' for Inactive)
REMARK    1  A    between atoms: C_2  and  C_3
REMARK    2  A    between atoms: C_3  and  C_4
REMARK    3  A    between atoms: C_5  and  C_6
REMARK    4  A    between atoms: C_5  and  C_7
REMARK    5  A    between atoms: C_9  and  C_10
REMARK    6  A    between atoms: C_9  and  C_11
REMARK    7  A    between atoms: C_13  and  O_15
REMARK    8  A    between atoms: O_15  and  C_16
REMARK    9  A    between atoms: C_17  and  O_24
REMARK   10  A    between atoms: O_24  and  C_25
REMARK   11  A    between atoms: C_28  and  C_30
REMARK                            x       y       z     vdW  Elec       q    Type
REMARK                         _______ _______ _______ _____ _____    ______ ____
ROOT
ATOM      1  C   UNL     1       6.460  -3.899  24.477  0.00  0.00    +0.090 C 
ATOM      2  C   UNL     1       7.595  -4.658  23.798  0.00  0.00    +0.101 C 
ATOM      3  O   UNL     1       8.913  -4.113  23.942  0.00  0.00    -0.368 OA
ATOM      4  C   UNL     1       8.648  -5.302  24.689  0.00  0.00    +0.196 C 
ATOM      5  C   UNL     1       7.318  -5.293  22.468  0.00  0.00    +0.041 C 
ATOM      6  C   UNL     1       6.084  -6.180  22.558  0.00  0.00    +0.050 C 
ATOM      7  C   UNL     1       4.890  -5.402  23.124  0.00  0.00    +0.207 C 
ATOM      8  C   UNL     1       5.213  -4.825  24.532  0.00  0.00    +0.167 C 
ENDROOT
BRANCH   1  10
ATOM      9  C   UNL     1       6.512  -1.277  24.981  0.00  0.00    +0.155 C 
ATOM     10  C   UNL     1       6.228  -2.456  24.022  0.00  0.00    +0.101 C 
ATOM     11  C   UNL     1       6.283  -2.256  22.528  0.00  0.00    +0.045 C 
ATOM     12  O   UNL     1       5.179  -1.723  24.654  0.00  0.00    -0.364 OA
BRANCH   9  13
ATOM     13  C   UNL     1       6.841   0.120  24.547  0.00  0.00    +0.061 C 
BRANCH  13  14
ATOM     14  C   UNL     1       8.283   0.542  24.723  0.00  0.00    -0.026 C 
ATOM     15  C   UNL     1       9.168   0.891  23.768  0.00  0.00    -0.080 C 
ATOM     16  C   UNL     1      10.513   1.473  24.124  0.00  0.00    +0.038 C 
ATOM     17  C   UNL     1       8.925   0.779  22.290  0.00  0.00    +0.038 C 
ENDBRANCH  13  14
ENDBRANCH   9  13
ENDBRANCH   1  10
BRANCH   8  18
ATOM     18  O   UNL     1       5.471  -5.930  25.436  0.00  0.00    -0.376 OA
ATOM     19  C   UNL     1       5.228  -5.623  26.803  0.00  0.00    +0.194 C 
ENDBRANCH   8  18
BRANCH   7  20
ATOM     20  O   UNL     1       3.790  -6.336  23.160  0.00  0.00    -0.444 OA
BRANCH  20  21
ATOM     21  C   UNL     1       2.568  -5.851  23.465  0.00  0.00    +0.407 C 
ATOM     22  N   UNL     1       2.119  -6.266  24.692  0.00  0.00    -0.221 N 
ATOM     23  H   UNL     1       1.241  -5.830  24.956  0.00  0.00    +0.161 HD
ATOM     24  C   UNL     1       2.389  -7.484  25.283  0.00  0.00    +0.236 C 
ATOM     25  O   UNL     1       3.171  -8.326  24.842  0.00  0.00    -0.274 OA
ATOM     26  O   UNL     1       1.898  -5.118  22.752  0.00  0.00    -0.226 OA
BRANCH  24  27
ATOM     27  C   UNL     1       1.730  -7.700  26.632  0.00  0.00    +0.204 C 
ATOM     28 CL   UNL     1       1.663  -6.198  27.579  0.00  0.00    -0.116 Cl
ENDBRANCH  24  27
ENDBRANCH  20  21
ENDBRANCH   7  20
TORSDOF 7
ENDMDL
MODEL 9
REMARK VINA RESULT:      -6.0      4.559      8.395
REMARK  Name = 
REMARK  11 active torsions:
REMARK  status: ('A' for Active; 'I' for Inactive)
REMARK    1  A    between atoms: C_2  and  C_3
REMARK    2  A    between atoms: C_3  and  C_4
REMARK    3  A    between atoms: C_5  and  C_6
REMARK    4  A    between atoms: C_5  and  C_7
REMARK    5  A    between atoms: C_9  and  C_10
REMARK    6  A    between atoms: C_9  and  C_11
REMARK    7  A    between atoms: C_13  and  O_15
REMARK    8  A    between atoms: O_15  and  C_16
REMARK    9  A    between atoms: C_17  and  O_24
REMARK   10  A    between atoms: O_24  and  C_25
REMARK   11  A    between atoms: C_28  and  C_30
REMARK                            x       y       z     vdW  Elec       q    Type
REMARK                         _______ _______ _______ _____ _____    ______ ____
ROOT
ATOM      1  C   UNL     1       8.093  -0.328  23.408  0.00  0.00    +0.090 C 
ATOM      2  C   UNL     1       9.512  -0.857  23.226  0.00  0.00    +0.101 C 
ATOM      3  O   UNL     1       9.645  -2.189  22.712  0.00  0.00    -0.368 OA
ATOM      4  C   UNL     1       9.986  -1.136  21.807  0.00  0.00    +0.196 C 
ATOM      5  C   UNL     1      10.542  -0.470  24.245  0.00  0.00    +0.041 C 
ATOM      6  C   UNL     1      10.571   1.043  24.413  0.00  0.00    +0.050 C 
ATOM      7  C   UNL     1       9.170   1.587  24.722  0.00  0.00    +0.207 C 
ATOM      8  C   UNL     1       8.163   1.212  23.598  0.00  0.00    +0.167 C 
ENDROOT
BRANCH   1  10
ATOM      9  C   UNL     1       5.917  -1.811  23.855  0.00  0.00    +0.155 C 
ATOM     10  C   UNL     1       7.190  -1.102  24.372  0.00  0.00    +0.101 C 
ATOM     11  C   UNL     1       7.881  -1.590  25.621  0.00  0.00    +0.045 C 
ATOM     12  O   UNL     1       5.882  -0.584  24.614  0.00  0.00    -0.364 OA
BRANCH   9  13
ATOM     13  C   UNL     1       5.263  -2.988  24.515  0.00  0.00    +0.061 C 
BRANCH  13  14
ATOM     14  C   UNL     1       5.129  -4.230  23.662  0.00  0.00    -0.026 C 
ATOM     15  C   UNL     1       6.096  -5.100  23.307  0.00  0.00    -0.080 C 
ATOM     16  C   UNL     1       5.762  -6.397  22.612  0.00  0.00    +0.038 C 
ATOM     17  C   UNL     1       7.561  -4.914  23.575  0.00  0.00    +0.038 C 
ENDBRANCH  13  14
ENDBRANCH   9  13
ENDBRANCH   1  10
BRANCH   8  18
ATOM     18  O   UNL     1       8.599   1.832  22.361  0.00  0.00    -0.376 OA
ATOM     19  C   UNL     1       7.574   2.548  21.684  0.00  0.00    +0.194 C 
ENDBRANCH   8  18
BRANCH   7  20
ATOM     20  O   UNL     1       9.322   3.016  24.860  0.00  0.00    -0.444 OA
BRANCH  20  21
ATOM     21  C   UNL     1       8.255   3.719  25.295  0.00  0.00    +0.407 C 
ATOM     22  N   UNL     1       7.970   4.801  24.503  0.00  0.00    -0.221 N 
ATOM     23  H   UNL     1       7.117   5.276  24.780  0.00  0.00    +0.161 HD
ATOM     24  C   UNL     1       8.893   5.570  23.821  0.00  0.00    +0.236 C 
ATOM     25  O   UNL     1      10.094   5.318  23.730  0.00  0.00    -0.274 OA
ATOM     26  O   UNL     1       7.586   3.454  26.283  0.00  0.00    -0.226 OA
BRANCH  24  27
ATOM     27  C   UNL     1       8.307   6.737  23.050  0.00  0.00    +0.204 C 
ATOM     28 CL   UNL     1       7.119   6.199  21.843  0.00  0.00    -0.116 Cl
ENDBRANCH  24  27
ENDBRANCH  20  21
ENDBRANCH   7  20
TORSDOF 7
ENDMDL
