MODEL 1
REMARK VINA RESULT:      -7.6      0.000      0.000
REMARK  Name = 
REMARK  11 active torsions:
REMARK  status: ('A' for Active; 'I' for Inactive)
REMARK    1  A    between atoms: N1_6  and  C1*_9
REMARK    2  A    between atoms: C3*_12  and  O3*_14
REMARK    3  A    between atoms: O3*_14  and  P_15
REMARK    4  A    between atoms: P_15  and  O1P_16
REMARK    5  A    between atoms: P_15  and  O5*_18
REMARK    6  A    between atoms: O5*_18  and  C5*_19
REMARK    7  A    between atoms: C5*_19  and  C4*_20
REMARK    8  A    between atoms: C1*_23  and  N9_29
REMARK    9  A    between atoms: C3*_26  and  O3*_28
REMARK   10  A    between atoms: C4*_39  and  C5*_41
REMARK   11  A    between atoms: C5*_41  and  O5*_42
REMARK                            x       y       z     vdW  Elec       q    Type
REMARK                         _______ _______ _______ _____ _____    ______ ____
ROOT
ATOM      1  P     A A   2       5.741   0.154  25.177  0.00  0.00    +0.475 P 
ATOM      2  O2P   A A   2       4.978   1.307  24.614  0.00  0.00    -0.227 OA
ENDROOT
BRANCH   1   3
ATOM      3  O1P   A A   2       6.646   0.610  26.418  0.00  0.00    -0.302 OA
ATOM      4  H1P   A A   2       7.225  -0.119  26.711  0.00  0.00    +0.222 HD
ENDBRANCH   1   3
BRANCH   1   5
ATOM      5  O3*   C A   1       6.783  -0.520  24.166  0.00  0.00    -0.281 OA
BRANCH   5   9
ATOM      6  C1*   C A   1       9.178  -2.116  23.357  0.00  0.00    +0.226 C 
ATOM      7  O4*   C A   1       9.218  -1.164  22.265  0.00  0.00    -0.348 OA
ATOM      8  C4*   C A   1       8.680   0.102  22.711  0.00  0.00    +0.175 C 
ATOM      9  C3*   C A   1       8.144  -0.107  24.125  0.00  0.00    +0.165 C 
ATOM     10  C2*   C A   1       8.977  -1.267  24.615  0.00  0.00    +0.089 C 
BRANCH   6  17
ATOM     11  N4    C A   1       5.637  -6.239  22.347  0.00  0.00    -0.343 N 
ATOM     12  H41   C A   1       4.727  -6.015  21.971  0.00  0.00    +0.144 HD
ATOM     13  H42   C A   1       5.615  -6.901  23.116  0.00  0.00    +0.144 HD
ATOM     14  C4    C A   1       6.518  -5.217  22.553  0.00  0.00    +0.123 A 
ATOM     15  C5    C A   1       6.442  -4.006  21.721  0.00  0.00    +0.061 A 
ATOM     16  C6    C A   1       7.273  -3.019  22.056  0.00  0.00    +0.096 A 
ATOM     17  N1    C A   1       8.173  -3.145  23.094  0.00  0.00    -0.273 N 
ATOM     18  C2    C A   1       8.326  -4.389  23.733  0.00  0.00    +0.352 A 
ATOM     19  O2    C A   1       9.273  -4.604  24.486  0.00  0.00    -0.244 OA
ATOM     20  N3    C A   1       7.396  -5.373  23.494  0.00  0.00    -0.178 NA
ENDBRANCH   6  17
BRANCH   8  21
ATOM     21  C5*   C A   1       9.815   1.142  22.682  0.00  0.00    +0.190 C 
BRANCH  21  22
ATOM     22  O5*   C A   1       9.820   1.920  21.485  0.00  0.00    -0.392 OA
ATOM     23  H5*   C A   1      10.365   1.469  20.818  0.00  0.00    +0.210 HD
ENDBRANCH  21  22
ENDBRANCH   8  21
ENDBRANCH   5   9
ENDBRANCH   1   5
BRANCH   1  24
ATOM     24  O5*   A A   2       4.872  -1.066  25.777  0.00  0.00    -0.284 OA
BRANCH  24  25
ATOM     25  C5*   A A   2       5.472  -1.831  26.815  0.00  0.00    +0.206 C 
BRANCH  25  26
ATOM     26  C4*   A A   2       6.076  -3.165  26.336  0.00  0.00    +0.175 C 
ATOM     27  C3*   A A   2       6.441  -4.160  27.435  0.00  0.00    +0.150 C 
ATOM     28  C2*   A A   2       5.368  -5.231  27.404  0.00  0.00    +0.088 C 
ATOM     29  C1*   A A   2       4.411  -4.784  26.307  0.00  0.00    +0.225 C 
ATOM     30  O4*   A A   2       5.146  -3.859  25.481  0.00  0.00    -0.348 OA
BRANCH  29  31
ATOM     31  N9    A A   2       3.886  -5.861  25.489  0.00  0.00    -0.288 N 
ATOM     32  C4    A A   2       2.861  -5.734  24.590  0.00  0.00    +0.167 A 
ATOM     33  N3    A A   2       2.117  -4.642  24.342  0.00  0.00    -0.216 NA
ATOM     34  C2    A A   2       1.213  -4.892  23.372  0.00  0.00    +0.225 A 
ATOM     35  N1    A A   2       1.012  -6.036  22.682  0.00  0.00    -0.219 NA
ATOM     36  C6    A A   2       1.779  -7.110  22.981  0.00  0.00    +0.147 A 
ATOM     37  N6    A A   2       1.568  -8.281  22.264  0.00  0.00    -0.341 N 
ATOM     38  H61   A A   2       2.373  -8.898  22.254  0.00  0.00    +0.144 HD
ATOM     39  H62   A A   2       1.100  -8.107  21.385  0.00  0.00    +0.144 HD
ATOM     40  C5    A A   2       2.762  -6.973  23.978  0.00  0.00    +0.147 A 
ATOM     41  N7    A A   2       3.704  -7.845  24.485  0.00  0.00    -0.231 NA
ATOM     42  C8    A A   2       4.359  -7.142  25.389  0.00  0.00    +0.203 A 
ENDBRANCH  29  31
BRANCH  27  43
ATOM     43  O3*   A A   2       7.705  -4.772  27.135  0.00  0.00    -0.389 OA
ATOM     44  H3*   A A   2       7.615  -5.739  27.233  0.00  0.00    +0.210 HD
ENDBRANCH  27  43
ENDBRANCH  25  26
ENDBRANCH  24  25
ENDBRANCH   1  24
TORSDOF 11
ENDMDL
MODEL 2
REMARK VINA RESULT:      -7.5      3.331      5.932
REMARK  Name = 
REMARK  11 active torsions:
REMARK  status: ('A' for Active; 'I' for Inactive)
REMARK    1  A    between atoms: N1_6  and  C1*_9
REMARK    2  A    between atoms: C3*_12  and  O3*_14
REMARK    3  A    between atoms: O3*_14  and  P_15
REMARK    4  A    between atoms: P_15  and  O1P_16
REMARK    5  A    between atoms: P_15  and  O5*_18
REMARK    6  A    between atoms: O5*_18  and  C5*_19
REMARK    7  A    between atoms: C5*_19  and  C4*_20
REMARK    8  A    between atoms: C1*_23  and  N9_29
REMARK    9  A    between atoms: C3*_26  and  O3*_28
REMARK   10  A    between atoms: C4*_39  and  C5*_41
REMARK   11  A    between atoms: C5*_41  and  O5*_42
REMARK                            x       y       z     vdW  Elec       q    Type
REMARK                         _______ _______ _______ _____ _____    ______ ____
ROOT
ATOM      1  P     A A   2      10.403   2.787  23.308  0.00  0.00    +0.475 P 
ATOM      2  O2P   A A   2      11.456   3.843  23.380  0.00  0.00    -0.227 OA
ENDROOT
BRANCH   1   3
ATOM      3  O1P   A A   2      10.157   2.319  21.795  0.00  0.00    -0.302 OA
ATOM      4  H1P   A A   2       9.222   2.437  21.544  0.00  0.00    +0.222 HD
ENDBRANCH   1   3
BRANCH   1   5
ATOM      5  O3*   C A   1       8.955   3.248  23.809  0.00  0.00    -0.281 OA
BRANCH   5   9
ATOM      6  C1*   C A   1       5.981   3.122  24.097  0.00  0.00    +0.226 C 
ATOM      7  O4*   C A   1       6.104   4.566  24.123  0.00  0.00    -0.348 OA
ATOM      8  C4*   C A   1       7.245   4.965  23.330  0.00  0.00    +0.175 C 
ATOM      9  C3*   C A   1       7.962   3.690  22.892  0.00  0.00    +0.165 C 
ATOM     10  C2*   C A   1       6.847   2.672  22.917  0.00  0.00    +0.089 C 
BRANCH   6  17
ATOM     11  N4    C A   1       6.928   0.874  29.057  0.00  0.00    -0.343 N 
ATOM     12  H41   C A   1       7.672   1.251  29.627  0.00  0.00    +0.144 HD
ATOM     13  H42   C A   1       6.920  -0.140  29.009  0.00  0.00    +0.144 HD
ATOM     14  C4    C A   1       6.677   1.464  27.853  0.00  0.00    +0.123 A 
ATOM     15  C5    C A   1       6.979   2.890  27.659  0.00  0.00    +0.061 A 
ATOM     16  C6    C A   1       6.796   3.360  26.424  0.00  0.00    +0.096 A 
ATOM     17  N1    C A   1       6.317   2.562  25.406  0.00  0.00    -0.273 N 
ATOM     18  C2    C A   1       5.874   1.259  25.693  0.00  0.00    +0.352 A 
ATOM     19  O2    C A   1       5.225   0.612  24.875  0.00  0.00    -0.244 OA
ATOM     20  N3    C A   1       6.172   0.716  26.921  0.00  0.00    -0.178 NA
ENDBRANCH   6  17
BRANCH   8  21
ATOM     21  C5*   C A   1       6.730   5.771  22.122  0.00  0.00    +0.190 C 
BRANCH  21  22
ATOM     22  O5*   C A   1       7.784   6.374  21.371  0.00  0.00    -0.392 OA
ATOM     23  H5*   C A   1       7.739   7.339  21.485  0.00  0.00    +0.210 HD
ENDBRANCH  21  22
ENDBRANCH   8  21
ENDBRANCH   5   9
ENDBRANCH   1   5
BRANCH   1  24
ATOM     24  O5*   A A   2      10.709   1.406  24.082  0.00  0.00    -0.284 OA
BRANCH  24  25
ATOM     25  C5*   A A   2       9.584   0.648  24.510  0.00  0.00    +0.206 C 
BRANCH  25  26
ATOM     26  C4*   A A   2       9.124  -0.412  23.490  0.00  0.00    +0.175 C 
ATOM     27  C3*   A A   2      10.202  -1.386  23.016  0.00  0.00    +0.150 C 
ATOM     28  C2*   A A   2       9.922  -2.697  23.725  0.00  0.00    +0.088 C 
ATOM     29  C1*   A A   2       8.714  -2.408  24.605  0.00  0.00    +0.225 C 
ATOM     30  O4*   A A   2       8.084  -1.234  24.055  0.00  0.00    -0.348 OA
BRANCH  29  31
ATOM     31  N9    A A   2       7.751  -3.491  24.682  0.00  0.00    -0.288 N 
ATOM     32  C4    A A   2       7.018  -3.963  23.627  0.00  0.00    +0.167 A 
ATOM     33  N3    A A   2       6.993  -3.493  22.368  0.00  0.00    -0.216 NA
ATOM     34  C2    A A   2       6.165  -4.232  21.600  0.00  0.00    +0.225 A 
ATOM     35  N1    A A   2       5.430  -5.310  21.948  0.00  0.00    -0.219 NA
ATOM     36  C6    A A   2       5.481  -5.734  23.232  0.00  0.00    +0.147 A 
ATOM     37  N6    A A   2       4.726  -6.847  23.581  0.00  0.00    -0.341 N 
ATOM     38  H61   A A   2       5.073  -7.328  24.403  0.00  0.00    +0.144 HD
ATOM     39  H62   A A   2       4.484  -7.408  22.775  0.00  0.00    +0.144 HD
ATOM     40  C5    A A   2       6.313  -5.044  24.132  0.00  0.00    +0.147 A 
ATOM     41  N7    A A   2       6.606  -5.236  25.468  0.00  0.00    -0.231 NA
ATOM     42  C8    A A   2       7.471  -4.285  25.762  0.00  0.00    +0.203 A 
ENDBRANCH  29  31
BRANCH  27  43
ATOM     43  O3*   A A   2      10.075  -1.597  21.601  0.00  0.00    -0.389 OA
ATOM     44  H3*   A A   2      10.928  -1.388  21.177  0.00  0.00    +0.210 HD
ENDBRANCH  27  43
ENDBRANCH  25  26
ENDBRANCH  24  25
ENDBRANCH   1  24
TORSDOF 11
ENDMDL
MODEL 3
REMARK VINA RESULT:      -7.3      3.864      8.528
REMARK  Name = 
REMARK  11 active torsions:
REMARK  status: ('A' for Active; 'I' for Inactive)
REMARK    1  A    between atoms: N1_6  and  C1*_9
REMARK    2  A    between atoms: C3*_12  and  O3*_14
REMARK    3  A    between atoms: O3*_14  and  P_15
REMARK    4  A    between atoms: P_15  and  O1P_16
REMARK    5  A    between atoms: P_15  and  O5*_18
REMARK    6  A    between atoms: O5*_18  and  C5*_19
REMARK    7  A    between atoms: C5*_19  and  C4*_20
REMARK    8  A    between atoms: C1*_23  and  N9_29
REMARK    9  A    between atoms: C3*_26  and  O3*_28
REMARK   10  A    between atoms: C4*_39  and  C5*_41
REMARK   11  A    between atoms: C5*_41  and  O5*_42
REMARK                            x       y       z     vdW  Elec       q    Type
REMARK                         _______ _______ _______ _____ _____    ______ ____
ROOT
ATOM      1  P     A A   2       6.538  -4.365  22.086  0.00  0.00    +0.475 P 
ATOM      2  O2P   A A   2       5.688  -4.923  20.994  0.00  0.00    -0.227 OA
ENDROOT
BRANCH   1   3
ATOM      3  O1P   A A   2       7.872  -5.231  22.281  0.00  0.00    -0.302 OA
ATOM      4  H1P   A A   2       7.892  -5.981  21.656  0.00  0.00    +0.222 HD
ENDBRANCH   1   3
BRANCH   1   5
ATOM      5  O3*   C A   1       5.860  -4.372  23.536  0.00  0.00    -0.281 OA
BRANCH   5   9
ATOM      6  C1*   C A   1       6.400  -4.915  26.426  0.00  0.00    +0.226 C 
ATOM      7  O4*   C A   1       4.959  -5.060  26.481  0.00  0.00    -0.348 OA
ATOM      8  C4*   C A   1       4.477  -5.550  25.209  0.00  0.00    +0.175 C 
ATOM      9  C3*   C A   1       5.668  -5.584  24.255  0.00  0.00    +0.165 C 
ATOM     10  C2*   C A   1       6.834  -5.729  25.204  0.00  0.00    +0.089 C 
BRANCH   6  17
ATOM     11  N4    C A   1       8.002   0.368  26.713  0.00  0.00    -0.343 N 
ATOM     12  H41   C A   1       7.395   1.080  26.332  0.00  0.00    +0.144 HD
ATOM     13  H42   C A   1       8.976   0.472  26.447  0.00  0.00    +0.144 HD
ATOM     14  C4    C A   1       7.577  -0.928  26.674  0.00  0.00    +0.123 A 
ATOM     15  C5    C A   1       6.137  -1.228  26.695  0.00  0.00    +0.061 A 
ATOM     16  C6    C A   1       5.809  -2.512  26.553  0.00  0.00    +0.096 A 
ATOM     17  N1    C A   1       6.766  -3.498  26.433  0.00  0.00    -0.273 N 
ATOM     18  C2    C A   1       8.124  -3.174  26.603  0.00  0.00    +0.352 A 
ATOM     19  O2    C A   1       8.975  -4.049  26.742  0.00  0.00    -0.244 OA
ATOM     20  N3    C A   1       8.489  -1.849  26.619  0.00  0.00    -0.178 NA
ENDBRANCH   6  17
BRANCH   8  21
ATOM     21  C5*   C A   1       3.886  -6.955  25.431  0.00  0.00    +0.190 C 
BRANCH  21  22
ATOM     22  O5*   C A   1       3.970  -7.779  24.268  0.00  0.00    -0.392 OA
ATOM     23  H5*   C A   1       3.111  -7.772  23.814  0.00  0.00    +0.210 HD
ENDBRANCH  21  22
ENDBRANCH   8  21
ENDBRANCH   5   9
ENDBRANCH   1   5
BRANCH   1  24
ATOM     24  O5*   A A   2       7.094  -2.866  21.878  0.00  0.00    -0.284 OA
BRANCH  24  25
ATOM     25  C5*   A A   2       7.332  -2.100  23.053  0.00  0.00    +0.206 C 
BRANCH  25  26
ATOM     26  C4*   A A   2       8.729  -1.450  23.099  0.00  0.00    +0.175 C 
ATOM     27  C3*   A A   2       9.439  -1.309  21.754  0.00  0.00    +0.150 C 
ATOM     28  C2*   A A   2       9.338   0.157  21.379  0.00  0.00    +0.088 C 
ATOM     29  C1*   A A   2       8.542   0.789  22.512  0.00  0.00    +0.225 C 
ATOM     30  O4*   A A   2       8.643  -0.114  23.632  0.00  0.00    -0.348 OA
BRANCH  29  31
ATOM     31  N9    A A   2       8.998   2.110  22.905  0.00  0.00    -0.288 N 
ATOM     32  C4    A A   2       8.245   3.252  22.831  0.00  0.00    +0.167 A 
ATOM     33  N3    A A   2       7.004   3.386  22.336  0.00  0.00    -0.216 NA
ATOM     34  C2    A A   2       6.579   4.662  22.454  0.00  0.00    +0.225 A 
ATOM     35  N1    A A   2       7.229   5.720  22.985  0.00  0.00    -0.219 NA
ATOM     36  C6    A A   2       8.483   5.533  23.458  0.00  0.00    +0.147 A 
ATOM     37  N6    A A   2       9.142   6.626  24.007  0.00  0.00    -0.341 N 
ATOM     38  H61   A A   2       9.877   6.368  24.656  0.00  0.00    +0.144 HD
ATOM     39  H62   A A   2       8.498   7.352  24.291  0.00  0.00    +0.144 HD
ATOM     40  C5    A A   2       9.037   4.242  23.392  0.00  0.00    +0.147 A 
ATOM     41  N7    A A   2      10.248   3.723  23.804  0.00  0.00    -0.231 NA
ATOM     42  C8    A A   2      10.188   2.443  23.495  0.00  0.00    +0.203 A 
ENDBRANCH  29  31
BRANCH  27  43
ATOM     43  O3*   A A   2      10.826  -1.648  21.900  0.00  0.00    -0.389 OA
ATOM     44  H3*   A A   2      10.945  -2.124  22.744  0.00  0.00    +0.210 HD
ENDBRANCH  27  43
ENDBRANCH  25  26
ENDBRANCH  24  25
ENDBRANCH   1  24
TORSDOF 11
ENDMDL
MODEL 4
REMARK VINA RESULT:      -7.3      2.647      5.127
REMARK  Name = 
REMARK  11 active torsions:
REMARK  status: ('A' for Active; 'I' for Inactive)
REMARK    1  A    between atoms: N1_6  and  C1*_9
REMARK    2  A    between atoms: C3*_12  and  O3*_14
REMARK    3  A    between atoms: O3*_14  and  P_15
REMARK    4  A    between atoms: P_15  and  O1P_16
REMARK    5  A    between atoms: P_15  and  O5*_18
REMARK    6  A    between atoms: O5*_18  and  C5*_19
REMARK    7  A    between atoms: C5*_19  and  C4*_20
REMARK    8  A    between atoms: C1*_23  and  N9_29
REMARK    9  A    between atoms: C3*_26  and  O3*_28
REMARK   10  A    between atoms: C4*_39  and  C5*_41
REMARK   11  A    between atoms: C5*_41  and  O5*_42
REMARK                            x       y       z     vdW  Elec       q    Type
REMARK                         _______ _______ _______ _____ _____    ______ ____
ROOT
ATOM      1  P     A A   2       9.256  -1.887  22.843  0.00  0.00    +0.475 P 
ATOM      2  O2P   A A   2      10.182  -2.350  23.919  0.00  0.00    -0.227 OA
ENDROOT
BRANCH   1   3
ATOM      3  O1P   A A   2      10.070  -1.337  21.577  0.00  0.00    -0.302 OA
ATOM      4  H1P   A A   2      10.391  -2.074  21.025  0.00  0.00    +0.222 HD
ENDBRANCH   1   3
BRANCH   1   5
ATOM      5  O3*   C A   1       8.308  -0.665  23.253  0.00  0.00    -0.281 OA
BRANCH   5   9
ATOM      6  C1*   C A   1       7.213   1.904  24.322  0.00  0.00    +0.226 C 
ATOM      7  O4*   C A   1       8.593   2.122  24.706  0.00  0.00    -0.348 OA
ATOM      8  C4*   C A   1       9.465   1.457  23.764  0.00  0.00    +0.175 C 
ATOM      9  C3*   C A   1       8.578   0.660  22.810  0.00  0.00    +0.165 C 
ATOM     10  C2*   C A   1       7.277   1.424  22.870  0.00  0.00    +0.089 C 
BRANCH   6  17
ATOM     11  N4    C A   1       4.514  -1.209  28.008  0.00  0.00    -0.343 N 
ATOM     12  H41   C A   1       4.988  -2.007  28.408  0.00  0.00    +0.144 HD
ATOM     13  H42   C A   1       3.566  -1.404  27.701  0.00  0.00    +0.144 HD
ATOM     14  C4    C A   1       5.204  -0.424  27.131  0.00  0.00    +0.123 A 
ATOM     15  C5    C A   1       6.668  -0.321  27.236  0.00  0.00    +0.061 A 
ATOM     16  C6    C A   1       7.270   0.386  26.279  0.00  0.00    +0.096 A 
ATOM     17  N1    C A   1       6.557   1.012  25.278  0.00  0.00    -0.273 N 
ATOM     18  C2    C A   1       5.152   1.030  25.333  0.00  0.00    +0.352 A 
ATOM     19  O2    C A   1       4.496   1.772  24.605  0.00  0.00    -0.244 OA
ATOM     20  N3    C A   1       4.515   0.205  26.230  0.00  0.00    -0.178 NA
ENDBRANCH   6  17
BRANCH   8  21
ATOM     21  C5*   C A   1      10.275   2.535  23.019  0.00  0.00    +0.190 C 
BRANCH  21  22
ATOM     22  O5*   C A   1      10.413   2.257  21.626  0.00  0.00    -0.392 OA
ATOM     23  H5*   C A   1      11.173   2.754  21.278  0.00  0.00    +0.210 HD
ENDBRANCH  21  22
ENDBRANCH   8  21
ENDBRANCH   5   9
ENDBRANCH   1   5
BRANCH   1  24
ATOM     24  O5*   A A   2       8.277  -2.997  22.204  0.00  0.00    -0.284 OA
BRANCH  24  25
ATOM     25  C5*   A A   2       6.900  -2.654  22.096  0.00  0.00    +0.206 C 
BRANCH  25  26
ATOM     26  C4*   A A   2       5.962  -3.870  21.985  0.00  0.00    +0.175 C 
ATOM     27  C3*   A A   2       6.611  -5.166  21.500  0.00  0.00    +0.150 C 
ATOM     28  C2*   A A   2       6.759  -6.045  22.727  0.00  0.00    +0.088 C 
ATOM     29  C1*   A A   2       6.219  -5.200  23.872  0.00  0.00    +0.225 C 
ATOM     30  O4*   A A   2       5.391  -4.184  23.271  0.00  0.00    -0.348 OA
BRANCH  29  31
ATOM     31  N9    A A   2       5.450  -5.939  24.856  0.00  0.00    -0.288 N 
ATOM     32  C4    A A   2       5.748  -6.011  26.191  0.00  0.00    +0.167 A 
ATOM     33  N3    A A   2       6.811  -5.486  26.824  0.00  0.00    -0.216 NA
ATOM     34  C2    A A   2       6.753  -5.745  28.147  0.00  0.00    +0.225 A 
ATOM     35  N1    A A   2       5.804  -6.417  28.833  0.00  0.00    -0.219 NA
ATOM     36  C6    A A   2       4.761  -6.937  28.146  0.00  0.00    +0.147 A 
ATOM     37  N6    A A   2       3.787  -7.623  28.860  0.00  0.00    -0.341 N 
ATOM     38  H61   A A   2       2.890  -7.657  28.388  0.00  0.00    +0.144 HD
ATOM     39  H62   A A   2       3.792  -7.376  29.840  0.00  0.00    +0.144 HD
ATOM     40  C5    A A   2       4.708  -6.732  26.755  0.00  0.00    +0.147 A 
ATOM     41  N7    A A   2       3.788  -7.096  25.792  0.00  0.00    -0.231 NA
ATOM     42  C8    A A   2       4.268  -6.603  24.666  0.00  0.00    +0.203 A 
ENDBRANCH  29  31
BRANCH  27  43
ATOM     43  O3*   A A   2       5.740  -5.825  20.569  0.00  0.00    -0.389 OA
ATOM     44  H3*   A A   2       4.855  -5.905  20.972  0.00  0.00    +0.210 HD
ENDBRANCH  27  43
ENDBRANCH  25  26
ENDBRANCH  24  25
ENDBRANCH   1  24
TORSDOF 11
ENDMDL
MODEL 5
REMARK VINA RESULT:      -7.3      2.949      7.572
REMARK  Name = 
REMARK  11 active torsions:
REMARK  status: ('A' for Active; 'I' for Inactive)
REMARK    1  A    between atoms: N1_6  and  C1*_9
REMARK    2  A    between atoms: C3*_12  and  O3*_14
REMARK    3  A    between atoms: O3*_14  and  P_15
REMARK    4  A    between atoms: P_15  and  O1P_16
REMARK    5  A    between atoms: P_15  and  O5*_18
REMARK    6  A    between atoms: O5*_18  and  C5*_19
REMARK    7  A    between atoms: C5*_19  and  C4*_20
REMARK    8  A    between atoms: C1*_23  and  N9_29
REMARK    9  A    between atoms: C3*_26  and  O3*_28
REMARK   10  A    between atoms: C4*_39  and  C5*_41
REMARK   11  A    between atoms: C5*_41  and  O5*_42
REMARK                            x       y       z     vdW  Elec       q    Type
REMARK                         _______ _______ _______ _____ _____    ______ ____
ROOT
ATOM      1  P     A A   2       5.976  -6.116  28.608  0.00  0.00    +0.475 P 
ATOM      2  O2P   A A   2       5.784  -7.549  28.977  0.00  0.00    -0.227 OA
ENDROOT
BRANCH   1   3
ATOM      3  O1P   A A   2       5.980  -5.180  29.909  0.00  0.00    -0.302 OA
ATOM      4  H1P   A A   2       5.140  -4.692  29.987  0.00  0.00    +0.222 HD
ENDBRANCH   1   3
BRANCH   1   5
ATOM      5  O3*   C A   1       4.819  -5.497  27.692  0.00  0.00    -0.281 OA
BRANCH   5   9
ATOM      6  C1*   C A   1       2.390  -5.019  26.015  0.00  0.00    +0.226 C 
ATOM      7  O4*   C A   1       2.171  -6.432  26.251  0.00  0.00    -0.348 OA
ATOM      8  C4*   C A   1       2.723  -6.795  27.538  0.00  0.00    +0.175 C 
ATOM      9  C3*   C A   1       3.452  -5.569  28.081  0.00  0.00    +0.165 C 
ATOM     10  C2*   C A   1       2.732  -4.435  27.388  0.00  0.00    +0.089 C 
BRANCH   6  17
ATOM     11  N4    C A   1       5.970  -4.027  21.921  0.00  0.00    -0.343 N 
ATOM     12  H41   C A   1       6.539  -4.788  21.580  0.00  0.00    +0.144 HD
ATOM     13  H42   C A   1       6.485  -3.167  22.084  0.00  0.00    +0.144 HD
ATOM     14  C4    C A   1       5.060  -4.293  22.903  0.00  0.00    +0.123 A 
ATOM     15  C5    C A   1       4.475  -5.638  23.014  0.00  0.00    +0.061 A 
ATOM     16  C6    C A   1       3.673  -5.838  24.061  0.00  0.00    +0.096 A 
ATOM     17  N1    C A   1       3.384  -4.831  24.958  0.00  0.00    -0.273 N 
ATOM     18  C2    C A   1       3.824  -3.521  24.699  0.00  0.00    +0.352 A 
ATOM     19  O2    C A   1       3.389  -2.565  25.337  0.00  0.00    -0.244 OA
ATOM     20  N3    C A   1       4.753  -3.321  23.705  0.00  0.00    -0.178 NA
ENDBRANCH   6  17
BRANCH   8  21
ATOM     21  C5*   C A   1       1.560  -7.217  28.456  0.00  0.00    +0.190 C 
BRANCH  21  22
ATOM     22  O5*   C A   1       1.785  -8.476  29.089  0.00  0.00    -0.392 OA
ATOM     23  H5*   C A   1       1.249  -8.522  29.899  0.00  0.00    +0.210 HD
ENDBRANCH  21  22
ENDBRANCH   8  21
ENDBRANCH   5   9
ENDBRANCH   1   5
BRANCH   1  24
ATOM     24  O5*   A A   2       7.359  -5.736  27.870  0.00  0.00    -0.284 OA
BRANCH  24  25
ATOM     25  C5*   A A   2       7.384  -4.514  27.143  0.00  0.00    +0.206 C 
BRANCH  25  26
ATOM     26  C4*   A A   2       8.726  -4.237  26.437  0.00  0.00    +0.175 C 
ATOM     27  C3*   A A   2       9.106  -5.219  25.330  0.00  0.00    +0.150 C 
ATOM     28  C2*   A A   2       8.861  -4.490  24.023  0.00  0.00    +0.088 C 
ATOM     29  C1*   A A   2       8.316  -3.131  24.437  0.00  0.00    +0.225 C 
ATOM     30  O4*   A A   2       8.706  -2.939  25.812  0.00  0.00    -0.348 OA
BRANCH  29  31
ATOM     31  N9    A A   2       8.791  -2.020  23.633  0.00  0.00    -0.288 N 
ATOM     32  C4    A A   2       8.082  -0.876  23.380  0.00  0.00    +0.167 A 
ATOM     33  N3    A A   2       6.823  -0.591  23.754  0.00  0.00    -0.216 NA
ATOM     34  C2    A A   2       6.471   0.644  23.339  0.00  0.00    +0.225 A 
ATOM     35  N1    A A   2       7.207   1.543  22.650  0.00  0.00    -0.219 NA
ATOM     36  C6    A A   2       8.464   1.200  22.286  0.00  0.00    +0.147 A 
ATOM     37  N6    A A   2       9.216   2.132  21.582  0.00  0.00    -0.341 N 
ATOM     38  H61   A A   2      10.216   1.988  21.664  0.00  0.00    +0.144 HD
ATOM     39  H62   A A   2       8.865   3.072  21.706  0.00  0.00    +0.144 HD
ATOM     40  C5    A A   2       8.948  -0.066  22.663  0.00  0.00    +0.147 A 
ATOM     41  N7    A A   2      10.164  -0.693  22.480  0.00  0.00    -0.231 NA
ATOM     42  C8    A A   2      10.031  -1.863  23.075  0.00  0.00    +0.203 A 
ENDBRANCH  29  31
BRANCH  27  43
ATOM     43  O3*   A A   2      10.504  -5.534  25.421  0.00  0.00    -0.389 OA
ATOM     44  H3*   A A   2      11.013  -4.701  25.419  0.00  0.00    +0.210 HD
ENDBRANCH  27  43
ENDBRANCH  25  26
ENDBRANCH  24  25
ENDBRANCH   1  24
TORSDOF 11
ENDMDL
MODEL 6
REMARK VINA RESULT:      -7.2      3.473      6.090
REMARK  Name = 
REMARK  11 active torsions:
REMARK  status: ('A' for Active; 'I' for Inactive)
REMARK    1  A    between atoms: N1_6  and  C1*_9
REMARK    2  A    between atoms: C3*_12  and  O3*_14
REMARK    3  A    between atoms: O3*_14  and  P_15
REMARK    4  A    between atoms: P_15  and  O1P_16
REMARK    5  A    between atoms: P_15  and  O5*_18
REMARK    6  A    between atoms: O5*_18  and  C5*_19
REMARK    7  A    between atoms: C5*_19  and  C4*_20
REMARK    8  A    between atoms: C1*_23  and  N9_29
REMARK    9  A    between atoms: C3*_26  and  O3*_28
REMARK   10  A    between atoms: C4*_39  and  C5*_41
REMARK   11  A    between atoms: C5*_41  and  O5*_42
REMARK                            x       y       z     vdW  Elec       q    Type
REMARK                         _______ _______ _______ _____ _____    ______ ____
ROOT
ATOM      1  P     A A   2       9.743  -0.095  23.568  0.00  0.00    +0.475 P 
ATOM      2  O2P   A A   2      10.821   0.300  24.523  0.00  0.00    -0.227 OA
ENDROOT
BRANCH   1   3
ATOM      3  O1P   A A   2      10.111   0.338  22.070  0.00  0.00    -0.302 OA
ATOM      4  H1P   A A   2       9.939   1.288  21.932  0.00  0.00    +0.222 HD
ENDBRANCH   1   3
BRANCH   1   5
ATOM      5  O3*   C A   1       8.325   0.598  23.832  0.00  0.00    -0.281 OA
BRANCH   5   9
ATOM      6  C1*   C A   1       6.411   2.361  25.305  0.00  0.00    +0.226 C 
ATOM      7  O4*   C A   1       5.439   1.396  24.831  0.00  0.00    -0.348 OA
ATOM      8  C4*   C A   1       6.070   0.100  24.709  0.00  0.00    +0.175 C 
ATOM      9  C3*   C A   1       7.558   0.292  24.991  0.00  0.00    +0.165 C 
ATOM     10  C2*   C A   1       7.562   1.522  25.866  0.00  0.00    +0.089 C 
BRANCH   6  17
ATOM     11  N4    C A   1       7.587   6.183  21.487  0.00  0.00    -0.343 N 
ATOM     12  H41   C A   1       7.623   5.904  20.517  0.00  0.00    +0.144 HD
ATOM     13  H42   C A   1       8.365   6.766  21.779  0.00  0.00    +0.144 HD
ATOM     14  C4    C A   1       7.254   5.240  22.416  0.00  0.00    +0.123 A 
ATOM     15  C5    C A   1       6.395   4.108  22.036  0.00  0.00    +0.061 A 
ATOM     16  C6    C A   1       6.203   3.183  22.977  0.00  0.00    +0.096 A 
ATOM     17  N1    C A   1       6.748   3.304  24.239  0.00  0.00    -0.273 N 
ATOM     18  C2    C A   1       7.407   4.493  24.600  0.00  0.00    +0.352 A 
ATOM     19  O2    C A   1       7.689   4.733  25.771  0.00  0.00    -0.244 OA
ATOM     20  N3    C A   1       7.727   5.397  23.614  0.00  0.00    -0.178 NA
ENDBRANCH   6  17
BRANCH   8  21
ATOM     21  C5*   C A   1       5.415  -0.849  25.731  0.00  0.00    +0.190 C 
BRANCH  21  22
ATOM     22  O5*   C A   1       4.759  -1.956  25.114  0.00  0.00    -0.392 OA
ATOM     23  H5*   C A   1       4.844  -1.875  24.149  0.00  0.00    +0.210 HD
ENDBRANCH  21  22
ENDBRANCH   8  21
ENDBRANCH   5   9
ENDBRANCH   1   5
BRANCH   1  24
ATOM     24  O5*   A A   2       9.435  -1.672  23.437  0.00  0.00    -0.284 OA
BRANCH  24  25
ATOM     25  C5*   A A   2       8.664  -2.084  22.314  0.00  0.00    +0.206 C 
BRANCH  25  26
ATOM     26  C4*   A A   2       7.364  -2.821  22.689  0.00  0.00    +0.175 C 
ATOM     27  C3*   A A   2       7.131  -4.155  21.982  0.00  0.00    +0.150 C 
ATOM     28  C2*   A A   2       7.426  -5.231  23.009  0.00  0.00    +0.088 C 
ATOM     29  C1*   A A   2       7.849  -4.466  24.255  0.00  0.00    +0.225 C 
ATOM     30  O4*   A A   2       7.346  -3.124  24.098  0.00  0.00    -0.348 OA
BRANCH  29  31
ATOM     31  N9    A A   2       7.364  -5.028  25.502  0.00  0.00    -0.288 N 
ATOM     32  C4    A A   2       6.119  -5.567  25.686  0.00  0.00    +0.167 A 
ATOM     33  N3    A A   2       5.109  -5.622  24.801  0.00  0.00    -0.216 NA
ATOM     34  C2    A A   2       4.041  -6.249  25.336  0.00  0.00    +0.225 A 
ATOM     35  N1    A A   2       3.909  -6.787  26.568  0.00  0.00    -0.219 NA
ATOM     36  C6    A A   2       4.952  -6.692  27.425  0.00  0.00    +0.147 A 
ATOM     37  N6    A A   2       4.810  -7.252  28.689  0.00  0.00    -0.341 N 
ATOM     38  H61   A A   2       5.694  -7.483  29.129  0.00  0.00    +0.144 HD
ATOM     39  H62   A A   2       4.077  -7.949  28.714  0.00  0.00    +0.144 HD
ATOM     40  C5    A A   2       6.127  -6.059  26.982  0.00  0.00    +0.147 A 
ATOM     41  N7    A A   2       7.348  -5.831  27.583  0.00  0.00    -0.231 NA
ATOM     42  C8    A A   2       8.064  -5.210  26.665  0.00  0.00    +0.203 A 
ENDBRANCH  29  31
BRANCH  27  43
ATOM     43  O3*   A A   2       5.754  -4.263  21.591  0.00  0.00    -0.389 OA
ATOM     44  H3*   A A   2       5.713  -4.413  20.627  0.00  0.00    +0.210 HD
ENDBRANCH  27  43
ENDBRANCH  25  26
ENDBRANCH  24  25
ENDBRANCH   1  24
TORSDOF 11
ENDMDL
MODEL 7
REMARK VINA RESULT:      -7.1      3.370      7.485
REMARK  Name = 
REMARK  11 active torsions:
REMARK  status: ('A' for Active; 'I' for Inactive)
REMARK    1  A    between atoms: N1_6  and  C1*_9
REMARK    2  A    between atoms: C3*_12  and  O3*_14
REMARK    3  A    between atoms: O3*_14  and  P_15
REMARK    4  A    between atoms: P_15  and  O1P_16
REMARK    5  A    between atoms: P_15  and  O5*_18
REMARK    6  A    between atoms: O5*_18  and  C5*_19
REMARK    7  A    between atoms: C5*_19  and  C4*_20
REMARK    8  A    between atoms: C1*_23  and  N9_29
REMARK    9  A    between atoms: C3*_26  and  O3*_28
REMARK   10  A    between atoms: C4*_39  and  C5*_41
REMARK   11  A    between atoms: C5*_41  and  O5*_42
REMARK                            x       y       z     vdW  Elec       q    Type
REMARK                         _______ _______ _______ _____ _____    ______ ____
ROOT
ATOM      1  P     A A   2       5.961  -6.069  28.425  0.00  0.00    +0.475 P 
ATOM      2  O2P   A A   2       5.670  -7.520  28.613  0.00  0.00    -0.227 OA
ENDROOT
BRANCH   1   3
ATOM      3  O1P   A A   2       5.919  -5.285  29.822  0.00  0.00    -0.302 OA
ATOM      4  H1P   A A   2       5.604  -4.371  29.697  0.00  0.00    +0.222 HD
ENDBRANCH   1   3
BRANCH   1   5
ATOM      5  O3*   C A   1       4.905  -5.285  27.513  0.00  0.00    -0.281 OA
BRANCH   5   9
ATOM      6  C1*   C A   1       3.060  -4.093  25.483  0.00  0.00    +0.226 C 
ATOM      7  O4*   C A   1       4.097  -4.511  24.561  0.00  0.00    -0.348 OA
ATOM      8  C4*   C A   1       4.755  -5.690  25.080  0.00  0.00    +0.175 C 
ATOM      9  C3*   C A   1       4.190  -5.947  26.475  0.00  0.00    +0.165 C 
ATOM     10  C2*   C A   1       2.827  -5.302  26.393  0.00  0.00    +0.089 C 
BRANCH   6  17
ATOM     11  N4    C A   1       4.214   0.770  27.844  0.00  0.00    -0.343 N 
ATOM     12  H41   C A   1       5.172   0.974  28.091  0.00  0.00    +0.144 HD
ATOM     13  H42   C A   1       3.544   0.993  28.574  0.00  0.00    +0.144 HD
ATOM     14  C4    C A   1       3.948  -0.416  27.224  0.00  0.00    +0.123 A 
ATOM     15  C5    C A   1       4.979  -1.056  26.393  0.00  0.00    +0.061 A 
ATOM     16  C6    C A   1       4.670  -2.258  25.907  0.00  0.00    +0.096 A 
ATOM     17  N1    C A   1       3.443  -2.844  26.141  0.00  0.00    -0.273 N 
ATOM     18  C2    C A   1       2.433  -2.108  26.787  0.00  0.00    +0.352 A 
ATOM     19  O2    C A   1       1.269  -2.499  26.798  0.00  0.00    -0.244 OA
ATOM     20  N3    C A   1       2.770  -0.927  27.406  0.00  0.00    -0.178 NA
ENDBRANCH   6  17
BRANCH   8  21
ATOM     21  C5*   C A   1       4.462  -6.862  24.125  0.00  0.00    +0.190 C 
BRANCH  21  22
ATOM     22  O5*   C A   1       4.087  -6.428  22.818  0.00  0.00    -0.392 OA
ATOM     23  H5*   C A   1       3.573  -5.606  22.893  0.00  0.00    +0.210 HD
ENDBRANCH  21  22
ENDBRANCH   8  21
ENDBRANCH   5   9
ENDBRANCH   1   5
BRANCH   1  24
ATOM     24  O5*   A A   2       7.410  -5.692  27.828  0.00  0.00    -0.284 OA
BRANCH  24  25
ATOM     25  C5*   A A   2       7.498  -4.495  27.063  0.00  0.00    +0.206 C 
BRANCH  25  26
ATOM     26  C4*   A A   2       8.675  -4.478  26.069  0.00  0.00    +0.175 C 
ATOM     27  C3*   A A   2       8.495  -5.330  24.814  0.00  0.00    +0.150 C 
ATOM     28  C2*   A A   2       8.204  -4.359  23.686  0.00  0.00    +0.088 C 
ATOM     29  C1*   A A   2       8.195  -2.990  24.351  0.00  0.00    +0.225 C 
ATOM     30  O4*   A A   2       8.912  -3.138  25.593  0.00  0.00    -0.348 OA
BRANCH  29  31
ATOM     31  N9    A A   2       8.797  -1.932  23.561  0.00  0.00    -0.288 N 
ATOM     32  C4    A A   2       8.184  -0.751  23.238  0.00  0.00    +0.167 A 
ATOM     33  N3    A A   2       6.924  -0.375  23.519  0.00  0.00    -0.216 NA
ATOM     34  C2    A A   2       6.684   0.870  23.057  0.00  0.00    +0.225 A 
ATOM     35  N1    A A   2       7.523   1.702  22.403  0.00  0.00    -0.219 NA
ATOM     36  C6    A A   2       8.776   1.270  22.133  0.00  0.00    +0.147 A 
ATOM     37  N6    A A   2       9.634   2.134  21.465  0.00  0.00    -0.341 N 
ATOM     38  H61   A A   2      10.615   1.927  21.619  0.00  0.00    +0.144 HD
ATOM     39  H62   A A   2       9.340   3.098  21.546  0.00  0.00    +0.144 HD
ATOM     40  C5    A A   2       9.148  -0.016  22.567  0.00  0.00    +0.147 A 
ATOM     41  N7    A A   2      10.329  -0.725  22.480  0.00  0.00    -0.231 NA
ATOM     42  C8    A A   2      10.079  -1.869  23.087  0.00  0.00    +0.203 A 
ENDBRANCH  29  31
BRANCH  27  43
ATOM     43  O3*   A A   2       9.719  -6.020  24.516  0.00  0.00    -0.389 OA
ATOM     44  H3*   A A   2      10.058  -5.700  23.659  0.00  0.00    +0.210 HD
ENDBRANCH  27  43
ENDBRANCH  25  26
ENDBRANCH  24  25
ENDBRANCH   1  24
TORSDOF 11
ENDMDL
MODEL 8
REMARK VINA RESULT:      -7.1      3.715      7.261
REMARK  Name = 
REMARK  11 active torsions:
REMARK  status: ('A' for Active; 'I' for Inactive)
REMARK    1  A    between atoms: N1_6  and  C1*_9
REMARK    2  A    between atoms: C3*_12  and  O3*_14
REMARK    3  A    between atoms: O3*_14  and  P_15
REMARK    4  A    between atoms: P_15  and  O1P_16
REMARK    5  A    between atoms: P_15  and  O5*_18
REMARK    6  A    between atoms: O5*_18  and  C5*_19
REMARK    7  A    between atoms: C5*_19  and  C4*_20
REMARK    8  A    between atoms: C1*_23  and  N9_29
REMARK    9  A    between atoms: C3*_26  and  O3*_28
REMARK   10  A    between atoms: C4*_39  and  C5*_41
REMARK   11  A    between atoms: C5*_41  and  O5*_42
REMARK                            x       y       z     vdW  Elec       q    Type
REMARK                         _______ _______ _______ _____ _____    ______ ____
ROOT
ATOM      1  P     A A   2       6.426  -5.499  26.833  0.00  0.00    +0.475 P 
ATOM      2  O2P   A A   2       5.399  -6.574  26.968  0.00  0.00    -0.227 OA
ENDROOT
BRANCH   1   3
ATOM      3  O1P   A A   2       7.724  -5.825  27.714  0.00  0.00    -0.302 OA
ATOM      4  H1P   A A   2       7.886  -6.786  27.749  0.00  0.00    +0.222 HD
ENDBRANCH   1   3
BRANCH   1   5
ATOM      5  O3*   C A   1       5.961  -4.058  27.351  0.00  0.00    -0.281 OA
BRANCH   5   9
ATOM      6  C1*   C A   1       4.791  -1.354  26.836  0.00  0.00    +0.226 C 
ATOM      7  O4*   C A   1       4.255  -2.010  25.659  0.00  0.00    -0.348 OA
ATOM      8  C4*   C A   1       4.033  -3.409  25.949  0.00  0.00    +0.175 C 
ATOM      9  C3*   C A   1       4.590  -3.678  27.345  0.00  0.00    +0.165 C 
ATOM     10  C2*   C A   1       4.502  -2.316  27.992  0.00  0.00    +0.089 C 
BRANCH   6  17
ATOM     11  N4    C A   1       9.981   0.216  25.758  0.00  0.00    -0.343 N 
ATOM     12  H41   C A   1      10.740  -0.376  26.065  0.00  0.00    +0.144 HD
ATOM     13  H42   C A   1      10.117   1.201  25.963  0.00  0.00    +0.144 HD
ATOM     14  C4    C A   1       8.703  -0.203  25.993  0.00  0.00    +0.123 A 
ATOM     15  C5    C A   1       8.408  -1.641  26.078  0.00  0.00    +0.061 A 
ATOM     16  C6    C A   1       7.155  -1.958  26.409  0.00  0.00    +0.096 A 
ATOM     17  N1    C A   1       6.192  -0.993  26.619  0.00  0.00    -0.273 N 
ATOM     18  C2    C A   1       6.486   0.354  26.345  0.00  0.00    +0.352 A 
ATOM     19  O2    C A   1       5.597   1.201  26.287  0.00  0.00    -0.244 OA
ATOM     20  N3    C A   1       7.796   0.714  26.131  0.00  0.00    -0.178 NA
ENDBRANCH   6  17
BRANCH   8  21
ATOM     21  C5*   C A   1       2.517  -3.677  25.881  0.00  0.00    +0.190 C 
BRANCH  21  22
ATOM     22  O5*   C A   1       1.761  -2.501  25.595  0.00  0.00    -0.392 OA
ATOM     23  H5*   C A   1       2.043  -2.147  24.734  0.00  0.00    +0.210 HD
ENDBRANCH  21  22
ENDBRANCH   8  21
ENDBRANCH   5   9
ENDBRANCH   1   5
BRANCH   1  24
ATOM     24  O5*   A A   2       7.028  -5.253  25.357  0.00  0.00    -0.284 OA
BRANCH  24  25
ATOM     25  C5*   A A   2       6.179  -5.562  24.258  0.00  0.00    +0.206 C 
BRANCH  25  26
ATOM     26  C4*   A A   2       6.755  -5.146  22.891  0.00  0.00    +0.175 C 
ATOM     27  C3*   A A   2       5.743  -4.608  21.881  0.00  0.00    +0.150 C 
ATOM     28  C2*   A A   2       5.947  -3.106  21.842  0.00  0.00    +0.088 C 
ATOM     29  C1*   A A   2       7.047  -2.842  22.860  0.00  0.00    +0.225 C 
ATOM     30  O4*   A A   2       7.730  -4.097  23.055  0.00  0.00    -0.348 OA
BRANCH  29  31
ATOM     31  N9    A A   2       8.001  -1.821  22.467  0.00  0.00    -0.288 N 
ATOM     32  C4    A A   2       7.768  -0.472  22.514  0.00  0.00    +0.167 A 
ATOM     33  N3    A A   2       6.630   0.153  22.857  0.00  0.00    -0.216 NA
ATOM     34  C2    A A   2       6.788   1.492  22.806  0.00  0.00    +0.225 A 
ATOM     35  N1    A A   2       7.891   2.198  22.478  0.00  0.00    -0.219 NA
ATOM     36  C6    A A   2       9.007   1.519  22.127  0.00  0.00    +0.147 A 
ATOM     37  N6    A A   2      10.140   2.254  21.796  0.00  0.00    -0.341 N 
ATOM     38  H61   A A   2      11.004   1.735  21.908  0.00  0.00    +0.144 HD
ATOM     39  H62   A A   2      10.104   3.193  22.168  0.00  0.00    +0.144 HD
ATOM     40  C5    A A   2       8.968   0.113  22.143  0.00  0.00    +0.147 A 
ATOM     41  N7    A A   2       9.919  -0.850  21.875  0.00  0.00    -0.231 NA
ATOM     42  C8    A A   2       9.302  -1.998  22.079  0.00  0.00    +0.203 A 
ENDBRANCH  29  31
BRANCH  27  43
ATOM     43  O3*   A A   2       6.029  -5.141  20.578  0.00  0.00    -0.389 OA
ATOM     44  H3*   A A   2       5.356  -5.814  20.361  0.00  0.00    +0.210 HD
ENDBRANCH  27  43
ENDBRANCH  25  26
ENDBRANCH  24  25
ENDBRANCH   1  24
TORSDOF 11
ENDMDL
MODEL 9
REMARK VINA RESULT:      -7.1      2.320      4.136
REMARK  Name = 
REMARK  11 active torsions:
REMARK  status: ('A' for Active; 'I' for Inactive)
REMARK    1  A    between atoms: N1_6  and  C1*_9
REMARK    2  A    between atoms: C3*_12  and  O3*_14
REMARK    3  A    between atoms: O3*_14  and  P_15
REMARK    4  A    between atoms: P_15  and  O1P_16
REMARK    5  A    between atoms: P_15  and  O5*_18
REMARK    6  A    between atoms: O5*_18  and  C5*_19
REMARK    7  A    between atoms: C5*_19  and  C4*_20
REMARK    8  A    between atoms: C1*_23  and  N9_29
REMARK    9  A    between atoms: C3*_26  and  O3*_28
REMARK   10  A    between atoms: C4*_39  and  C5*_41
REMARK   11  A    between atoms: C5*_41  and  O5*_42
REMARK                            x       y       z     vdW  Elec       q    Type
REMARK                         _______ _______ _______ _____ _____    ______ ____
ROOT
ATOM      1  P     A A   2       9.498  -1.893  22.775  0.00  0.00    +0.475 P 
ATOM      2  O2P   A A   2      10.514  -1.490  21.758  0.00  0.00    -0.227 OA
ENDROOT
BRANCH   1   3
ATOM      3  O1P   A A   2       8.257  -2.639  22.089  0.00  0.00    -0.302 OA
ATOM      4  H1P   A A   2       8.464  -3.578  21.927  0.00  0.00    +0.222 HD
ENDBRANCH   1   3
BRANCH   1   5
ATOM      5  O3*   C A   1       8.825  -0.678  23.570  0.00  0.00    -0.281 OA
BRANCH   5   9
ATOM      6  C1*   C A   1       7.350   1.766  24.462  0.00  0.00    +0.226 C 
ATOM      7  O4*   C A   1       8.633   2.107  25.043  0.00  0.00    -0.348 OA
ATOM      8  C4*   C A   1       9.691   1.537  24.239  0.00  0.00    +0.175 C 
ATOM      9  C3*   C A   1       9.032   0.672  23.168  0.00  0.00    +0.165 C 
ATOM     10  C2*   C A   1       7.670   1.311  23.035  0.00  0.00    +0.089 C 
BRANCH   6  17
ATOM     11  N4    C A   1       4.476  -1.610  27.763  0.00  0.00    -0.343 N 
ATOM     12  H41   C A   1       4.929  -2.439  28.122  0.00  0.00    +0.144 HD
ATOM     13  H42   C A   1       3.543  -1.775  27.398  0.00  0.00    +0.144 HD
ATOM     14  C4    C A   1       5.208  -0.762  26.984  0.00  0.00    +0.123 A 
ATOM     15  C5    C A   1       6.666  -0.676  27.164  0.00  0.00    +0.061 A 
ATOM     16  C6    C A   1       7.313   0.100  26.295  0.00  0.00    +0.096 A 
ATOM     17  N1    C A   1       6.649   0.805  25.313  0.00  0.00    -0.273 N 
ATOM     18  C2    C A   1       5.242   0.828  25.304  0.00  0.00    +0.352 A 
ATOM     19  O2    C A   1       4.623   1.627  24.607  0.00  0.00    -0.244 OA
ATOM     20  N3    C A   1       4.563  -0.062  26.103  0.00  0.00    -0.178 NA
ENDBRANCH   6  17
BRANCH   8  21
ATOM     21  C5*   C A   1      10.498   2.694  23.618  0.00  0.00    +0.190 C 
BRANCH  21  22
ATOM     22  O5*   C A   1      10.550   2.627  22.194  0.00  0.00    -0.392 OA
ATOM     23  H5*   C A   1       9.954   1.922  21.889  0.00  0.00    +0.210 HD
ENDBRANCH  21  22
ENDBRANCH   8  21
ENDBRANCH   5   9
ENDBRANCH   1   5
BRANCH   1  24
ATOM     24  O5*   A A   2       9.981  -2.934  23.907  0.00  0.00    -0.284 OA
BRANCH  24  25
ATOM     25  C5*   A A   2       9.179  -3.026  25.079  0.00  0.00    +0.206 C 
BRANCH  25  26
ATOM     26  C4*   A A   2       8.462  -4.380  25.238  0.00  0.00    +0.175 C 
ATOM     27  C3*   A A   2       7.814  -4.631  26.599  0.00  0.00    +0.150 C 
ATOM     28  C2*   A A   2       6.322  -4.454  26.391  0.00  0.00    +0.088 C 
ATOM     29  C1*   A A   2       6.181  -4.073  24.924  0.00  0.00    +0.225 C 
ATOM     30  O4*   A A   2       7.396  -4.502  24.276  0.00  0.00    -0.348 OA
BRANCH  29  31
ATOM     31  N9    A A   2       5.036  -4.662  24.256  0.00  0.00    -0.288 N 
ATOM     32  C4    A A   2       3.729  -4.347  24.517  0.00  0.00    +0.167 A 
ATOM     33  N3    A A   2       3.259  -3.509  25.456  0.00  0.00    -0.216 NA
ATOM     34  C2    A A   2       1.913  -3.435  25.398  0.00  0.00    +0.225 A 
ATOM     35  N1    A A   2       1.070  -4.065  24.551  0.00  0.00    -0.219 NA
ATOM     36  C6    A A   2       1.595  -4.909  23.632  0.00  0.00    +0.147 A 
ATOM     37  N6    A A   2       0.722  -5.549  22.761  0.00  0.00    -0.341 N 
ATOM     38  H61   A A   2       1.162  -5.850  21.899  0.00  0.00    +0.144 HD
ATOM     39  H62   A A   2      -0.165  -5.068  22.693  0.00  0.00    +0.144 HD
ATOM     40  C5    A A   2       2.992  -5.070  23.592  0.00  0.00    +0.147 A 
ATOM     41  N7    A A   2       3.824  -5.812  22.778  0.00  0.00    -0.231 NA
ATOM     42  C8    A A   2       5.042  -5.542  23.207  0.00  0.00    +0.203 A 
ENDBRANCH  29  31
BRANCH  27  43
ATOM     43  O3*   A A   2       8.059  -5.985  27.011  0.00  0.00    -0.389 OA
ATOM     44  H3*   A A   2       8.486  -6.463  26.275  0.00  0.00    +0.210 HD
ENDBRANCH  27  43
ENDBRANCH  25  26
ENDBRANCH  24  25
ENDBRANCH   1  24
TORSDOF 11
ENDMDL
