MODEL 1
REMARK VINA RESULT:      -7.1      0.000      0.000
REMARK  Name = 
REMARK  8 active torsions:
REMARK  status: ('A' for Active; 'I' for Inactive)
REMARK    1  A    between atoms: C_1  and  N_2
REMARK    2  A    between atoms: N_2  and  C_3
REMARK    3  A    between atoms: C_3  and  C_4
REMARK    4  A    between atoms: C_4  and  O_5
REMARK    5  A    between atoms: O_5  and  C_6
REMARK    6  A    between atoms: C_9  and  C_12
REMARK    7  A    between atoms: C_15  and  C_18
REMARK    8  A    between atoms: N_22  and  O_23
REMARK                            x       y       z     vdW  Elec       q    Type
REMARK                         _______ _______ _______ _____ _____    ______ ____
ROOT
ATOM      1  C   UNL     1       7.654  -4.457  23.385  0.00  0.00    +0.121 A 
ATOM      2  C   UNL     1       7.345  -3.554  22.367  0.00  0.00    +0.046 A 
ATOM      3  C   UNL     1       8.054  -2.348  22.236  0.00  0.00    +0.012 A 
ATOM      4  C   UNL     1       9.086  -2.004  23.128  0.00  0.00    -0.018 A 
ATOM      5  C   UNL     1       9.436  -2.972  24.087  0.00  0.00    +0.012 A 
ATOM      6  C   UNL     1       8.742  -4.179  24.210  0.00  0.00    +0.046 A 
ENDROOT
BRANCH   4   7
ATOM      7  C   UNL     1       9.709  -0.655  23.156  0.00  0.00    -0.018 A 
ATOM      8  C   UNL     1       9.638   0.203  22.042  0.00  0.00    +0.010 A 
ATOM      9  C   UNL     1      10.060   1.538  22.113  0.00  0.00    +0.019 A 
ATOM     10  C   UNL     1      10.567   2.051  23.306  0.00  0.00    +0.052 A 
ATOM     11  C   UNL     1      10.695   1.210  24.412  0.00  0.00    +0.019 A 
ATOM     12  C   UNL     1      10.286  -0.128  24.329  0.00  0.00    +0.010 A 
BRANCH  10  13
ATOM     13  C   UNL     1      10.921   3.436  23.405  0.00  0.00    +0.099 C 
ATOM     14  N   UNL     1      11.205   4.561  23.469  0.00  0.00    -0.191 NA
ENDBRANCH  10  13
ENDBRANCH   4   7
BRANCH   1  15
ATOM     15  O   UNL     1       6.839  -5.553  23.498  0.00  0.00    -0.490 OA
BRANCH  15  16
ATOM     16  C   UNL     1       5.432  -5.282  23.455  0.00  0.00    +0.248 C 
BRANCH  16  17
ATOM     17  C   UNL     1       4.961  -4.744  24.810  0.00  0.00    +0.150 C 
BRANCH  17  19
ATOM     18  C   UNL     1       3.365  -6.419  25.770  0.00  0.00    +0.133 C 
ATOM     19  N   UNL     1       4.692  -5.820  25.773  0.00  0.00    -0.284 N 
ATOM     20  C   UNL     1       5.576  -6.273  26.736  0.00  0.00    +0.325 C 
ATOM     21  N   UNL     1       6.832  -5.718  26.722  0.00  0.00    -0.181 N 
ATOM     22  H   UNL     1       6.964  -4.756  26.442  0.00  0.00    +0.184 HD
ATOM     23  O   UNL     1       5.288  -7.142  27.562  0.00  0.00    -0.251 OA
BRANCH  21  24
ATOM     24  O   UNL     1       7.661  -6.127  27.801  0.00  0.00    -0.294 OA
ATOM     25  H   UNL     1       8.514  -6.313  27.347  0.00  0.00    +0.241 HD
ENDBRANCH  21  24
ENDBRANCH  17  19
ENDBRANCH  16  17
ENDBRANCH  15  16
ENDBRANCH   1  15
TORSDOF 7
ENDMDL
MODEL 2
REMARK VINA RESULT:      -6.8      1.612      2.287
REMARK  Name = 
REMARK  8 active torsions:
REMARK  status: ('A' for Active; 'I' for Inactive)
REMARK    1  A    between atoms: C_1  and  N_2
REMARK    2  A    between atoms: N_2  and  C_3
REMARK    3  A    between atoms: C_3  and  C_4
REMARK    4  A    between atoms: C_4  and  O_5
REMARK    5  A    between atoms: O_5  and  C_6
REMARK    6  A    between atoms: C_9  and  C_12
REMARK    7  A    between atoms: C_15  and  C_18
REMARK    8  A    between atoms: N_22  and  O_23
REMARK                            x       y       z     vdW  Elec       q    Type
REMARK                         _______ _______ _______ _____ _____    ______ ____
ROOT
ATOM      1  C   UNL     1       6.550  -4.004  23.316  0.00  0.00    +0.121 A 
ATOM      2  C   UNL     1       5.879  -2.878  23.793  0.00  0.00    +0.046 A 
ATOM      3  C   UNL     1       6.435  -1.596  23.649  0.00  0.00    +0.012 A 
ATOM      4  C   UNL     1       7.686  -1.404  23.035  0.00  0.00    -0.018 A 
ATOM      5  C   UNL     1       8.296  -2.545  22.484  0.00  0.00    +0.012 A 
ATOM      6  C   UNL     1       7.738  -3.820  22.612  0.00  0.00    +0.046 A 
ENDROOT
BRANCH   4   7
ATOM      7  C   UNL     1       8.402  -0.101  23.057  0.00  0.00    -0.018 A 
ATOM      8  C   UNL     1       8.533   0.638  24.248  0.00  0.00    +0.010 A 
ATOM      9  C   UNL     1       9.352   1.772  24.324  0.00  0.00    +0.019 A 
ATOM     10  C   UNL     1      10.067   2.198  23.205  0.00  0.00    +0.052 A 
ATOM     11  C   UNL     1       9.918   1.514  21.998  0.00  0.00    +0.019 A 
ATOM     12  C   UNL     1       9.084   0.390  21.926  0.00  0.00    +0.010 A 
BRANCH  10  13
ATOM     13  C   UNL     1      10.970   3.306  23.302  0.00  0.00    +0.099 C 
ATOM     14  N   UNL     1      11.689   4.216  23.376  0.00  0.00    -0.191 NA
ENDBRANCH  10  13
ENDBRANCH   4   7
BRANCH   1  15
ATOM     15  O   UNL     1       5.981  -5.219  23.597  0.00  0.00    -0.490 OA
BRANCH  15  16
ATOM     16  C   UNL     1       5.075  -5.234  24.708  0.00  0.00    +0.248 C 
BRANCH  16  17
ATOM     17  C   UNL     1       5.737  -5.908  25.914  0.00  0.00    +0.150 C 
BRANCH  17  19
ATOM     18  C   UNL     1       6.048  -3.984  27.489  0.00  0.00    +0.133 C 
ATOM     19  N   UNL     1       6.642  -4.999  26.630  0.00  0.00    -0.284 N 
ATOM     20  C   UNL     1       8.020  -4.979  26.508  0.00  0.00    +0.325 C 
ATOM     21  N   UNL     1       8.577  -5.950  25.712  0.00  0.00    -0.181 N 
ATOM     22  H   UNL     1       8.083  -6.293  24.899  0.00  0.00    +0.184 HD
ATOM     23  O   UNL     1       8.738  -4.161  27.086  0.00  0.00    -0.251 OA
BRANCH  21  24
ATOM     24  O   UNL     1       9.979  -5.814  25.523  0.00  0.00    -0.294 OA
ATOM     25  H   UNL     1      10.165  -6.511  24.854  0.00  0.00    +0.241 HD
ENDBRANCH  21  24
ENDBRANCH  17  19
ENDBRANCH  16  17
ENDBRANCH  15  16
ENDBRANCH   1  15
TORSDOF 7
ENDMDL
MODEL 3
REMARK VINA RESULT:      -6.7      4.648      9.608
REMARK  Name = 
REMARK  8 active torsions:
REMARK  status: ('A' for Active; 'I' for Inactive)
REMARK    1  A    between atoms: C_1  and  N_2
REMARK    2  A    between atoms: N_2  and  C_3
REMARK    3  A    between atoms: C_3  and  C_4
REMARK    4  A    between atoms: C_4  and  O_5
REMARK    5  A    between atoms: O_5  and  C_6
REMARK    6  A    between atoms: C_9  and  C_12
REMARK    7  A    between atoms: C_15  and  C_18
REMARK    8  A    between atoms: N_22  and  O_23
REMARK                            x       y       z     vdW  Elec       q    Type
REMARK                         _______ _______ _______ _____ _____    ______ ____
ROOT
ATOM      1  C   UNL     1      10.026   1.802  23.166  0.00  0.00    +0.121 A 
ATOM      2  C   UNL     1       9.810   1.125  24.366  0.00  0.00    +0.046 A 
ATOM      3  C   UNL     1       9.293  -0.182  24.370  0.00  0.00    +0.012 A 
ATOM      4  C   UNL     1       8.965  -0.844  23.173  0.00  0.00    -0.018 A 
ATOM      5  C   UNL     1       9.277  -0.173  21.978  0.00  0.00    +0.012 A 
ATOM      6  C   UNL     1       9.806   1.122  21.971  0.00  0.00    +0.046 A 
ENDROOT
BRANCH   4   7
ATOM      7  C   UNL     1       8.219  -2.130  23.143  0.00  0.00    -0.018 A 
ATOM      8  C   UNL     1       8.707  -3.270  23.810  0.00  0.00    +0.010 A 
ATOM      9  C   UNL     1       7.935  -4.432  23.942  0.00  0.00    +0.019 A 
ATOM     10  C   UNL     1       6.648  -4.484  23.408  0.00  0.00    +0.052 A 
ATOM     11  C   UNL     1       6.158  -3.387  22.699  0.00  0.00    +0.019 A 
ATOM     12  C   UNL     1       6.942  -2.234  22.558  0.00  0.00    +0.010 A 
BRANCH  10  13
ATOM     13  C   UNL     1       5.825  -5.639  23.613  0.00  0.00    +0.099 C 
ATOM     14  N   UNL     1       5.154  -6.576  23.764  0.00  0.00    -0.191 NA
ENDBRANCH  10  13
ENDBRANCH   4   7
BRANCH   1  15
ATOM     15  O   UNL     1      10.431   3.108  23.266  0.00  0.00    -0.490 OA
BRANCH  15  16
ATOM     16  C   UNL     1       9.461   4.015  23.806  0.00  0.00    +0.248 C 
BRANCH  16  17
ATOM     17  C   UNL     1       9.791   5.449  23.380  0.00  0.00    +0.150 C 
BRANCH  17  19
ATOM     18  C   UNL     1      10.127   6.987  25.329  0.00  0.00    +0.133 C 
ATOM     19  N   UNL     1      10.705   6.111  24.319  0.00  0.00    -0.284 N 
ATOM     20  C   UNL     1      12.086   6.029  24.287  0.00  0.00    +0.325 C 
ATOM     21  N   UNL     1      12.626   5.187  23.346  0.00  0.00    -0.181 N 
ATOM     22  H   UNL     1      12.172   5.058  22.452  0.00  0.00    +0.184 HD
ATOM     23  O   UNL     1      12.818   6.647  25.062  0.00  0.00    -0.251 OA
BRANCH  21  24
ATOM     24  O   UNL     1      14.045   5.228  23.274  0.00  0.00    -0.294 OA
ATOM     25  H   UNL     1      14.298   5.268  24.224  0.00  0.00    +0.241 HD
ENDBRANCH  21  24
ENDBRANCH  17  19
ENDBRANCH  16  17
ENDBRANCH  15  16
ENDBRANCH   1  15
TORSDOF 7
ENDMDL
MODEL 4
REMARK VINA RESULT:      -6.5      1.746      2.609
REMARK  Name = 
REMARK  8 active torsions:
REMARK  status: ('A' for Active; 'I' for Inactive)
REMARK    1  A    between atoms: C_1  and  N_2
REMARK    2  A    between atoms: N_2  and  C_3
REMARK    3  A    between atoms: C_3  and  C_4
REMARK    4  A    between atoms: C_4  and  O_5
REMARK    5  A    between atoms: O_5  and  C_6
REMARK    6  A    between atoms: C_9  and  C_12
REMARK    7  A    between atoms: C_15  and  C_18
REMARK    8  A    between atoms: N_22  and  O_23
REMARK                            x       y       z     vdW  Elec       q    Type
REMARK                         _______ _______ _______ _____ _____    ______ ____
ROOT
ATOM      1  C   UNL     1       9.141  -2.685  24.063  0.00  0.00    +0.121 A 
ATOM      2  C   UNL     1       9.711  -1.973  23.007  0.00  0.00    +0.046 A 
ATOM      3  C   UNL     1       9.936  -0.590  23.112  0.00  0.00    +0.012 A 
ATOM      4  C   UNL     1       9.584   0.123  24.272  0.00  0.00    -0.018 A 
ATOM      5  C   UNL     1       9.095  -0.634  25.352  0.00  0.00    +0.012 A 
ATOM      6  C   UNL     1       8.885  -2.013  25.255  0.00  0.00    +0.046 A 
ENDROOT
BRANCH   4   7
ATOM      7  C   UNL     1       9.604   1.608  24.340  0.00  0.00    -0.018 A 
ATOM      8  C   UNL     1      10.561   2.357  23.630  0.00  0.00    +0.010 A 
ATOM      9  C   UNL     1      10.484   3.754  23.540  0.00  0.00    +0.019 A 
ATOM     10  C   UNL     1       9.442   4.441  24.162  0.00  0.00    +0.052 A 
ATOM     11  C   UNL     1       8.507   3.729  24.913  0.00  0.00    +0.019 A 
ATOM     12  C   UNL     1       8.600   2.334  25.012  0.00  0.00    +0.010 A 
BRANCH  10  13
ATOM     13  C   UNL     1       9.314   5.859  24.002  0.00  0.00    +0.099 C 
ATOM     14  N   UNL     1       9.205   7.010  23.888  0.00  0.00    -0.191 NA
ENDBRANCH  10  13
ENDBRANCH   4   7
BRANCH   1  15
ATOM     15  O   UNL     1       8.863  -4.007  23.828  0.00  0.00    -0.490 OA
BRANCH  15  16
ATOM     16  C   UNL     1       7.781  -4.258  22.921  0.00  0.00    +0.248 C 
BRANCH  16  17
ATOM     17  C   UNL     1       6.799  -5.258  23.541  0.00  0.00    +0.150 C 
BRANCH  17  19
ATOM     18  C   UNL     1       4.969  -3.794  24.426  0.00  0.00    +0.133 C 
ATOM     19  N   UNL     1       6.083  -4.694  24.692  0.00  0.00    -0.284 N 
ATOM     20  C   UNL     1       6.419  -4.888  26.020  0.00  0.00    +0.325 C 
ATOM     21  N   UNL     1       7.458  -5.753  26.267  0.00  0.00    -0.181 N 
ATOM     22  H   UNL     1       8.230  -5.824  25.618  0.00  0.00    +0.184 HD
ATOM     23  O   UNL     1       5.824  -4.349  26.954  0.00  0.00    -0.251 OA
BRANCH  21  24
ATOM     24  O   UNL     1       7.841  -5.827  27.633  0.00  0.00    -0.294 OA
ATOM     25  H   UNL     1       8.419  -5.036  27.728  0.00  0.00    +0.241 HD
ENDBRANCH  21  24
ENDBRANCH  17  19
ENDBRANCH  16  17
ENDBRANCH  15  16
ENDBRANCH   1  15
TORSDOF 7
ENDMDL
MODEL 5
REMARK VINA RESULT:      -6.4      3.825      8.938
REMARK  Name = 
REMARK  8 active torsions:
REMARK  status: ('A' for Active; 'I' for Inactive)
REMARK    1  A    between atoms: C_1  and  N_2
REMARK    2  A    between atoms: N_2  and  C_3
REMARK    3  A    between atoms: C_3  and  C_4
REMARK    4  A    between atoms: C_4  and  O_5
REMARK    5  A    between atoms: O_5  and  C_6
REMARK    6  A    between atoms: C_9  and  C_12
REMARK    7  A    between atoms: C_15  and  C_18
REMARK    8  A    between atoms: N_22  and  O_23
REMARK                            x       y       z     vdW  Elec       q    Type
REMARK                         _______ _______ _______ _____ _____    ______ ____
ROOT
ATOM      1  C   UNL     1       9.665  -1.740  22.987  0.00  0.00    +0.121 A 
ATOM      2  C   UNL     1       9.818  -2.690  23.997  0.00  0.00    +0.046 A 
ATOM      3  C   UNL     1       8.829  -3.662  24.225  0.00  0.00    +0.012 A 
ATOM      4  C   UNL     1       7.651  -3.703  23.457  0.00  0.00    -0.018 A 
ATOM      5  C   UNL     1       7.565  -2.791  22.390  0.00  0.00    +0.012 A 
ATOM      6  C   UNL     1       8.555  -1.833  22.151  0.00  0.00    +0.046 A 
ENDROOT
BRANCH   4   7
ATOM      7  C   UNL     1       6.493  -4.569  23.805  0.00  0.00    -0.018 A 
ATOM      8  C   UNL     1       5.539  -4.933  22.836  0.00  0.00    +0.010 A 
ATOM      9  C   UNL     1       4.548  -5.888  23.101  0.00  0.00    +0.019 A 
ATOM     10  C   UNL     1       4.486  -6.506  24.349  0.00  0.00    +0.052 A 
ATOM     11  C   UNL     1       5.388  -6.129  25.344  0.00  0.00    +0.019 A 
ATOM     12  C   UNL     1       6.366  -5.162  25.076  0.00  0.00    +0.010 A 
BRANCH  10  13
ATOM     13  C   UNL     1       3.527  -7.542  24.596  0.00  0.00    +0.099 C 
ATOM     14  N   UNL     1       2.747  -8.376  24.811  0.00  0.00    -0.191 NA
ENDBRANCH  10  13
ENDBRANCH   4   7
BRANCH   1  15
ATOM     15  O   UNL     1      10.630  -0.770  22.910  0.00  0.00    -0.490 OA
BRANCH  15  16
ATOM     16  C   UNL     1      10.145   0.576  22.804  0.00  0.00    +0.248 C 
BRANCH  16  17
ATOM     17  C   UNL     1      10.560   1.381  24.040  0.00  0.00    +0.150 C 
BRANCH  17  19
ATOM     18  C   UNL     1       8.473   2.540  24.801  0.00  0.00    +0.133 C 
ATOM     19  N   UNL     1       9.787   2.622  24.179  0.00  0.00    -0.284 N 
ATOM     20  C   UNL     1      10.173   3.864  23.705  0.00  0.00    +0.325 C 
ATOM     21  N   UNL     1      11.421   3.940  23.137  0.00  0.00    -0.181 N 
ATOM     22  H   UNL     1      11.801   3.154  22.627  0.00  0.00    +0.184 HD
ATOM     23  O   UNL     1       9.467   4.870  23.794  0.00  0.00    -0.251 OA
BRANCH  21  24
ATOM     24  O   UNL     1      11.721   5.204  22.560  0.00  0.00    -0.294 OA
ATOM     25  H   UNL     1      12.587   5.418  22.975  0.00  0.00    +0.241 HD
ENDBRANCH  21  24
ENDBRANCH  17  19
ENDBRANCH  16  17
ENDBRANCH  15  16
ENDBRANCH   1  15
TORSDOF 7
ENDMDL
MODEL 6
REMARK VINA RESULT:      -6.3      1.569      2.359
REMARK  Name = 
REMARK  8 active torsions:
REMARK  status: ('A' for Active; 'I' for Inactive)
REMARK    1  A    between atoms: C_1  and  N_2
REMARK    2  A    between atoms: N_2  and  C_3
REMARK    3  A    between atoms: C_3  and  C_4
REMARK    4  A    between atoms: C_4  and  O_5
REMARK    5  A    between atoms: O_5  and  C_6
REMARK    6  A    between atoms: C_9  and  C_12
REMARK    7  A    between atoms: C_15  and  C_18
REMARK    8  A    between atoms: N_22  and  O_23
REMARK                            x       y       z     vdW  Elec       q    Type
REMARK                         _______ _______ _______ _____ _____    ______ ____
ROOT
ATOM      1  C   UNL     1       8.261  -3.857  23.768  0.00  0.00    +0.121 A 
ATOM      2  C   UNL     1       7.558  -3.053  22.871  0.00  0.00    +0.046 A 
ATOM      3  C   UNL     1       7.936  -1.717  22.654  0.00  0.00    +0.012 A 
ATOM      4  C   UNL     1       9.022  -1.143  23.339  0.00  0.00    -0.018 A 
ATOM      5  C   UNL     1       9.766  -2.001  24.168  0.00  0.00    +0.012 A 
ATOM      6  C   UNL     1       9.401  -3.335  24.374  0.00  0.00    +0.046 A 
ENDROOT
BRANCH   4   7
ATOM      7  C   UNL     1       9.318   0.314  23.301  0.00  0.00    -0.018 A 
ATOM      8  C   UNL     1       9.093   1.132  24.424  0.00  0.00    +0.010 A 
ATOM      9  C   UNL     1       9.531   2.463  24.465  0.00  0.00    +0.019 A 
ATOM     10  C   UNL     1      10.209   3.012  23.377  0.00  0.00    +0.052 A 
ATOM     11  C   UNL     1      10.402   2.240  22.232  0.00  0.00    +0.019 A 
ATOM     12  C   UNL     1       9.947   0.915  22.193  0.00  0.00    +0.010 A 
BRANCH  10  13
ATOM     13  C   UNL     1      10.731   4.345  23.449  0.00  0.00    +0.099 C 
ATOM     14  N   UNL     1      11.163   5.421  23.521  0.00  0.00    -0.191 NA
ENDBRANCH  10  13
ENDBRANCH   4   7
BRANCH   1  15
ATOM     15  O   UNL     1       7.753  -5.110  23.992  0.00  0.00    -0.490 OA
BRANCH  15  16
ATOM     16  C   UNL     1       7.495  -5.435  25.365  0.00  0.00    +0.248 C 
BRANCH  16  17
ATOM     17  C   UNL     1       6.067  -5.024  25.741  0.00  0.00    +0.150 C 
BRANCH  17  19
ATOM     18  C   UNL     1       4.799  -6.913  26.791  0.00  0.00    +0.133 C 
ATOM     19  N   UNL     1       5.116  -6.135  25.601  0.00  0.00    -0.284 N 
ATOM     20  C   UNL     1       4.540  -6.553  24.415  0.00  0.00    +0.325 C 
ATOM     21  N   UNL     1       4.826  -5.804  23.300  0.00  0.00    -0.181 N 
ATOM     22  H   UNL     1       5.727  -5.357  23.200  0.00  0.00    +0.184 HD
ATOM     23  O   UNL     1       3.788  -7.526  24.335  0.00  0.00    -0.251 OA
BRANCH  21  24
ATOM     24  O   UNL     1       4.309  -6.342  22.090  0.00  0.00    -0.294 OA
ATOM     25  H   UNL     1       3.785  -7.109  22.413  0.00  0.00    +0.241 HD
ENDBRANCH  21  24
ENDBRANCH  17  19
ENDBRANCH  16  17
ENDBRANCH  15  16
ENDBRANCH   1  15
TORSDOF 7
ENDMDL
MODEL 7
REMARK VINA RESULT:      -6.2      4.134      8.630
REMARK  Name = 
REMARK  8 active torsions:
REMARK  status: ('A' for Active; 'I' for Inactive)
REMARK    1  A    between atoms: C_1  and  N_2
REMARK    2  A    between atoms: N_2  and  C_3
REMARK    3  A    between atoms: C_3  and  C_4
REMARK    4  A    between atoms: C_4  and  O_5
REMARK    5  A    between atoms: O_5  and  C_6
REMARK    6  A    between atoms: C_9  and  C_12
REMARK    7  A    between atoms: C_15  and  C_18
REMARK    8  A    between atoms: N_22  and  O_23
REMARK                            x       y       z     vdW  Elec       q    Type
REMARK                         _______ _______ _______ _____ _____    ______ ____
ROOT
ATOM      1  C   UNL     1      10.617   1.266  23.603  0.00  0.00    +0.121 A 
ATOM      2  C   UNL     1      10.582   0.382  24.682  0.00  0.00    +0.046 A 
ATOM      3  C   UNL     1       9.962  -0.873  24.562  0.00  0.00    +0.012 A 
ATOM      4  C   UNL     1       9.346  -1.275  23.363  0.00  0.00    -0.018 A 
ATOM      5  C   UNL     1       9.475  -0.402  22.268  0.00  0.00    +0.012 A 
ATOM      6  C   UNL     1      10.105   0.841  22.380  0.00  0.00    +0.046 A 
ENDROOT
BRANCH   4   7
ATOM      7  C   UNL     1       8.498  -2.492  23.262  0.00  0.00    -0.018 A 
ATOM      8  C   UNL     1       8.710  -3.599  24.105  0.00  0.00    +0.010 A 
ATOM      9  C   UNL     1       7.814  -4.675  24.146  0.00  0.00    +0.019 A 
ATOM     10  C   UNL     1       6.675  -4.672  23.341  0.00  0.00    +0.052 A 
ATOM     11  C   UNL     1       6.465  -3.611  22.460  0.00  0.00    +0.019 A 
ATOM     12  C   UNL     1       7.374  -2.546  22.413  0.00  0.00    +0.010 A 
BRANCH  10  13
ATOM     13  C   UNL     1       5.715  -5.730  23.442  0.00  0.00    +0.099 C 
ATOM     14  N   UNL     1       4.940  -6.594  23.508  0.00  0.00    -0.191 NA
ENDBRANCH  10  13
ENDBRANCH   4   7
BRANCH   1  15
ATOM     15  O   UNL     1      11.148   2.506  23.847  0.00  0.00    -0.490 OA
BRANCH  15  16
ATOM     16  C   UNL     1      10.384   3.613  23.350  0.00  0.00    +0.248 C 
BRANCH  16  17
ATOM     17  C   UNL     1       9.230   3.925  24.309  0.00  0.00    +0.150 C 
BRANCH  17  19
ATOM     18  C   UNL     1       7.198   2.472  24.120  0.00  0.00    +0.133 C 
ATOM     19  N   UNL     1       7.918   3.667  23.702  0.00  0.00    -0.284 N 
ATOM     20  C   UNL     1       7.330   4.430  22.708  0.00  0.00    +0.325 C 
ATOM     21  N   UNL     1       8.004   5.566  22.331  0.00  0.00    -0.181 N 
ATOM     22  H   UNL     1       9.015   5.590  22.344  0.00  0.00    +0.184 HD
ATOM     23  O   UNL     1       6.251   4.144  22.187  0.00  0.00    -0.251 OA
BRANCH  21  24
ATOM     24  O   UNL     1       7.422   6.248  21.229  0.00  0.00    -0.294 OA
ATOM     25  H   UNL     1       7.536   7.190  21.487  0.00  0.00    +0.241 HD
ENDBRANCH  21  24
ENDBRANCH  17  19
ENDBRANCH  16  17
ENDBRANCH  15  16
ENDBRANCH   1  15
TORSDOF 7
ENDMDL
MODEL 8
REMARK VINA RESULT:      -6.1      3.950      8.771
REMARK  Name = 
REMARK  8 active torsions:
REMARK  status: ('A' for Active; 'I' for Inactive)
REMARK    1  A    between atoms: C_1  and  N_2
REMARK    2  A    between atoms: N_2  and  C_3
REMARK    3  A    between atoms: C_3  and  C_4
REMARK    4  A    between atoms: C_4  and  O_5
REMARK    5  A    between atoms: O_5  and  C_6
REMARK    6  A    between atoms: C_9  and  C_12
REMARK    7  A    between atoms: C_15  and  C_18
REMARK    8  A    between atoms: N_22  and  O_23
REMARK                            x       y       z     vdW  Elec       q    Type
REMARK                         _______ _______ _______ _____ _____    ______ ____
ROOT
ATOM      1  C   UNL     1       9.765  -0.585  24.848  0.00  0.00    +0.121 A 
ATOM      2  C   UNL     1       9.071  -0.950  26.001  0.00  0.00    +0.046 A 
ATOM      3  C   UNL     1       8.347  -2.153  26.054  0.00  0.00    +0.012 A 
ATOM      4  C   UNL     1       8.287  -3.020  24.948  0.00  0.00    -0.018 A 
ATOM      5  C   UNL     1       9.068  -2.671  23.832  0.00  0.00    +0.012 A 
ATOM      6  C   UNL     1       9.802  -1.481  23.784  0.00  0.00    +0.046 A 
ENDROOT
BRANCH   4   7
ATOM      7  C   UNL     1       7.364  -4.185  24.888  0.00  0.00    -0.018 A 
ATOM      8  C   UNL     1       6.843  -4.762  26.061  0.00  0.00    +0.010 A 
ATOM      9  C   UNL     1       5.838  -5.738  26.017  0.00  0.00    +0.019 A 
ATOM     10  C   UNL     1       5.327  -6.165  24.792  0.00  0.00    +0.052 A 
ATOM     11  C   UNL     1       5.859  -5.646  23.612  0.00  0.00    +0.019 A 
ATOM     12  C   UNL     1       6.875  -4.681  23.663  0.00  0.00    +0.010 A 
BRANCH  10  13
ATOM     13  C   UNL     1       4.243  -7.101  24.747  0.00  0.00    +0.099 C 
ATOM     14  N   UNL     1       3.367  -7.865  24.727  0.00  0.00    -0.191 NA
ENDBRANCH  10  13
ENDBRANCH   4   7
BRANCH   1  15
ATOM     15  O   UNL     1      10.352   0.654  24.855  0.00  0.00    -0.490 OA
BRANCH  15  16
ATOM     16  C   UNL     1      10.195   1.418  23.652  0.00  0.00    +0.248 C 
BRANCH  16  17
ATOM     17  C   UNL     1       9.407   2.699  23.943  0.00  0.00    +0.150 C 
BRANCH  17  19
ATOM     18  C   UNL     1       7.314   1.508  23.251  0.00  0.00    +0.133 C 
ATOM     19  N   UNL     1       8.114   2.726  23.249  0.00  0.00    -0.284 N 
ATOM     20  C   UNL     1       7.612   3.795  22.527  0.00  0.00    +0.325 C 
ATOM     21  N   UNL     1       8.360   4.947  22.545  0.00  0.00    -0.181 N 
ATOM     22  H   UNL     1       9.369   4.903  22.594  0.00  0.00    +0.184 HD
ATOM     23  O   UNL     1       6.546   3.755  21.912  0.00  0.00    -0.251 OA
BRANCH  21  24
ATOM     24  O   UNL     1       7.866   5.974  21.695  0.00  0.00    -0.294 OA
ATOM     25  H   UNL     1       7.327   6.514  22.317  0.00  0.00    +0.241 HD
ENDBRANCH  21  24
ENDBRANCH  17  19
ENDBRANCH  16  17
ENDBRANCH  15  16
ENDBRANCH   1  15
TORSDOF 7
ENDMDL
MODEL 9
REMARK VINA RESULT:      -6.0      4.873      9.615
REMARK  Name = 
REMARK  8 active torsions:
REMARK  status: ('A' for Active; 'I' for Inactive)
REMARK    1  A    between atoms: C_1  and  N_2
REMARK    2  A    between atoms: N_2  and  C_3
REMARK    3  A    between atoms: C_3  and  C_4
REMARK    4  A    between atoms: C_4  and  O_5
REMARK    5  A    between atoms: O_5  and  C_6
REMARK    6  A    between atoms: C_9  and  C_12
REMARK    7  A    between atoms: C_15  and  C_18
REMARK    8  A    between atoms: N_22  and  O_23
REMARK                            x       y       z     vdW  Elec       q    Type
REMARK                         _______ _______ _______ _____ _____    ______ ____
ROOT
ATOM      1  C   UNL     1       8.608   3.064  23.310  0.00  0.00    +0.121 A 
ATOM      2  C   UNL     1       9.706   2.600  24.034  0.00  0.00    +0.046 A 
ATOM      3  C   UNL     1       9.742   1.281  24.520  0.00  0.00    +0.012 A 
ATOM      4  C   UNL     1       8.673   0.392  24.305  0.00  0.00    -0.018 A 
ATOM      5  C   UNL     1       7.621   0.859  23.497  0.00  0.00    +0.012 A 
ATOM      6  C   UNL     1       7.591   2.166  23.000  0.00  0.00    +0.046 A 
ENDROOT
BRANCH   4   7
ATOM      7  C   UNL     1       8.577  -0.928  24.981  0.00  0.00    -0.018 A 
ATOM      8  C   UNL     1       7.714  -1.125  26.075  0.00  0.00    +0.010 A 
ATOM      9  C   UNL     1       7.479  -2.401  26.607  0.00  0.00    +0.019 A 
ATOM     10  C   UNL     1       8.104  -3.518  26.054  0.00  0.00    +0.052 A 
ATOM     11  C   UNL     1       9.001  -3.346  25.000  0.00  0.00    +0.019 A 
ATOM     12  C   UNL     1       9.244  -2.066  24.484  0.00  0.00    +0.010 A 
BRANCH  10  13
ATOM     13  C   UNL     1       7.801  -4.831  26.541  0.00  0.00    +0.099 C 
ATOM     14  N   UNL     1       7.539  -5.895  26.929  0.00  0.00    -0.191 NA
ENDBRANCH  10  13
ENDBRANCH   4   7
BRANCH   1  15
ATOM     15  O   UNL     1       8.617   4.392  22.971  0.00  0.00    -0.490 OA
BRANCH  15  16
ATOM     16  C   UNL     1       8.264   5.300  24.024  0.00  0.00    +0.248 C 
BRANCH  16  17
ATOM     17  C   UNL     1       9.075   6.593  23.894  0.00  0.00    +0.150 C 
BRANCH  17  19
ATOM     18  C   UNL     1      10.448   7.006  25.949  0.00  0.00    +0.133 C 
ATOM     19  N   UNL     1      10.370   6.509  24.582  0.00  0.00    -0.284 N 
ATOM     20  C   UNL     1      11.550   6.055  24.018  0.00  0.00    +0.325 C 
ATOM     21  N   UNL     1      11.466   5.569  22.736  0.00  0.00    -0.181 N 
ATOM     22  H   UNL     1      10.805   5.963  22.080  0.00  0.00    +0.184 HD
ATOM     23  O   UNL     1      12.627   6.054  24.616  0.00  0.00    -0.251 OA
BRANCH  21  24
ATOM     24  O   UNL     1      12.721   5.228  22.161  0.00  0.00    -0.294 OA
ATOM     25  H   UNL     1      12.483   5.090  21.217  0.00  0.00    +0.241 HD
ENDBRANCH  21  24
ENDBRANCH  17  19
ENDBRANCH  16  17
ENDBRANCH  15  16
ENDBRANCH   1  15
TORSDOF 7
ENDMDL
