MODEL 1
REMARK VINA RESULT:      -7.4      0.000      0.000
REMARK  Name = 
REMARK  6 active torsions:
REMARK  status: ('A' for Active; 'I' for Inactive)
REMARK    1  A    between atoms: N_1  and  S_2
REMARK    2  A    between atoms: S_2  and  C_5
REMARK    3  A    between atoms: C_8  and  N_9
REMARK    4  A    between atoms: N_9  and  C_10
REMARK    5  A    between atoms: C_12  and  O_13
REMARK    6  A    between atoms: O_13  and  C_14
REMARK                            x       y       z     vdW  Elec       q    Type
REMARK                         _______ _______ _______ _____ _____    ______ ____
ROOT
ATOM      1  C   UNL     1       6.886  -5.282  26.645  0.00  0.00    +0.133 A 
ATOM      2  N   UNL     1       6.189  -5.808  27.760  0.00  0.00    -0.182 N 
ATOM      3  C   UNL     1       5.068  -6.640  27.605  0.00  0.00    +0.258 A 
ATOM      4  N   UNL     1       4.658  -7.027  28.794  0.00  0.00    -0.197 NA
ATOM      5  C   UNL     1       5.537  -6.434  29.646  0.00  0.00    +0.247 A 
ATOM      6  N   UNL     1       4.578  -6.971  26.372  0.00  0.00    -0.175 NA
ATOM      7  C   UNL     1       5.258  -6.518  25.376  0.00  0.00    +0.221 A 
ATOM      8  N   UNL     1       6.468  -5.662  29.084  0.00  0.00    -0.151 NA
ATOM      9  C   UNL     1       6.472  -5.666  25.424  0.00  0.00    +0.111 A 
ENDROOT
BRANCH   1  10
ATOM     10  N   UNL     1       8.012  -4.487  26.880  0.00  0.00    -0.299 N 
ATOM     11  H   UNL     1       7.964  -4.070  27.819  0.00  0.00    +0.154 HD
BRANCH  10  15
ATOM     12  C   UNL     1       9.275  -1.587  24.078  0.00  0.00    +0.105 A 
ATOM     13  C   UNL     1       8.443  -1.237  25.135  0.00  0.00    +0.030 A 
ATOM     14  C   UNL     1       8.082  -2.207  26.075  0.00  0.00    +0.025 A 
ATOM     15  C   UNL     1       8.555  -3.525  25.984  0.00  0.00    +0.032 A 
ATOM     16  C   UNL     1       9.454  -3.838  24.953  0.00  0.00    +0.025 A 
ATOM     17  C   UNL     1       9.815  -2.873  23.997  0.00  0.00    +0.030 A 
BRANCH  12  18
ATOM     18  S   UNL     1       9.573  -0.420  22.785  0.00  0.00    +0.056 S 
ATOM     19  O   UNL     1       8.306   0.078  22.282  0.00  0.00    -0.153 OA
ATOM     20  O   UNL     1      10.647   0.456  23.178  0.00  0.00    -0.153 OA
BRANCH  18  21
ATOM     21  N   UNL     1      10.176  -1.392  21.550  0.00  0.00    -0.204 NA
ATOM     22  H   UNL     1      11.086  -1.771  21.815  0.00  0.00    +0.144 HD
ATOM     23  H   UNL     1       9.492  -2.110  21.310  0.00  0.00    +0.144 HD
ENDBRANCH  18  21
ENDBRANCH  12  18
ENDBRANCH  10  15
ENDBRANCH   1  10
BRANCH   7  24
ATOM     24  O   UNL     1       4.991  -6.734  24.074  0.00  0.00    -0.473 OA
BRANCH  24  25
ATOM     25  C   UNL     1       4.501  -5.804  23.069  0.00  0.00    +0.175 C 
ATOM     26  C   UNL     1       5.436  -5.797  21.866  0.00  0.00    +0.044 C 
ATOM     27  C   UNL     1       6.695  -4.998  22.151  0.00  0.00    +0.004 C 
ATOM     28  C   UNL     1       6.382  -3.551  22.510  0.00  0.00    +0.000 C 
ATOM     29  C   UNL     1       5.209  -3.328  23.464  0.00  0.00    +0.004 C 
ATOM     30  C   UNL     1       4.109  -4.393  23.500  0.00  0.00    +0.044 C 
ENDBRANCH  24  25
ENDBRANCH   7  24
TORSDOF 6
ENDMDL
MODEL 2
REMARK VINA RESULT:      -7.1      2.455      3.836
REMARK  Name = 
REMARK  6 active torsions:
REMARK  status: ('A' for Active; 'I' for Inactive)
REMARK    1  A    between atoms: N_1  and  S_2
REMARK    2  A    between atoms: S_2  and  C_5
REMARK    3  A    between atoms: C_8  and  N_9
REMARK    4  A    between atoms: N_9  and  C_10
REMARK    5  A    between atoms: C_12  and  O_13
REMARK    6  A    between atoms: O_13  and  C_14
REMARK                            x       y       z     vdW  Elec       q    Type
REMARK                         _______ _______ _______ _____ _____    ______ ____
ROOT
ATOM      1  C   UNL     1       7.181  -4.536  23.624  0.00  0.00    +0.133 A 
ATOM      2  N   UNL     1       7.750  -4.527  24.920  0.00  0.00    -0.182 N 
ATOM      3  C   UNL     1       7.172  -5.234  25.988  0.00  0.00    +0.258 A 
ATOM      4  N   UNL     1       7.936  -5.099  27.050  0.00  0.00    -0.197 NA
ATOM      5  C   UNL     1       8.964  -4.324  26.612  0.00  0.00    +0.247 A 
ATOM      6  N   UNL     1       6.017  -5.951  25.838  0.00  0.00    -0.175 NA
ATOM      7  C   UNL     1       5.546  -5.981  24.639  0.00  0.00    +0.221 A 
ATOM      8  N   UNL     1       8.895  -3.923  25.342  0.00  0.00    -0.151 NA
ATOM      9  C   UNL     1       6.093  -5.306  23.437  0.00  0.00    +0.111 A 
ENDROOT
BRANCH   1  10
ATOM     10  N   UNL     1       7.832  -3.834  22.607  0.00  0.00    -0.299 N 
ATOM     11  H   UNL     1       8.770  -4.223  22.450  0.00  0.00    +0.154 HD
BRANCH  10  15
ATOM     12  C   UNL     1       8.336   0.360  22.480  0.00  0.00    +0.105 A 
ATOM     13  C   UNL     1       9.293  -0.486  21.932  0.00  0.00    +0.030 A 
ATOM     14  C   UNL     1       9.076  -1.868  21.943  0.00  0.00    +0.025 A 
ATOM     15  C   UNL     1       7.903  -2.418  22.483  0.00  0.00    +0.032 A 
ATOM     16  C   UNL     1       6.918  -1.542  22.963  0.00  0.00    +0.025 A 
ATOM     17  C   UNL     1       7.131  -0.152  22.965  0.00  0.00    +0.030 A 
BRANCH  12  18
ATOM     18  S   UNL     1       8.695   2.083  22.646  0.00  0.00    +0.056 S 
ATOM     19  O   UNL     1       7.682   2.857  21.952  0.00  0.00    -0.153 OA
ATOM     20  O   UNL     1       9.079   2.356  24.007  0.00  0.00    -0.153 OA
BRANCH  18  21
ATOM     21  N   UNL     1      10.085   2.255  21.713  0.00  0.00    -0.204 NA
ATOM     22  H   UNL     1      10.605   3.082  22.009  0.00  0.00    +0.144 HD
ATOM     23  H   UNL     1      10.634   1.396  21.749  0.00  0.00    +0.144 HD
ENDBRANCH  18  21
ENDBRANCH  12  18
ENDBRANCH  10  15
ENDBRANCH   1  10
BRANCH   7  24
ATOM     24  O   UNL     1       4.443  -6.643  24.241  0.00  0.00    -0.473 OA
BRANCH  24  25
ATOM     25  C   UNL     1       3.046  -6.251  24.350  0.00  0.00    +0.175 C 
ATOM     26  C   UNL     1       2.317  -7.181  25.311  0.00  0.00    +0.044 C 
ATOM     27  C   UNL     1       2.005  -8.515  24.657  0.00  0.00    +0.004 C 
ATOM     28  C   UNL     1       1.139  -8.352  23.415  0.00  0.00    +0.000 C 
ATOM     29  C   UNL     1       1.515  -7.209  22.473  0.00  0.00    +0.004 C 
ATOM     30  C   UNL     1       2.249  -6.005  23.072  0.00  0.00    +0.044 C 
ENDBRANCH  24  25
ENDBRANCH   7  24
TORSDOF 6
ENDMDL
MODEL 3
REMARK VINA RESULT:      -7.0      2.511      4.458
REMARK  Name = 
REMARK  6 active torsions:
REMARK  status: ('A' for Active; 'I' for Inactive)
REMARK    1  A    between atoms: N_1  and  S_2
REMARK    2  A    between atoms: S_2  and  C_5
REMARK    3  A    between atoms: C_8  and  N_9
REMARK    4  A    between atoms: N_9  and  C_10
REMARK    5  A    between atoms: C_12  and  O_13
REMARK    6  A    between atoms: O_13  and  C_14
REMARK                            x       y       z     vdW  Elec       q    Type
REMARK                         _______ _______ _______ _____ _____    ______ ____
ROOT
ATOM      1  C   UNL     1       8.336  -4.079  24.300  0.00  0.00    +0.133 A 
ATOM      2  N   UNL     1       7.301  -3.938  23.344  0.00  0.00    -0.182 N 
ATOM      3  C   UNL     1       6.041  -4.532  23.525  0.00  0.00    +0.258 A 
ATOM      4  N   UNL     1       5.262  -4.192  22.521  0.00  0.00    -0.197 NA
ATOM      5  C   UNL     1       6.054  -3.394  21.755  0.00  0.00    +0.247 A 
ATOM      6  N   UNL     1       5.753  -5.296  24.623  0.00  0.00    -0.175 NA
ATOM      7  C   UNL     1       6.695  -5.369  25.499  0.00  0.00    +0.221 A 
ATOM      8  N   UNL     1       7.305  -3.225  22.185  0.00  0.00    -0.151 NA
ATOM      9  C   UNL     1       8.044  -4.754  25.427  0.00  0.00    +0.111 A 
ENDROOT
BRANCH   1  10
ATOM     10  N   UNL     1       9.552  -3.432  24.063  0.00  0.00    -0.299 N 
ATOM     11  H   UNL     1      10.275  -3.789  24.700  0.00  0.00    +0.154 HD
BRANCH  10  15
ATOM     12  C   UNL     1       9.715   0.768  23.623  0.00  0.00    +0.105 A 
ATOM     13  C   UNL     1       9.279   0.196  24.813  0.00  0.00    +0.030 A 
ATOM     14  C   UNL     1       9.283  -1.196  24.948  0.00  0.00    +0.025 A 
ATOM     15  C   UNL     1       9.734  -2.028  23.912  0.00  0.00    +0.032 A 
ATOM     16  C   UNL     1      10.240  -1.428  22.750  0.00  0.00    +0.025 A 
ATOM     17  C   UNL     1      10.231  -0.030  22.600  0.00  0.00    +0.030 A 
BRANCH  12  18
ATOM     18  S   UNL     1       9.526   2.508  23.377  0.00  0.00    +0.056 S 
ATOM     19  O   UNL     1       8.377   2.981  24.127  0.00  0.00    -0.153 OA
ATOM     20  O   UNL     1      10.818   3.140  23.464  0.00  0.00    -0.153 OA
BRANCH  18  21
ATOM     21  N   UNL     1       9.057   2.598  21.763  0.00  0.00    -0.204 NA
ATOM     22  H   UNL     1       9.614   1.955  21.200  0.00  0.00    +0.144 HD
ATOM     23  H   UNL     1       8.052   2.439  21.686  0.00  0.00    +0.144 HD
ENDBRANCH  18  21
ENDBRANCH  12  18
ENDBRANCH  10  15
ENDBRANCH   1  10
BRANCH   7  24
ATOM     24  O   UNL     1       6.636  -6.033  26.668  0.00  0.00    -0.473 OA
BRANCH  24  25
ATOM     25  C   UNL     1       5.916  -5.690  27.885  0.00  0.00    +0.175 C 
ATOM     26  C   UNL     1       4.889  -6.769  28.205  0.00  0.00    +0.044 C 
ATOM     27  C   UNL     1       3.666  -6.645  27.315  0.00  0.00    +0.004 C 
ATOM     28  C   UNL     1       2.985  -5.292  27.466  0.00  0.00    +0.000 C 
ATOM     29  C   UNL     1       3.906  -4.073  27.522  0.00  0.00    +0.004 C 
ATOM     30  C   UNL     1       5.337  -4.285  28.027  0.00  0.00    +0.044 C 
ENDBRANCH  24  25
ENDBRANCH   7  24
TORSDOF 6
ENDMDL
MODEL 4
REMARK VINA RESULT:      -6.6      2.767      4.380
REMARK  Name = 
REMARK  6 active torsions:
REMARK  status: ('A' for Active; 'I' for Inactive)
REMARK    1  A    between atoms: N_1  and  S_2
REMARK    2  A    between atoms: S_2  and  C_5
REMARK    3  A    between atoms: C_8  and  N_9
REMARK    4  A    between atoms: N_9  and  C_10
REMARK    5  A    between atoms: C_12  and  O_13
REMARK    6  A    between atoms: O_13  and  C_14
REMARK                            x       y       z     vdW  Elec       q    Type
REMARK                         _______ _______ _______ _____ _____    ______ ____
ROOT
ATOM      1  C   UNL     1       8.004  -2.949  23.446  0.00  0.00    +0.133 A 
ATOM      2  N   UNL     1       8.573  -3.864  24.365  0.00  0.00    -0.182 N 
ATOM      3  C   UNL     1       7.776  -4.694  25.172  0.00  0.00    +0.258 A 
ATOM      4  N   UNL     1       8.560  -5.477  25.881  0.00  0.00    -0.197 NA
ATOM      5  C   UNL     1       9.813  -5.118  25.490  0.00  0.00    +0.247 A 
ATOM      6  N   UNL     1       6.410  -4.648  25.128  0.00  0.00    -0.175 NA
ATOM      7  C   UNL     1       5.919  -3.842  24.251  0.00  0.00    +0.221 A 
ATOM      8  N   UNL     1       9.887  -4.130  24.598  0.00  0.00    -0.151 NA
ATOM      9  C   UNL     1       6.664  -2.951  23.327  0.00  0.00    +0.111 A 
ENDROOT
BRANCH   1  10
ATOM     10  N   UNL     1       8.863  -2.180  22.656  0.00  0.00    -0.299 N 
ATOM     11  H   UNL     1       9.767  -2.657  22.544  0.00  0.00    +0.154 HD
BRANCH  10  15
ATOM     12  C   UNL     1       9.245   1.983  23.269  0.00  0.00    +0.105 A 
ATOM     13  C   UNL     1       9.340   1.098  24.337  0.00  0.00    +0.030 A 
ATOM     14  C   UNL     1       9.260  -0.278  24.097  0.00  0.00    +0.025 A 
ATOM     15  C   UNL     1       9.102  -0.785  22.798  0.00  0.00    +0.032 A 
ATOM     16  C   UNL     1       9.084   0.123  21.728  0.00  0.00    +0.025 A 
ATOM     17  C   UNL     1       9.154   1.508  21.960  0.00  0.00    +0.030 A 
BRANCH  12  18
ATOM     18  S   UNL     1       9.147   3.719  23.589  0.00  0.00    +0.056 S 
ATOM     19  O   UNL     1      10.486   4.271  23.676  0.00  0.00    -0.153 OA
ATOM     20  O   UNL     1       8.126   4.296  22.752  0.00  0.00    -0.153 OA
BRANCH  18  21
ATOM     21  N   UNL     1       8.557   3.766  25.165  0.00  0.00    -0.204 NA
ATOM     22  H   UNL     1       7.588   3.445  25.186  0.00  0.00    +0.144 HD
ATOM     23  H   UNL     1       9.174   3.234  25.780  0.00  0.00    +0.144 HD
ENDBRANCH  18  21
ENDBRANCH  12  18
ENDBRANCH  10  15
ENDBRANCH   1  10
BRANCH   7  24
ATOM     24  O   UNL     1       4.611  -3.649  24.002  0.00  0.00    -0.473 OA
BRANCH  24  25
ATOM     25  C   UNL     1       3.597  -4.615  23.607  0.00  0.00    +0.175 C 
ATOM     26  C   UNL     1       2.464  -4.627  24.627  0.00  0.00    +0.044 C 
ATOM     27  C   UNL     1       2.859  -5.388  25.879  0.00  0.00    +0.004 C 
ATOM     28  C   UNL     1       3.231  -6.833  25.575  0.00  0.00    +0.000 C 
ATOM     29  C   UNL     1       4.104  -7.062  24.341  0.00  0.00    +0.004 C 
ATOM     30  C   UNL     1       4.034  -6.024  23.217  0.00  0.00    +0.044 C 
ENDBRANCH  24  25
ENDBRANCH   7  24
TORSDOF 6
ENDMDL
MODEL 5
REMARK VINA RESULT:      -6.5      4.678      8.552
REMARK  Name = 
REMARK  6 active torsions:
REMARK  status: ('A' for Active; 'I' for Inactive)
REMARK    1  A    between atoms: N_1  and  S_2
REMARK    2  A    between atoms: S_2  and  C_5
REMARK    3  A    between atoms: C_8  and  N_9
REMARK    4  A    between atoms: N_9  and  C_10
REMARK    5  A    between atoms: C_12  and  O_13
REMARK    6  A    between atoms: O_13  and  C_14
REMARK                            x       y       z     vdW  Elec       q    Type
REMARK                         _______ _______ _______ _____ _____    ______ ____
ROOT
ATOM      1  C   UNL     1       7.610   0.828  23.897  0.00  0.00    +0.133 A 
ATOM      2  N   UNL     1       9.002   0.800  24.152  0.00  0.00    -0.182 N 
ATOM      3  C   UNL     1       9.836   1.883  23.826  0.00  0.00    +0.258 A 
ATOM      4  N   UNL     1      11.060   1.612  24.224  0.00  0.00    -0.197 NA
ATOM      5  C   UNL     1      10.950   0.380  24.790  0.00  0.00    +0.247 A 
ATOM      6  N   UNL     1       9.352   3.013  23.226  0.00  0.00    -0.175 NA
ATOM      7  C   UNL     1       8.076   3.031  23.048  0.00  0.00    +0.221 A 
ATOM      8  N   UNL     1       9.738  -0.176  24.752  0.00  0.00    -0.151 NA
ATOM      9  C   UNL     1       7.101   1.965  23.387  0.00  0.00    +0.111 A 
ENDROOT
BRANCH   1  10
ATOM     10  N   UNL     1       6.842  -0.275  24.279  0.00  0.00    -0.299 N 
ATOM     11  H   UNL     1       7.047  -0.531  25.254  0.00  0.00    +0.154 HD
BRANCH  10  15
ATOM     12  C   UNL     1       6.386  -4.013  22.360  0.00  0.00    +0.105 A 
ATOM     13  C   UNL     1       5.474  -3.593  23.322  0.00  0.00    +0.030 A 
ATOM     14  C   UNL     1       5.621  -2.330  23.904  0.00  0.00    +0.025 A 
ATOM     15  C   UNL     1       6.663  -1.469  23.526  0.00  0.00    +0.032 A 
ATOM     16  C   UNL     1       7.527  -1.882  22.500  0.00  0.00    +0.025 A 
ATOM     17  C   UNL     1       7.393  -3.154  21.916  0.00  0.00    +0.030 A 
BRANCH  12  18
ATOM     18  S   UNL     1       6.318  -5.677  21.769  0.00  0.00    +0.056 S 
ATOM     19  O   UNL     1       5.918  -5.680  20.375  0.00  0.00    -0.153 OA
ATOM     20  O   UNL     1       7.476  -6.393  22.243  0.00  0.00    -0.153 OA
BRANCH  18  21
ATOM     21  N   UNL     1       4.995  -6.304  22.600  0.00  0.00    -0.204 NA
ATOM     22  H   UNL     1       5.227  -6.428  23.586  0.00  0.00    +0.144 HD
ATOM     23  H   UNL     1       4.179  -5.712  22.446  0.00  0.00    +0.144 HD
ENDBRANCH  18  21
ENDBRANCH  12  18
ENDBRANCH  10  15
ENDBRANCH   1  10
BRANCH   7  24
ATOM     24  O   UNL     1       7.369   4.041  22.508  0.00  0.00    -0.473 OA
BRANCH  24  25
ATOM     25  C   UNL     1       6.980   5.312  23.100  0.00  0.00    +0.175 C 
ATOM     26  C   UNL     1       7.895   6.422  22.599  0.00  0.00    +0.044 C 
ATOM     27  C   UNL     1       9.241   6.384  23.298  0.00  0.00    +0.004 C 
ATOM     28  C   UNL     1       9.105   6.534  24.808  0.00  0.00    +0.000 C 
ATOM     29  C   UNL     1       7.978   5.741  25.468  0.00  0.00    +0.004 C 
ATOM     30  C   UNL     1       6.760   5.384  24.609  0.00  0.00    +0.044 C 
ENDBRANCH  24  25
ENDBRANCH   7  24
TORSDOF 6
ENDMDL
MODEL 6
REMARK VINA RESULT:      -6.4      3.949      6.963
REMARK  Name = 
REMARK  6 active torsions:
REMARK  status: ('A' for Active; 'I' for Inactive)
REMARK    1  A    between atoms: N_1  and  S_2
REMARK    2  A    between atoms: S_2  and  C_5
REMARK    3  A    between atoms: C_8  and  N_9
REMARK    4  A    between atoms: N_9  and  C_10
REMARK    5  A    between atoms: C_12  and  O_13
REMARK    6  A    between atoms: O_13  and  C_14
REMARK                            x       y       z     vdW  Elec       q    Type
REMARK                         _______ _______ _______ _____ _____    ______ ____
ROOT
ATOM      1  C   UNL     1       6.874   0.254  26.117  0.00  0.00    +0.133 A 
ATOM      2  N   UNL     1       6.875   1.202  27.168  0.00  0.00    -0.182 N 
ATOM      3  C   UNL     1       7.270   2.535  26.961  0.00  0.00    +0.258 A 
ATOM      4  N   UNL     1       7.118   3.203  28.084  0.00  0.00    -0.197 NA
ATOM      5  C   UNL     1       6.627   2.273  28.948  0.00  0.00    +0.247 A 
ATOM      6  N   UNL     1       7.696   2.981  25.740  0.00  0.00    -0.175 NA
ATOM      7  C   UNL     1       7.640   2.111  24.792  0.00  0.00    +0.221 A 
ATOM      8  N   UNL     1       6.485   1.040  28.462  0.00  0.00    -0.151 NA
ATOM      9  C   UNL     1       7.206   0.695  24.890  0.00  0.00    +0.111 A 
ENDROOT
BRANCH   1  10
ATOM     10  N   UNL     1       6.437  -1.044  26.394  0.00  0.00    -0.299 N 
ATOM     11  H   UNL     1       6.916  -1.412  27.226  0.00  0.00    +0.154 HD
BRANCH  10  15
ATOM     12  C   UNL     1       6.205  -3.950  23.335  0.00  0.00    +0.105 A 
ATOM     13  C   UNL     1       7.431  -3.598  23.887  0.00  0.00    +0.030 A 
ATOM     14  C   UNL     1       7.473  -2.670  24.932  0.00  0.00    +0.025 A 
ATOM     15  C   UNL     1       6.299  -2.099  25.449  0.00  0.00    +0.032 A 
ATOM     16  C   UNL     1       5.068  -2.525  24.928  0.00  0.00    +0.025 A 
ATOM     17  C   UNL     1       5.017  -3.449  23.870  0.00  0.00    +0.030 A 
BRANCH  12  18
ATOM     18  S   UNL     1       6.165  -4.967  21.890  0.00  0.00    +0.056 S 
ATOM     19  O   UNL     1       5.753  -4.170  20.749  0.00  0.00    -0.153 OA
ATOM     20  O   UNL     1       7.340  -5.801  21.866  0.00  0.00    -0.153 OA
BRANCH  18  21
ATOM     21  N   UNL     1       4.861  -5.986  22.198  0.00  0.00    -0.204 NA
ATOM     22  H   UNL     1       4.890  -6.791  21.572  0.00  0.00    +0.144 HD
ATOM     23  H   UNL     1       4.849  -6.241  23.187  0.00  0.00    +0.144 HD
ENDBRANCH  18  21
ENDBRANCH  12  18
ENDBRANCH  10  15
ENDBRANCH   1  10
BRANCH   7  24
ATOM     24  O   UNL     1       7.975   2.323  23.505  0.00  0.00    -0.473 OA
BRANCH  24  25
ATOM     25  C   UNL     1       9.275   2.212  22.863  0.00  0.00    +0.175 C 
ATOM     26  C   UNL     1       9.153   1.410  21.573  0.00  0.00    +0.044 C 
ATOM     27  C   UNL     1       9.045  -0.077  21.858  0.00  0.00    +0.004 C 
ATOM     28  C   UNL     1      10.254  -0.601  22.623  0.00  0.00    +0.000 C 
ATOM     29  C   UNL     1      10.759   0.273  23.771  0.00  0.00    +0.004 C 
ATOM     30  C   UNL     1      10.475   1.777  23.700  0.00  0.00    +0.044 C 
ENDBRANCH  24  25
ENDBRANCH   7  24
TORSDOF 6
ENDMDL
MODEL 7
REMARK VINA RESULT:      -6.4      3.602      5.819
REMARK  Name = 
REMARK  6 active torsions:
REMARK  status: ('A' for Active; 'I' for Inactive)
REMARK    1  A    between atoms: N_1  and  S_2
REMARK    2  A    between atoms: S_2  and  C_5
REMARK    3  A    between atoms: C_8  and  N_9
REMARK    4  A    between atoms: N_9  and  C_10
REMARK    5  A    between atoms: C_12  and  O_13
REMARK    6  A    between atoms: O_13  and  C_14
REMARK                            x       y       z     vdW  Elec       q    Type
REMARK                         _______ _______ _______ _____ _____    ______ ____
ROOT
ATOM      1  C   UNL     1       7.012  -1.103  23.402  0.00  0.00    +0.133 A 
ATOM      2  N   UNL     1       8.374  -1.364  23.119  0.00  0.00    -0.182 N 
ATOM      3  C   UNL     1       8.995  -2.562  23.512  0.00  0.00    +0.258 A 
ATOM      4  N   UNL     1      10.235  -2.563  23.071  0.00  0.00    -0.197 NA
ATOM      5  C   UNL     1      10.344  -1.377  22.413  0.00  0.00    +0.247 A 
ATOM      6  N   UNL     1       8.324  -3.529  24.207  0.00  0.00    -0.175 NA
ATOM      7  C   UNL     1       7.075  -3.287  24.411  0.00  0.00    +0.221 A 
ATOM      8  N   UNL     1       9.263  -0.596  22.431  0.00  0.00    -0.151 NA
ATOM      9  C   UNL     1       6.312  -2.080  24.009  0.00  0.00    +0.111 A 
ENDROOT
BRANCH   1  10
ATOM     10  N   UNL     1       6.458   0.097  22.950  0.00  0.00    -0.299 N 
ATOM     11  H   UNL     1       6.281   0.050  21.939  0.00  0.00    +0.154 HD
BRANCH  10  15
ATOM     12  C   UNL     1       8.134   3.912  23.657  0.00  0.00    +0.105 A 
ATOM     13  C   UNL     1       7.597   3.592  22.415  0.00  0.00    +0.030 A 
ATOM     14  C   UNL     1       7.004   2.340  22.225  0.00  0.00    +0.025 A 
ATOM     15  C   UNL     1       6.924   1.404  23.267  0.00  0.00    +0.032 A 
ATOM     16  C   UNL     1       7.404   1.776  24.532  0.00  0.00    +0.025 A 
ATOM     17  C   UNL     1       8.012   3.028  24.731  0.00  0.00    +0.030 A 
BRANCH  12  18
ATOM     18  S   UNL     1       9.056   5.408  23.844  0.00  0.00    +0.056 S 
ATOM     19  O   UNL     1       8.615   6.375  22.856  0.00  0.00    -0.153 OA
ATOM     20  O   UNL     1       9.159   5.726  25.245  0.00  0.00    -0.153 OA
BRANCH  18  21
ATOM     21  N   UNL     1      10.597   4.950  23.343  0.00  0.00    -0.204 NA
ATOM     22  H   UNL     1      11.265   5.695  23.540  0.00  0.00    +0.144 HD
ATOM     23  H   UNL     1      10.847   4.057  23.769  0.00  0.00    +0.144 HD
ENDBRANCH  18  21
ENDBRANCH  12  18
ENDBRANCH  10  15
ENDBRANCH   1  10
BRANCH   7  24
ATOM     24  O   UNL     1       6.206  -4.099  25.041  0.00  0.00    -0.473 OA
BRANCH  24  25
ATOM     25  C   UNL     1       5.986  -5.527  24.864  0.00  0.00    +0.175 C 
ATOM     26  C   UNL     1       5.691  -5.831  23.401  0.00  0.00    +0.044 C 
ATOM     27  C   UNL     1       4.267  -5.456  23.037  0.00  0.00    +0.004 C 
ATOM     28  C   UNL     1       3.246  -6.201  23.885  0.00  0.00    +0.000 C 
ATOM     29  C   UNL     1       3.556  -6.309  25.378  0.00  0.00    +0.004 C 
ATOM     30  C   UNL     1       5.025  -6.246  25.807  0.00  0.00    +0.044 C 
ENDBRANCH  24  25
ENDBRANCH   7  24
TORSDOF 6
ENDMDL
MODEL 8
REMARK VINA RESULT:      -6.4      4.329      8.474
REMARK  Name = 
REMARK  6 active torsions:
REMARK  status: ('A' for Active; 'I' for Inactive)
REMARK    1  A    between atoms: N_1  and  S_2
REMARK    2  A    between atoms: S_2  and  C_5
REMARK    3  A    between atoms: C_8  and  N_9
REMARK    4  A    between atoms: N_9  and  C_10
REMARK    5  A    between atoms: C_12  and  O_13
REMARK    6  A    between atoms: O_13  and  C_14
REMARK                            x       y       z     vdW  Elec       q    Type
REMARK                         _______ _______ _______ _____ _____    ______ ____
ROOT
ATOM      1  C   UNL     1       7.185   0.111  23.864  0.00  0.00    +0.133 A 
ATOM      2  N   UNL     1       8.195  -0.352  22.988  0.00  0.00    -0.182 N 
ATOM      3  C   UNL     1       9.392   0.359  22.796  0.00  0.00    +0.258 A 
ATOM      4  N   UNL     1      10.167  -0.324  21.982  0.00  0.00    -0.197 NA
ATOM      5  C   UNL     1       9.438  -1.438  21.701  0.00  0.00    +0.247 A 
ATOM      6  N   UNL     1       9.636   1.547  23.429  0.00  0.00    -0.175 NA
ATOM      7  C   UNL     1       8.722   1.922  24.256  0.00  0.00    +0.221 A 
ATOM      8  N   UNL     1       8.226  -1.500  22.256  0.00  0.00    -0.151 NA
ATOM      9  C   UNL     1       7.443   1.233  24.562  0.00  0.00    +0.111 A 
ENDROOT
BRANCH   1  10
ATOM     10  N   UNL     1       6.036  -0.669  24.026  0.00  0.00    -0.299 N 
ATOM     11  H   UNL     1       5.232  -0.073  24.259  0.00  0.00    +0.154 HD
BRANCH  10  15
ATOM     12  C   UNL     1       6.073  -4.128  26.453  0.00  0.00    +0.105 A 
ATOM     13  C   UNL     1       5.798  -2.880  27.001  0.00  0.00    +0.030 A 
ATOM     14  C   UNL     1       5.743  -1.760  26.165  0.00  0.00    +0.025 A 
ATOM     15  C   UNL     1       5.944  -1.872  24.781  0.00  0.00    +0.032 A 
ATOM     16  C   UNL     1       6.145  -3.150  24.239  0.00  0.00    +0.025 A 
ATOM     17  C   UNL     1       6.213  -4.281  25.072  0.00  0.00    +0.030 A 
BRANCH  12  18
ATOM     18  S   UNL     1       6.338  -5.507  27.526  0.00  0.00    +0.056 S 
ATOM     19  O   UNL     1       6.214  -5.077  28.907  0.00  0.00    -0.153 OA
ATOM     20  O   UNL     1       5.634  -6.651  27.007  0.00  0.00    -0.153 OA
BRANCH  18  21
ATOM     21  N   UNL     1       7.979  -5.820  27.318  0.00  0.00    -0.204 NA
ATOM     22  H   UNL     1       8.522  -5.339  28.035  0.00  0.00    +0.144 HD
ATOM     23  H   UNL     1       8.138  -6.828  27.295  0.00  0.00    +0.144 HD
ENDBRANCH  18  21
ENDBRANCH  12  18
ENDBRANCH  10  15
ENDBRANCH   1  10
BRANCH   7  24
ATOM     24  O   UNL     1       8.751   3.034  25.014  0.00  0.00    -0.473 OA
BRANCH  24  25
ATOM     25  C   UNL     1       8.037   4.289  24.834  0.00  0.00    +0.175 C 
ATOM     26  C   UNL     1       8.518   4.983  23.566  0.00  0.00    +0.044 C 
ATOM     27  C   UNL     1       9.863   5.652  23.780  0.00  0.00    +0.004 C 
ATOM     28  C   UNL     1       9.813   6.691  24.893  0.00  0.00    +0.000 C 
ATOM     29  C   UNL     1       9.046   6.295  26.154  0.00  0.00    +0.004 C 
ATOM     30  C   UNL     1       7.933   5.252  26.013  0.00  0.00    +0.044 C 
ENDBRANCH  24  25
ENDBRANCH   7  24
TORSDOF 6
ENDMDL
MODEL 9
REMARK VINA RESULT:      -6.3      4.045      6.215
REMARK  Name = 
REMARK  6 active torsions:
REMARK  status: ('A' for Active; 'I' for Inactive)
REMARK    1  A    between atoms: N_1  and  S_2
REMARK    2  A    between atoms: S_2  and  C_5
REMARK    3  A    between atoms: C_8  and  N_9
REMARK    4  A    between atoms: N_9  and  C_10
REMARK    5  A    between atoms: C_12  and  O_13
REMARK    6  A    between atoms: O_13  and  C_14
REMARK                            x       y       z     vdW  Elec       q    Type
REMARK                         _______ _______ _______ _____ _____    ______ ____
ROOT
ATOM      1  C   UNL     1       7.321  -0.553  24.045  0.00  0.00    +0.133 A 
ATOM      2  N   UNL     1       8.621  -0.728  23.513  0.00  0.00    -0.182 N 
ATOM      3  C   UNL     1       8.908  -1.738  22.580  0.00  0.00    +0.258 A 
ATOM      4  N   UNL     1      10.168  -1.633  22.214  0.00  0.00    -0.197 NA
ATOM      5  C   UNL     1      10.620  -0.562  22.920  0.00  0.00    +0.247 A 
ATOM      6  N   UNL     1       7.954  -2.620  22.152  0.00  0.00    -0.175 NA
ATOM      7  C   UNL     1       6.770  -2.409  22.615  0.00  0.00    +0.221 A 
ATOM      8  N   UNL     1       9.741   0.010  23.744  0.00  0.00    -0.151 NA
ATOM      9  C   UNL     1       6.349  -1.355  23.572  0.00  0.00    +0.111 A 
ENDROOT
BRANCH   1  10
ATOM     10  N   UNL     1       7.107   0.494  24.945  0.00  0.00    -0.299 N 
ATOM     11  H   UNL     1       6.241   0.336  25.477  0.00  0.00    +0.154 HD
BRANCH  10  15
ATOM     12  C   UNL     1       7.616   4.519  23.762  0.00  0.00    +0.105 A 
ATOM     13  C   UNL     1       6.841   3.650  23.003  0.00  0.00    +0.030 A 
ATOM     14  C   UNL     1       6.649   2.337  23.445  0.00  0.00    +0.025 A 
ATOM     15  C   UNL     1       7.209   1.883  24.650  0.00  0.00    +0.032 A 
ATOM     16  C   UNL     1       7.924   2.798  25.437  0.00  0.00    +0.025 A 
ATOM     17  C   UNL     1       8.132   4.117  24.996  0.00  0.00    +0.030 A 
BRANCH  12  18
ATOM     18  S   UNL     1       8.023   6.111  23.111  0.00  0.00    +0.056 S 
ATOM     19  O   UNL     1       7.128   7.107  23.671  0.00  0.00    -0.153 OA
ATOM     20  O   UNL     1       9.455   6.270  23.114  0.00  0.00    -0.153 OA
BRANCH  18  21
ATOM     21  N   UNL     1       7.561   5.973  21.498  0.00  0.00    -0.204 NA
ATOM     22  H   UNL     1       6.676   5.469  21.429  0.00  0.00    +0.144 HD
ATOM     23  H   UNL     1       7.538   6.897  21.065  0.00  0.00    +0.144 HD
ENDBRANCH  18  21
ENDBRANCH  12  18
ENDBRANCH  10  15
ENDBRANCH   1  10
BRANCH   7  24
ATOM     24  O   UNL     1       5.668  -3.121  22.317  0.00  0.00    -0.473 OA
BRANCH  24  25
ATOM     25  C   UNL     1       5.324  -4.484  22.692  0.00  0.00    +0.175 C 
ATOM     26  C   UNL     1       3.950  -4.513  23.350  0.00  0.00    +0.044 C 
ATOM     27  C   UNL     1       4.015  -4.018  24.783  0.00  0.00    +0.004 C 
ATOM     28  C   UNL     1       4.959  -4.858  25.634  0.00  0.00    +0.000 C 
ATOM     29  C   UNL     1       6.291  -5.241  24.990  0.00  0.00    +0.004 C 
ATOM     30  C   UNL     1       6.346  -5.317  23.461  0.00  0.00    +0.044 C 
ENDBRANCH  24  25
ENDBRANCH   7  24
TORSDOF 6
ENDMDL
