MODEL 1
REMARK VINA RESULT:      -4.4      0.000      0.000
REMARK  Name = 
REMARK  1 active torsions:
REMARK  status: ('A' for Active; 'I' for Inactive)
REMARK    1  A    between atoms: O_1  and  C_2
REMARK                            x       y       z     vdW  Elec       q    Type
REMARK                         _______ _______ _______ _____ _____    ______ ____
ROOT
ATOM      1  C   UNL     1       9.783   1.160  22.265  0.00  0.00    +0.142 A 
ATOM      2  C   UNL     1       9.851   1.596  23.650  0.00  0.00    +0.098 A 
ATOM      3 CL   UNL     1       9.618   3.253  24.064  0.00  0.00    -0.078 Cl
ATOM      4  C   UNL     1      10.100   0.692  24.609  0.00  0.00    +0.109 A 
ATOM      5  N   UNL     1      10.288  -0.632  24.292  0.00  0.00    -0.327 N 
ATOM      6  H   UNL     1      10.474  -1.311  25.021  0.00  0.00    +0.168 HD
ATOM      7  C   UNL     1      10.240  -1.124  23.011  0.00  0.00    +0.252 A 
ATOM      8  O   UNL     1      10.410  -2.307  22.745  0.00  0.00    -0.268 OA
ATOM      9  C   UNL     1       9.966  -0.130  21.941  0.00  0.00    +0.117 A 
ENDROOT
BRANCH   1  10
ATOM     10  O   UNL     1       9.524   2.134  21.324  0.00  0.00    -0.505 OA
ATOM     11  H   UNL     1       9.262   1.708  20.490  0.00  0.00    +0.292 HD
ENDBRANCH   1  10
TORSDOF 1
ENDMDL
MODEL 2
REMARK VINA RESULT:      -4.4      2.362      3.302
REMARK  Name = 
REMARK  1 active torsions:
REMARK  status: ('A' for Active; 'I' for Inactive)
REMARK    1  A    between atoms: O_1  and  C_2
REMARK                            x       y       z     vdW  Elec       q    Type
REMARK                         _______ _______ _______ _____ _____    ______ ____
ROOT
ATOM      1  C   UNL     1       9.994  -0.041  22.337  0.00  0.00    +0.142 A 
ATOM      2  C   UNL     1      10.089  -0.731  23.612  0.00  0.00    +0.098 A 
ATOM      3 CL   UNL     1      10.003  -2.452  23.692  0.00  0.00    -0.078 Cl
ATOM      4  C   UNL     1      10.245  -0.014  24.735  0.00  0.00    +0.109 A 
ATOM      5  N   UNL     1      10.316   1.358  24.685  0.00  0.00    -0.327 N 
ATOM      6  H   UNL     1      10.435   1.896  25.536  0.00  0.00    +0.168 HD
ATOM      7  C   UNL     1      10.234   2.085  23.522  0.00  0.00    +0.252 A 
ATOM      8  O   UNL     1      10.298   3.306  23.495  0.00  0.00    -0.268 OA
ATOM      9  C   UNL     1      10.060   1.298  22.274  0.00  0.00    +0.117 A 
ENDROOT
BRANCH   1  10
ATOM     10  O   UNL     1       9.836  -0.832  21.219  0.00  0.00    -0.505 OA
ATOM     11  H   UNL     1       9.524  -1.712  21.493  0.00  0.00    +0.292 HD
ENDBRANCH   1  10
TORSDOF 1
ENDMDL
MODEL 3
REMARK VINA RESULT:      -4.2      2.609      3.895
REMARK  Name = 
REMARK  1 active torsions:
REMARK  status: ('A' for Active; 'I' for Inactive)
REMARK    1  A    between atoms: O_1  and  C_2
REMARK                            x       y       z     vdW  Elec       q    Type
REMARK                         _______ _______ _______ _____ _____    ______ ____
ROOT
ATOM      1  C   UNL     1      10.119   0.160  23.670  0.00  0.00    +0.142 A 
ATOM      2  C   UNL     1       9.543  -0.040  22.351  0.00  0.00    +0.098 A 
ATOM      3 CL   UNL     1       8.949  -1.587  21.874  0.00  0.00    -0.078 Cl
ATOM      4  C   UNL     1       9.476   0.997  21.501  0.00  0.00    +0.109 A 
ATOM      5  N   UNL     1       9.945   2.235  21.869  0.00  0.00    -0.327 N 
ATOM      6  H   UNL     1       9.891   3.015  21.225  0.00  0.00    +0.168 HD
ATOM      7  C   UNL     1      10.504   2.506  23.094  0.00  0.00    +0.252 A 
ATOM      8  O   UNL     1      10.917   3.615  23.407  0.00  0.00    -0.268 OA
ATOM      9  C   UNL     1      10.583   1.364  24.042  0.00  0.00    +0.117 A 
ENDROOT
BRANCH   1  10
ATOM     10  O   UNL     1      10.160  -0.941  24.499  0.00  0.00    -0.505 OA
ATOM     11  H   UNL     1       9.507  -1.593  24.193  0.00  0.00    +0.292 HD
ENDBRANCH   1  10
TORSDOF 1
ENDMDL
MODEL 4
REMARK VINA RESULT:      -4.2      5.904      7.152
REMARK  Name = 
REMARK  1 active torsions:
REMARK  status: ('A' for Active; 'I' for Inactive)
REMARK    1  A    between atoms: O_1  and  C_2
REMARK                            x       y       z     vdW  Elec       q    Type
REMARK                         _______ _______ _______ _____ _____    ______ ____
ROOT
ATOM      1  C   UNL     1       7.909  -5.310  26.395  0.00  0.00    +0.142 A 
ATOM      2  C   UNL     1       6.754  -5.437  25.521  0.00  0.00    +0.098 A 
ATOM      3 CL   UNL     1       5.338  -6.267  26.048  0.00  0.00    -0.078 Cl
ATOM      4  C   UNL     1       6.800  -4.900  24.293  0.00  0.00    +0.109 A 
ATOM      5  N   UNL     1       7.923  -4.236  23.861  0.00  0.00    -0.327 N 
ATOM      6  H   UNL     1       7.952  -3.831  22.932  0.00  0.00    +0.168 HD
ATOM      7  C   UNL     1       9.054  -4.073  24.623  0.00  0.00    +0.252 A 
ATOM      8  O   UNL     1      10.046  -3.478  24.223  0.00  0.00    -0.268 OA
ATOM      9  C   UNL     1       9.012  -4.665  25.985  0.00  0.00    +0.117 A 
ENDROOT
BRANCH   1  10
ATOM     10  O   UNL     1       7.801  -5.882  27.645  0.00  0.00    -0.505 OA
ATOM     11  H   UNL     1       7.699  -5.178  28.308  0.00  0.00    +0.292 HD
ENDBRANCH   1  10
TORSDOF 1
ENDMDL
MODEL 5
REMARK VINA RESULT:      -4.1      1.926      2.425
REMARK  Name = 
REMARK  1 active torsions:
REMARK  status: ('A' for Active; 'I' for Inactive)
REMARK    1  A    between atoms: O_1  and  C_2
REMARK                            x       y       z     vdW  Elec       q    Type
REMARK                         _______ _______ _______ _____ _____    ______ ____
ROOT
ATOM      1  C   UNL     1       9.935   0.244  24.130  0.00  0.00    +0.142 A 
ATOM      2  C   UNL     1       9.929   0.501  22.699  0.00  0.00    +0.098 A 
ATOM      3 CL   UNL     1       9.967   2.115  22.093  0.00  0.00    -0.078 Cl
ATOM      4  C   UNL     1       9.894  -0.536  21.848  0.00  0.00    +0.109 A 
ATOM      5  N   UNL     1       9.864  -1.827  22.319  0.00  0.00    -0.327 N 
ATOM      6  H   UNL     1       9.838  -2.606  21.672  0.00  0.00    +0.168 HD
ATOM      7  C   UNL     1       9.866  -2.153  23.653  0.00  0.00    +0.252 A 
ATOM      8  O   UNL     1       9.839  -3.309  24.055  0.00  0.00    -0.268 OA
ATOM      9  C   UNL     1       9.905  -1.012  24.603  0.00  0.00    +0.117 A 
ENDROOT
BRANCH   1  10
ATOM     10  O   UNL     1       9.974   1.349  24.954  0.00  0.00    -0.505 OA
ATOM     11  H   UNL     1      10.624   1.197  25.660  0.00  0.00    +0.292 HD
ENDBRANCH   1  10
TORSDOF 1
ENDMDL
MODEL 6
REMARK VINA RESULT:      -4.0      3.024      4.013
REMARK  Name = 
REMARK  1 active torsions:
REMARK  status: ('A' for Active; 'I' for Inactive)
REMARK    1  A    between atoms: O_1  and  C_2
REMARK                            x       y       z     vdW  Elec       q    Type
REMARK                         _______ _______ _______ _____ _____    ______ ____
ROOT
ATOM      1  C   UNL     1       9.271  -0.743  21.832  0.00  0.00    +0.142 A 
ATOM      2  C   UNL     1       8.179  -1.346  22.579  0.00  0.00    +0.098 A 
ATOM      3 CL   UNL     1       8.191  -3.029  22.954  0.00  0.00    -0.078 Cl
ATOM      4  C   UNL     1       7.155  -0.576  22.977  0.00  0.00    +0.109 A 
ATOM      5  N   UNL     1       7.134   0.767  22.685  0.00  0.00    -0.327 N 
ATOM      6  H   UNL     1       6.358   1.345  22.989  0.00  0.00    +0.168 HD
ATOM      7  C   UNL     1       8.124   1.411  21.984  0.00  0.00    +0.252 A 
ATOM      8  O   UNL     1       8.089   2.609  21.732  0.00  0.00    -0.268 OA
ATOM      9  C   UNL     1       9.262   0.567  21.539  0.00  0.00    +0.117 A 
ENDROOT
BRANCH   1  10
ATOM     10  O   UNL     1      10.295  -1.584  21.451  0.00  0.00    -0.505 OA
ATOM     11  H   UNL     1      10.575  -1.356  20.549  0.00  0.00    +0.292 HD
ENDBRANCH   1  10
TORSDOF 1
ENDMDL
MODEL 7
REMARK VINA RESULT:      -3.9      3.045      3.979
REMARK  Name = 
REMARK  1 active torsions:
REMARK  status: ('A' for Active; 'I' for Inactive)
REMARK    1  A    between atoms: O_1  and  C_2
REMARK                            x       y       z     vdW  Elec       q    Type
REMARK                         _______ _______ _______ _____ _____    ______ ____
ROOT
ATOM      1  C   UNL     1       8.881   1.807  21.944  0.00  0.00    +0.142 A 
ATOM      2  C   UNL     1       8.736   0.411  22.322  0.00  0.00    +0.098 A 
ATOM      3 CL   UNL     1      10.080  -0.666  22.249  0.00  0.00    -0.078 Cl
ATOM      4  C   UNL     1       7.539  -0.036  22.732  0.00  0.00    +0.109 A 
ATOM      5  N   UNL     1       6.459   0.813  22.795  0.00  0.00    -0.327 N 
ATOM      6  H   UNL     1       5.557   0.471  23.106  0.00  0.00    +0.168 HD
ATOM      7  C   UNL     1       6.512   2.142  22.455  0.00  0.00    +0.252 A 
ATOM      8  O   UNL     1       5.541   2.885  22.517  0.00  0.00    -0.268 OA
ATOM      9  C   UNL     1       7.834   2.646  22.000  0.00  0.00    +0.117 A 
ENDROOT
BRANCH   1  10
ATOM     10  O   UNL     1      10.134   2.207  21.532  0.00  0.00    -0.505 OA
ATOM     11  H   UNL     1      10.453   2.910  22.123  0.00  0.00    +0.292 HD
ENDBRANCH   1  10
TORSDOF 1
ENDMDL
MODEL 8
REMARK VINA RESULT:      -3.9      2.388      2.699
REMARK  Name = 
REMARK  1 active torsions:
REMARK  status: ('A' for Active; 'I' for Inactive)
REMARK    1  A    between atoms: O_1  and  C_2
REMARK                            x       y       z     vdW  Elec       q    Type
REMARK                         _______ _______ _______ _____ _____    ______ ____
ROOT
ATOM      1  C   UNL     1       7.764  -0.635  22.947  0.00  0.00    +0.142 A 
ATOM      2  C   UNL     1       8.672   0.199  22.176  0.00  0.00    +0.098 A 
ATOM      3 CL   UNL     1       8.111   1.640  21.413  0.00  0.00    -0.078 Cl
ATOM      4  C   UNL     1       9.958  -0.165  22.062  0.00  0.00    +0.109 A 
ATOM      5  N   UNL     1      10.417  -1.312  22.666  0.00  0.00    -0.327 N 
ATOM      6  H   UNL     1      11.390  -1.582  22.578  0.00  0.00    +0.168 HD
ATOM      7  C   UNL     1       9.625  -2.152  23.409  0.00  0.00    +0.252 A 
ATOM      8  O   UNL     1      10.050  -3.170  23.941  0.00  0.00    -0.268 OA
ATOM      9  C   UNL     1       8.199  -1.757  23.540  0.00  0.00    +0.117 A 
ENDROOT
BRANCH   1  10
ATOM     10  O   UNL     1       6.455  -0.209  23.028  0.00  0.00    -0.505 OA
ATOM     11  H   UNL     1       5.918  -0.907  23.439  0.00  0.00    +0.292 HD
ENDBRANCH   1  10
TORSDOF 1
ENDMDL
MODEL 9
REMARK VINA RESULT:      -3.9      1.970      2.044
REMARK  Name = 
REMARK  1 active torsions:
REMARK  status: ('A' for Active; 'I' for Inactive)
REMARK    1  A    between atoms: O_1  and  C_2
REMARK                            x       y       z     vdW  Elec       q    Type
REMARK                         _______ _______ _______ _____ _____    ______ ____
ROOT
ATOM      1  C   UNL     1       8.960   0.513  21.873  0.00  0.00    +0.142 A 
ATOM      2  C   UNL     1       7.743   0.434  22.664  0.00  0.00    +0.098 A 
ATOM      3 CL   UNL     1       6.544   1.669  22.562  0.00  0.00    -0.078 Cl
ATOM      4  C   UNL     1       7.560  -0.614  23.481  0.00  0.00    +0.109 A 
ATOM      5  N   UNL     1       8.508  -1.605  23.572  0.00  0.00    -0.327 N 
ATOM      6  H   UNL     1       8.365  -2.396  24.190  0.00  0.00    +0.168 HD
ATOM      7  C   UNL     1       9.683  -1.605  22.860  0.00  0.00    +0.252 A 
ATOM      8  O   UNL     1      10.517  -2.496  22.952  0.00  0.00    -0.268 OA
ATOM      9  C   UNL     1       9.894  -0.447  21.953  0.00  0.00    +0.117 A 
ENDROOT
BRANCH   1  10
ATOM     10  O   UNL     1       9.091   1.613  21.052  0.00  0.00    -0.505 OA
ATOM     11  H   UNL     1       8.264   2.124  21.071  0.00  0.00    +0.292 HD
ENDBRANCH   1  10
TORSDOF 1
ENDMDL
