MODEL 1
REMARK VINA RESULT:      -4.3      0.000      0.000
REMARK  Name = 
REMARK  3 active torsions:
REMARK  status: ('A' for Active; 'I' for Inactive)
REMARK    1  A    between atoms: O_1  and  C_2
REMARK    2  A    between atoms: C_2  and  C_3
REMARK    3  A    between atoms: C_3  and  C_4
REMARK                            x       y       z     vdW  Elec       q    Type
REMARK                         _______ _______ _______ _____ _____    ______ ____
ROOT
ATOM      1  C   UNL     1      10.213  -0.409  22.921  0.00  0.00    -0.045 A 
ATOM      2  C   UNL     1       9.753   0.323  21.819  0.00  0.00    +0.004 A 
ATOM      3  C   UNL     1       9.758   1.719  21.843  0.00  0.00    +0.000 A 
ATOM      4  C   UNL     1      10.221   2.394  22.971  0.00  0.00    +0.000 A 
ATOM      5  C   UNL     1      10.673   1.676  24.075  0.00  0.00    +0.000 A 
ATOM      6  C   UNL     1      10.668   0.280  24.052  0.00  0.00    +0.004 A 
ENDROOT
BRANCH   1   7
ATOM      7  C   UNL     1      10.202  -1.915  22.895  0.00  0.00    +0.063 C 
BRANCH   7   8
ATOM      8  C   UNL     1       9.484  -2.511  24.102  0.00  0.00    +0.160 C 
BRANCH   8   9
ATOM      9  O   UNL     1       9.999  -3.813  24.359  0.00  0.00    -0.395 OA
ATOM     10  H   UNL     1       9.412  -4.444  23.910  0.00  0.00    +0.209 HD
ENDBRANCH   8   9
ENDBRANCH   7   8
ENDBRANCH   1   7
TORSDOF 3
ENDMDL
MODEL 2
REMARK VINA RESULT:      -4.3      0.038      1.609
REMARK  Name = 
REMARK  3 active torsions:
REMARK  status: ('A' for Active; 'I' for Inactive)
REMARK    1  A    between atoms: O_1  and  C_2
REMARK    2  A    between atoms: C_2  and  C_3
REMARK    3  A    between atoms: C_3  and  C_4
REMARK                            x       y       z     vdW  Elec       q    Type
REMARK                         _______ _______ _______ _____ _____    ______ ____
ROOT
ATOM      1  C   UNL     1      10.213  -0.425  22.952  0.00  0.00    -0.045 A 
ATOM      2  C   UNL     1      10.657   0.274  24.082  0.00  0.00    +0.004 A 
ATOM      3  C   UNL     1      10.657   1.670  24.097  0.00  0.00    +0.000 A 
ATOM      4  C   UNL     1      10.217   2.379  22.980  0.00  0.00    +0.000 A 
ATOM      5  C   UNL     1       9.782   1.694  21.848  0.00  0.00    +0.000 A 
ATOM      6  C   UNL     1       9.781   0.297  21.833  0.00  0.00    +0.004 A 
ENDROOT
BRANCH   1   7
ATOM      7  C   UNL     1      10.218  -1.931  22.937  0.00  0.00    +0.063 C 
BRANCH   7   8
ATOM      8  C   UNL     1       9.503  -2.526  24.146  0.00  0.00    +0.160 C 
BRANCH   8   9
ATOM      9  O   UNL     1       9.980  -3.848  24.371  0.00  0.00    -0.395 OA
ATOM     10  H   UNL     1       9.362  -4.271  24.990  0.00  0.00    +0.209 HD
ENDBRANCH   8   9
ENDBRANCH   7   8
ENDBRANCH   1   7
TORSDOF 3
ENDMDL
MODEL 3
REMARK VINA RESULT:      -4.2      3.329      4.682
REMARK  Name = 
REMARK  3 active torsions:
REMARK  status: ('A' for Active; 'I' for Inactive)
REMARK    1  A    between atoms: O_1  and  C_2
REMARK    2  A    between atoms: C_2  and  C_3
REMARK    3  A    between atoms: C_3  and  C_4
REMARK                            x       y       z     vdW  Elec       q    Type
REMARK                         _______ _______ _______ _____ _____    ______ ____
ROOT
ATOM      1  C   UNL     1      10.296   2.160  23.269  0.00  0.00    -0.045 A 
ATOM      2  C   UNL     1       9.874   1.689  22.019  0.00  0.00    +0.004 A 
ATOM      3  C   UNL     1       9.782   0.318  21.772  0.00  0.00    +0.000 A 
ATOM      4  C   UNL     1      10.115  -0.594  22.772  0.00  0.00    +0.000 A 
ATOM      5  C   UNL     1      10.543  -0.137  24.017  0.00  0.00    +0.000 A 
ATOM      6  C   UNL     1      10.636   1.234  24.264  0.00  0.00    +0.004 A 
ENDROOT
BRANCH   1   7
ATOM      7  C   UNL     1      10.400   3.639  23.532  0.00  0.00    +0.063 C 
BRANCH   7   8
ATOM      8  C   UNL     1      11.809   4.173  23.299  0.00  0.00    +0.160 C 
BRANCH   8   9
ATOM      9  O   UNL     1      11.732   5.428  22.632  0.00  0.00    -0.395 OA
ATOM     10  H   UNL     1      12.498   5.480  22.035  0.00  0.00    +0.209 HD
ENDBRANCH   8   9
ENDBRANCH   7   8
ENDBRANCH   1   7
TORSDOF 3
ENDMDL
MODEL 4
REMARK VINA RESULT:      -4.1      2.836      4.446
REMARK  Name = 
REMARK  3 active torsions:
REMARK  status: ('A' for Active; 'I' for Inactive)
REMARK    1  A    between atoms: O_1  and  C_2
REMARK    2  A    between atoms: C_2  and  C_3
REMARK    3  A    between atoms: C_3  and  C_4
REMARK                            x       y       z     vdW  Elec       q    Type
REMARK                         _______ _______ _______ _____ _____    ______ ____
ROOT
ATOM      1  C   UNL     1       9.978   0.636  22.509  0.00  0.00    -0.045 A 
ATOM      2  C   UNL     1      10.218   0.160  23.804  0.00  0.00    +0.004 A 
ATOM      3  C   UNL     1       9.981  -1.179  24.122  0.00  0.00    +0.000 A 
ATOM      4  C   UNL     1       9.497  -2.051  23.148  0.00  0.00    +0.000 A 
ATOM      5  C   UNL     1       9.247  -1.585  21.859  0.00  0.00    +0.000 A 
ATOM      6  C   UNL     1       9.484  -0.247  21.541  0.00  0.00    +0.004 A 
ENDROOT
BRANCH   1   7
ATOM      7  C   UNL     1      10.230   2.082  22.170  0.00  0.00    +0.063 C 
BRANCH   7   8
ATOM      8  C   UNL     1      10.636   2.902  23.390  0.00  0.00    +0.160 C 
BRANCH   8   9
ATOM      9  O   UNL     1      11.414   4.018  22.969  0.00  0.00    -0.395 OA
ATOM     10  H   UNL     1      11.229   4.743  23.590  0.00  0.00    +0.209 HD
ENDBRANCH   8   9
ENDBRANCH   7   8
ENDBRANCH   1   7
TORSDOF 3
ENDMDL
MODEL 5
REMARK VINA RESULT:      -3.8      4.228      5.592
REMARK  Name = 
REMARK  3 active torsions:
REMARK  status: ('A' for Active; 'I' for Inactive)
REMARK    1  A    between atoms: O_1  and  C_2
REMARK    2  A    between atoms: C_2  and  C_3
REMARK    3  A    between atoms: C_3  and  C_4
REMARK                            x       y       z     vdW  Elec       q    Type
REMARK                         _______ _______ _______ _____ _____    ______ ____
ROOT
ATOM      1  C   UNL     1       7.991   3.296  22.612  0.00  0.00    -0.045 A 
ATOM      2  C   UNL     1       7.751   2.251  21.710  0.00  0.00    +0.004 A 
ATOM      3  C   UNL     1       8.731   1.286  21.467  0.00  0.00    +0.000 A 
ATOM      4  C   UNL     1       9.959   1.359  22.121  0.00  0.00    +0.000 A 
ATOM      5  C   UNL     1      10.211   2.399  23.014  0.00  0.00    +0.000 A 
ATOM      6  C   UNL     1       9.232   3.365  23.257  0.00  0.00    +0.004 A 
ENDROOT
BRANCH   1   7
ATOM      7  C   UNL     1       6.935   4.339  22.869  0.00  0.00    +0.063 C 
BRANCH   7   8
ATOM      8  C   UNL     1       7.474   5.758  22.721  0.00  0.00    +0.160 C 
BRANCH   8   9
ATOM      9  O   UNL     1       7.523   6.101  21.341  0.00  0.00    -0.395 OA
ATOM     10  H   UNL     1       7.188   7.011  21.262  0.00  0.00    +0.209 HD
ENDBRANCH   8   9
ENDBRANCH   7   8
ENDBRANCH   1   7
TORSDOF 3
ENDMDL
MODEL 6
REMARK VINA RESULT:      -3.8      2.454      4.115
REMARK  Name = 
REMARK  3 active torsions:
REMARK  status: ('A' for Active; 'I' for Inactive)
REMARK    1  A    between atoms: O_1  and  C_2
REMARK    2  A    between atoms: C_2  and  C_3
REMARK    3  A    between atoms: C_3  and  C_4
REMARK                            x       y       z     vdW  Elec       q    Type
REMARK                         _______ _______ _______ _____ _____    ______ ____
ROOT
ATOM      1  C   UNL     1      10.088   0.180  24.180  0.00  0.00    -0.045 A 
ATOM      2  C   UNL     1      10.359  -0.857  23.278  0.00  0.00    +0.004 A 
ATOM      3  C   UNL     1       9.875  -2.145  23.514  0.00  0.00    +0.000 A 
ATOM      4  C   UNL     1       9.120  -2.408  24.655  0.00  0.00    +0.000 A 
ATOM      5  C   UNL     1       8.852  -1.385  25.563  0.00  0.00    +0.000 A 
ATOM      6  C   UNL     1       9.336  -0.097  25.328  0.00  0.00    +0.004 A 
ENDROOT
BRANCH   1   7
ATOM      7  C   UNL     1      10.615   1.569  23.926  0.00  0.00    +0.063 C 
BRANCH   7   8
ATOM      8  C   UNL     1       9.727   2.360  22.971  0.00  0.00    +0.160 C 
BRANCH   8   9
ATOM      9  O   UNL     1      10.285   2.313  21.662  0.00  0.00    -0.395 OA
ATOM     10  H   UNL     1       9.545   2.380  21.036  0.00  0.00    +0.209 HD
ENDBRANCH   8   9
ENDBRANCH   7   8
ENDBRANCH   1   7
TORSDOF 3
ENDMDL
MODEL 7
REMARK VINA RESULT:      -3.8      2.590      4.337
REMARK  Name = 
REMARK  3 active torsions:
REMARK  status: ('A' for Active; 'I' for Inactive)
REMARK    1  A    between atoms: O_1  and  C_2
REMARK    2  A    between atoms: C_2  and  C_3
REMARK    3  A    between atoms: C_3  and  C_4
REMARK                            x       y       z     vdW  Elec       q    Type
REMARK                         _______ _______ _______ _____ _____    ______ ____
ROOT
ATOM      1  C   UNL     1       9.453  -1.123  23.080  0.00  0.00    -0.045 A 
ATOM      2  C   UNL     1       8.412  -1.497  22.221  0.00  0.00    +0.004 A 
ATOM      3  C   UNL     1       7.759  -2.720  22.390  0.00  0.00    +0.000 A 
ATOM      4  C   UNL     1       8.144  -3.579  23.417  0.00  0.00    +0.000 A 
ATOM      5  C   UNL     1       9.184  -3.220  24.272  0.00  0.00    +0.000 A 
ATOM      6  C   UNL     1       9.838  -1.998  24.103  0.00  0.00    +0.004 A 
ENDROOT
BRANCH   1   7
ATOM      7  C   UNL     1      10.160   0.194  22.893  0.00  0.00    +0.063 C 
BRANCH   7   8
ATOM      8  C   UNL     1       9.575   1.008  21.743  0.00  0.00    +0.160 C 
BRANCH   8   9
ATOM      9  O   UNL     1      10.255   2.256  21.657  0.00  0.00    -0.395 OA
ATOM     10  H   UNL     1       9.971   2.786  22.420  0.00  0.00    +0.209 HD
ENDBRANCH   8   9
ENDBRANCH   7   8
ENDBRANCH   1   7
TORSDOF 3
ENDMDL
MODEL 8
REMARK VINA RESULT:      -3.8      3.195      4.460
REMARK  Name = 
REMARK  3 active torsions:
REMARK  status: ('A' for Active; 'I' for Inactive)
REMARK    1  A    between atoms: O_1  and  C_2
REMARK    2  A    between atoms: C_2  and  C_3
REMARK    3  A    between atoms: C_3  and  C_4
REMARK                            x       y       z     vdW  Elec       q    Type
REMARK                         _______ _______ _______ _____ _____    ______ ____
ROOT
ATOM      1  C   UNL     1       8.769  -4.075  24.387  0.00  0.00    -0.045 A 
ATOM      2  C   UNL     1       7.702  -4.187  23.486  0.00  0.00    +0.004 A 
ATOM      3  C   UNL     1       7.548  -3.262  22.452  0.00  0.00    +0.000 A 
ATOM      4  C   UNL     1       8.458  -2.215  22.312  0.00  0.00    +0.000 A 
ATOM      5  C   UNL     1       9.518  -2.090  23.207  0.00  0.00    +0.000 A 
ATOM      6  C   UNL     1       9.672  -3.015  24.242  0.00  0.00    +0.004 A 
ENDROOT
BRANCH   1   7
ATOM      7  C   UNL     1       8.930  -5.071  25.505  0.00  0.00    +0.063 C 
BRANCH   7   8
ATOM      8  C   UNL     1       8.026  -4.762  26.693  0.00  0.00    +0.160 C 
BRANCH   8   9
ATOM      9  O   UNL     1       7.909  -5.922  27.510  0.00  0.00    -0.395 OA
ATOM     10  H   UNL     1       8.723  -6.439  27.386  0.00  0.00    +0.209 HD
ENDBRANCH   8   9
ENDBRANCH   7   8
ENDBRANCH   1   7
TORSDOF 3
ENDMDL
MODEL 9
REMARK VINA RESULT:      -3.8      1.934      1.946
REMARK  Name = 
REMARK  3 active torsions:
REMARK  status: ('A' for Active; 'I' for Inactive)
REMARK    1  A    between atoms: O_1  and  C_2
REMARK    2  A    between atoms: C_2  and  C_3
REMARK    3  A    between atoms: C_3  and  C_4
REMARK                            x       y       z     vdW  Elec       q    Type
REMARK                         _______ _______ _______ _____ _____    ______ ____
ROOT
ATOM      1  C   UNL     1       9.373  -0.352  22.573  0.00  0.00    -0.045 A 
ATOM      2  C   UNL     1       9.549   0.758  21.736  0.00  0.00    +0.004 A 
ATOM      3  C   UNL     1      10.133   1.928  22.225  0.00  0.00    +0.000 A 
ATOM      4  C   UNL     1      10.542   2.000  23.555  0.00  0.00    +0.000 A 
ATOM      5  C   UNL     1      10.365   0.905  24.398  0.00  0.00    +0.000 A 
ATOM      6  C   UNL     1       9.780  -0.266  23.910  0.00  0.00    +0.004 A 
ENDROOT
BRANCH   1   7
ATOM      7  C   UNL     1       8.739  -1.612  22.045  0.00  0.00    +0.063 C 
BRANCH   7   8
ATOM      8  C   UNL     1       7.563  -2.072  22.901  0.00  0.00    +0.160 C 
BRANCH   8   9
ATOM      9  O   UNL     1       6.501  -1.132  22.786  0.00  0.00    -0.395 OA
ATOM     10  H   UNL     1       6.444  -0.882  21.848  0.00  0.00    +0.209 HD
ENDBRANCH   8   9
ENDBRANCH   7   8
ENDBRANCH   1   7
TORSDOF 3
ENDMDL
