MODEL 1
REMARK VINA RESULT:      -5.1      0.000      0.000
REMARK  Name = 
REMARK  5 active torsions:
REMARK  status: ('A' for Active; 'I' for Inactive)
REMARK    1  A    between atoms: N_1  and  C_2
REMARK    2  A    between atoms: C_5  and  C_6
REMARK    3  A    between atoms: C_6  and  O_7
REMARK    4  A    between atoms: C_11  and  C_12
REMARK    5  A    between atoms: C_12  and  O_13
REMARK                            x       y       z     vdW  Elec       q    Type
REMARK                         _______ _______ _______ _____ _____    ______ ____
ROOT
ATOM      1  C   UNL     1       4.116  -6.652  25.694  0.00  0.00    +0.055 A 
ATOM      2  C   UNL     1       5.185  -6.217  26.511  0.00  0.00    +0.055 A 
ATOM      3 BR   UNL     1       5.017  -6.529  28.400  0.00  0.00    -0.047 Br
ATOM      4  C   UNL     1       6.285  -5.525  25.964  0.00  0.00    +0.089 A 
ATOM      5  C   UNL     1       6.326  -5.286  24.574  0.00  0.00    +0.048 A 
ATOM      6 BR   UNL     1       7.901  -4.511  23.796  0.00  0.00    -0.049 Br
ATOM      7  C   UNL     1       5.250  -5.692  23.749  0.00  0.00    +0.089 A 
ATOM      8  C   UNL     1       4.163  -6.385  24.310  0.00  0.00    +0.055 A 
ATOM      9 BR   UNL     1       2.667  -6.948  23.247  0.00  0.00    -0.047 Br
ENDROOT
BRANCH   1  10
ATOM     10  N   UNL     1       3.137  -7.532  26.209  0.00  0.00    -0.356 N 
ATOM     11  H   UNL     1       3.064  -8.419  25.714  0.00  0.00    +0.142 HD
ATOM     12  H   UNL     1       3.138  -7.635  27.221  0.00  0.00    +0.142 HD
ENDBRANCH   1  10
BRANCH   4  13
ATOM     13  C   UNL     1       7.405  -5.126  26.856  0.00  0.00    +0.339 C 
ATOM     14  O   UNL     1       7.513  -4.002  27.319  0.00  0.00    -0.245 OA
BRANCH  13  15
ATOM     15  O   UNL     1       8.329  -6.088  27.056  0.00  0.00    -0.477 OA
ATOM     16  H   UNL     1       8.085  -6.804  27.673  0.00  0.00    +0.295 HD
ENDBRANCH  13  15
ENDBRANCH   4  13
BRANCH   7  17
ATOM     17  C   UNL     1       5.244  -5.314  22.318  0.00  0.00    +0.339 C 
ATOM     18  O   UNL     1       4.917  -4.198  21.946  0.00  0.00    -0.245 OA
BRANCH  17  19
ATOM     19  O   UNL     1       5.674  -6.273  21.477  0.00  0.00    -0.477 OA
ATOM     20  H   UNL     1       5.245  -6.301  20.599  0.00  0.00    +0.295 HD
ENDBRANCH  17  19
ENDBRANCH   7  17
TORSDOF 5
ENDMDL
MODEL 2
REMARK VINA RESULT:      -5.0      2.461      3.975
REMARK  Name = 
REMARK  5 active torsions:
REMARK  status: ('A' for Active; 'I' for Inactive)
REMARK    1  A    between atoms: N_1  and  C_2
REMARK    2  A    between atoms: C_5  and  C_6
REMARK    3  A    between atoms: C_6  and  O_7
REMARK    4  A    between atoms: C_11  and  C_12
REMARK    5  A    between atoms: C_12  and  O_13
REMARK                            x       y       z     vdW  Elec       q    Type
REMARK                         _______ _______ _______ _____ _____    ______ ____
ROOT
ATOM      1  C   UNL     1       4.494  -6.478  23.800  0.00  0.00    +0.055 A 
ATOM      2  C   UNL     1       5.717  -5.859  23.450  0.00  0.00    +0.055 A 
ATOM      3 BR   UNL     1       6.115  -5.725  21.574  0.00  0.00    -0.047 Br
ATOM      4  C   UNL     1       6.624  -5.428  24.438  0.00  0.00    +0.089 A 
ATOM      5  C   UNL     1       6.293  -5.598  25.799  0.00  0.00    +0.048 A 
ATOM      6 BR   UNL     1       7.435  -4.851  27.149  0.00  0.00    -0.049 Br
ATOM      7  C   UNL     1       5.086  -6.240  26.163  0.00  0.00    +0.089 A 
ATOM      8  C   UNL     1       4.188  -6.659  25.165  0.00  0.00    +0.055 A 
ATOM      9 BR   UNL     1       2.543  -7.549  25.594  0.00  0.00    -0.047 Br
ENDROOT
BRANCH   1  10
ATOM     10  N   UNL     1       3.501  -6.700  22.820  0.00  0.00    -0.356 N 
ATOM     11  H   UNL     1       2.920  -5.888  22.615  0.00  0.00    +0.142 HD
ATOM     12  H   UNL     1       3.817  -7.188  21.986  0.00  0.00    +0.142 HD
ENDBRANCH   1  10
BRANCH   4  13
ATOM     13  C   UNL     1       7.877  -4.744  24.022  0.00  0.00    +0.339 C 
ATOM     14  O   UNL     1       7.910  -3.572  23.685  0.00  0.00    -0.245 OA
BRANCH  13  15
ATOM     15  O   UNL     1       8.962  -5.544  23.981  0.00  0.00    -0.477 OA
ATOM     16  H   UNL     1       9.622  -5.348  23.289  0.00  0.00    +0.295 HD
ENDBRANCH  13  15
ENDBRANCH   4  13
BRANCH   7  17
ATOM     17  C   UNL     1       4.815  -6.534  27.589  0.00  0.00    +0.339 C 
ATOM     18  O   UNL     1       4.119  -5.805  28.278  0.00  0.00    -0.245 OA
BRANCH  17  19
ATOM     19  O   UNL     1       5.351  -7.683  28.042  0.00  0.00    -0.477 OA
ATOM     20  H   UNL     1       6.215  -7.607  28.493  0.00  0.00    +0.295 HD
ENDBRANCH  17  19
ENDBRANCH   7  17
TORSDOF 5
ENDMDL
MODEL 3
REMARK VINA RESULT:      -4.8      2.439      2.981
REMARK  Name = 
REMARK  5 active torsions:
REMARK  status: ('A' for Active; 'I' for Inactive)
REMARK    1  A    between atoms: N_1  and  C_2
REMARK    2  A    between atoms: C_5  and  C_6
REMARK    3  A    between atoms: C_6  and  O_7
REMARK    4  A    between atoms: C_11  and  C_12
REMARK    5  A    between atoms: C_12  and  O_13
REMARK                            x       y       z     vdW  Elec       q    Type
REMARK                         _______ _______ _______ _____ _____    ______ ____
ROOT
ATOM      1  C   UNL     1       4.374  -6.273  23.954  0.00  0.00    +0.055 A 
ATOM      2  C   UNL     1       4.135  -6.458  25.336  0.00  0.00    +0.055 A 
ATOM      3 BR   UNL     1       2.407  -7.133  25.835  0.00  0.00    -0.047 Br
ATOM      4  C   UNL     1       5.100  -6.094  26.297  0.00  0.00    +0.089 A 
ATOM      5  C   UNL     1       6.333  -5.559  25.867  0.00  0.00    +0.048 A 
ATOM      6 BR   UNL     1       7.720  -5.233  27.153  0.00  0.00    -0.049 Br
ATOM      7  C   UNL     1       6.574  -5.343  24.489  0.00  0.00    +0.089 A 
ATOM      8  C   UNL     1       5.603  -5.716  23.543  0.00  0.00    +0.055 A 
ATOM      9 BR   UNL     1       5.865  -5.435  21.663  0.00  0.00    -0.047 Br
ENDROOT
BRANCH   1  10
ATOM     10  N   UNL     1       3.504  -6.842  22.997  0.00  0.00    -0.356 N 
ATOM     11  H   UNL     1       3.734  -7.798  22.732  0.00  0.00    +0.142 HD
ATOM     12  H   UNL     1       2.512  -6.703  23.178  0.00  0.00    +0.142 HD
ENDBRANCH   1  10
BRANCH   4  13
ATOM     13  C   UNL     1       4.821  -6.347  27.734  0.00  0.00    +0.339 C 
ATOM     14  O   UNL     1       4.316  -5.511  28.467  0.00  0.00    -0.245 OA
BRANCH  13  15
ATOM     15  O   UNL     1       5.234  -7.551  28.179  0.00  0.00    -0.477 OA
ATOM     16  H   UNL     1       6.183  -7.635  28.392  0.00  0.00    +0.295 HD
ENDBRANCH  13  15
ENDBRANCH   4  13
BRANCH   7  17
ATOM     17  C   UNL     1       7.815  -4.656  24.063  0.00  0.00    +0.339 C 
ATOM     18  O   UNL     1       7.875  -3.442  23.952  0.00  0.00    -0.245 OA
BRANCH  17  19
ATOM     19  O   UNL     1       8.870  -5.467  23.863  0.00  0.00    -0.477 OA
ATOM     20  H   UNL     1       9.733  -5.139  24.186  0.00  0.00    +0.295 HD
ENDBRANCH  17  19
ENDBRANCH   7  17
TORSDOF 5
ENDMDL
MODEL 4
REMARK VINA RESULT:      -4.8      7.033      7.985
REMARK  Name = 
REMARK  5 active torsions:
REMARK  status: ('A' for Active; 'I' for Inactive)
REMARK    1  A    between atoms: N_1  and  C_2
REMARK    2  A    between atoms: C_5  and  C_6
REMARK    3  A    between atoms: C_6  and  O_7
REMARK    4  A    between atoms: C_11  and  C_12
REMARK    5  A    between atoms: C_12  and  O_13
REMARK                            x       y       z     vdW  Elec       q    Type
REMARK                         _______ _______ _______ _____ _____    ______ ____
ROOT
ATOM      1  C   UNL     1       6.552   1.620  24.329  0.00  0.00    +0.055 A 
ATOM      2  C   UNL     1       6.974   0.642  25.260  0.00  0.00    +0.055 A 
ATOM      3 BR   UNL     1       5.614  -0.152  26.362  0.00  0.00    -0.047 Br
ATOM      4  C   UNL     1       8.339   0.325  25.414  0.00  0.00    +0.089 A 
ATOM      5  C   UNL     1       9.294   0.978  24.607  0.00  0.00    +0.048 A 
ATOM      6 BR   UNL     1      11.130   0.423  24.679  0.00  0.00    -0.049 Br
ATOM      7  C   UNL     1       8.887   1.978  23.691  0.00  0.00    +0.089 A 
ATOM      8  C   UNL     1       7.521   2.279  23.546  0.00  0.00    +0.055 A 
ATOM      9 BR   UNL     1       6.909   3.633  22.332  0.00  0.00    -0.047 Br
ENDROOT
BRANCH   1  10
ATOM     10  N   UNL     1       5.180   1.768  24.025  0.00  0.00    -0.356 N 
ATOM     11  H   UNL     1       4.582   1.031  24.394  0.00  0.00    +0.142 HD
ATOM     12  H   UNL     1       4.803   2.702  24.171  0.00  0.00    +0.142 HD
ENDBRANCH   1  10
BRANCH   4  13
ATOM     13  C   UNL     1       8.730  -0.739  26.375  0.00  0.00    +0.339 C 
ATOM     14  O   UNL     1       8.685  -1.928  26.101  0.00  0.00    -0.245 OA
BRANCH  13  15
ATOM     15  O   UNL     1       9.075  -0.287  27.598  0.00  0.00    -0.477 OA
ATOM     16  H   UNL     1       9.331   0.653  27.659  0.00  0.00    +0.295 HD
ENDBRANCH  13  15
ENDBRANCH   4  13
BRANCH   7  17
ATOM     17  C   UNL     1       9.911   2.750  22.950  0.00  0.00    +0.339 C 
ATOM     18  O   UNL     1      10.477   3.712  23.444  0.00  0.00    -0.245 OA
BRANCH  17  19
ATOM     19  O   UNL     1      10.198   2.277  21.723  0.00  0.00    -0.477 OA
ATOM     20  H   UNL     1      11.133   2.037  21.562  0.00  0.00    +0.295 HD
ENDBRANCH  17  19
ENDBRANCH   7  17
TORSDOF 5
ENDMDL
MODEL 5
REMARK VINA RESULT:      -4.8      2.812      3.431
REMARK  Name = 
REMARK  5 active torsions:
REMARK  status: ('A' for Active; 'I' for Inactive)
REMARK    1  A    between atoms: N_1  and  C_2
REMARK    2  A    between atoms: C_5  and  C_6
REMARK    3  A    between atoms: C_6  and  O_7
REMARK    4  A    between atoms: C_11  and  C_12
REMARK    5  A    between atoms: C_12  and  O_13
REMARK                            x       y       z     vdW  Elec       q    Type
REMARK                         _______ _______ _______ _____ _____    ______ ____
ROOT
ATOM      1  C   UNL     1       5.664  -3.599  26.123  0.00  0.00    +0.055 A 
ATOM      2  C   UNL     1       6.914  -3.253  25.557  0.00  0.00    +0.055 A 
ATOM      3 BR   UNL     1       7.911  -1.864  26.435  0.00  0.00    -0.047 Br
ATOM      4  C   UNL     1       7.364  -3.857  24.365  0.00  0.00    +0.089 A 
ATOM      5  C   UNL     1       6.563  -4.837  23.743  0.00  0.00    +0.048 A 
ATOM      6 BR   UNL     1       7.248  -5.793  22.226  0.00  0.00    -0.049 Br
ATOM      7  C   UNL     1       5.299  -5.172  24.284  0.00  0.00    +0.089 A 
ATOM      8  C   UNL     1       4.866  -4.565  25.477  0.00  0.00    +0.055 A 
ATOM      9 BR   UNL     1       3.157  -4.966  26.251  0.00  0.00    -0.047 Br
ENDROOT
BRANCH   1  10
ATOM     10  N   UNL     1       5.325  -3.160  27.423  0.00  0.00    -0.356 N 
ATOM     11  H   UNL     1       5.003  -3.898  28.048  0.00  0.00    +0.142 HD
ATOM     12  H   UNL     1       5.997  -2.531  27.857  0.00  0.00    +0.142 HD
ENDBRANCH   1  10
BRANCH   4  13
ATOM     13  C   UNL     1       8.703  -3.492  23.832  0.00  0.00    +0.339 C 
ATOM     14  O   UNL     1       9.741  -3.945  24.285  0.00  0.00    -0.245 OA
BRANCH  13  15
ATOM     15  O   UNL     1       8.679  -2.568  22.850  0.00  0.00    -0.477 OA
ATOM     16  H   UNL     1       8.941  -2.872  21.959  0.00  0.00    +0.295 HD
ENDBRANCH  13  15
ENDBRANCH   4  13
BRANCH   7  17
ATOM     17  C   UNL     1       4.412  -6.101  23.548  0.00  0.00    +0.339 C 
ATOM     18  O   UNL     1       3.663  -5.715  22.664  0.00  0.00    -0.245 OA
BRANCH  17  19
ATOM     19  O   UNL     1       4.536  -7.396  23.894  0.00  0.00    -0.477 OA
ATOM     20  H   UNL     1       3.923  -8.019  23.456  0.00  0.00    +0.295 HD
ENDBRANCH  17  19
ENDBRANCH   7  17
TORSDOF 5
ENDMDL
MODEL 6
REMARK VINA RESULT:      -4.7      2.469      4.694
REMARK  Name = 
REMARK  5 active torsions:
REMARK  status: ('A' for Active; 'I' for Inactive)
REMARK    1  A    between atoms: N_1  and  C_2
REMARK    2  A    between atoms: C_5  and  C_6
REMARK    3  A    between atoms: C_6  and  O_7
REMARK    4  A    between atoms: C_11  and  C_12
REMARK    5  A    between atoms: C_12  and  O_13
REMARK                            x       y       z     vdW  Elec       q    Type
REMARK                         _______ _______ _______ _____ _____    ______ ____
ROOT
ATOM      1  C   UNL     1       6.548  -5.661  26.143  0.00  0.00    +0.055 A 
ATOM      2  C   UNL     1       6.555  -5.369  24.759  0.00  0.00    +0.055 A 
ATOM      3 BR   UNL     1       8.195  -4.685  24.026  0.00  0.00    -0.047 Br
ATOM      4  C   UNL     1       5.390  -5.509  23.979  0.00  0.00    +0.089 A 
ATOM      5  C   UNL     1       4.205  -5.971  24.588  0.00  0.00    +0.048 A 
ATOM      6 BR   UNL     1       2.666  -6.341  23.501  0.00  0.00    -0.049 Br
ATOM      7  C   UNL     1       4.176  -6.242  25.977  0.00  0.00    +0.089 A 
ATOM      8  C   UNL     1       5.349  -6.102  26.740  0.00  0.00    +0.055 A 
ATOM      9 BR   UNL     1       5.370  -6.439  28.629  0.00  0.00    -0.047 Br
ENDROOT
BRANCH   1  10
ATOM     10  N   UNL     1       7.761  -5.734  26.863  0.00  0.00    -0.356 N 
ATOM     11  H   UNL     1       7.993  -4.892  27.387  0.00  0.00    +0.142 HD
ATOM     12  H   UNL     1       7.897  -6.590  27.397  0.00  0.00    +0.142 HD
ENDBRANCH   1  10
BRANCH   4  13
ATOM     13  C   UNL     1       5.458  -5.230  22.521  0.00  0.00    +0.339 C 
ATOM     14  O   UNL     1       5.156  -4.150  22.039  0.00  0.00    -0.245 OA
BRANCH  13  15
ATOM     15  O   UNL     1       5.814  -6.290  21.766  0.00  0.00    -0.477 OA
ATOM     16  H   UNL     1       6.666  -6.714  21.986  0.00  0.00    +0.295 HD
ENDBRANCH  13  15
ENDBRANCH   4  13
BRANCH   7  17
ATOM     17  C   UNL     1       2.893  -6.595  26.626  0.00  0.00    +0.339 C 
ATOM     18  O   UNL     1       2.125  -5.743  27.045  0.00  0.00    -0.245 OA
BRANCH  17  19
ATOM     19  O   UNL     1       2.624  -7.913  26.669  0.00  0.00    -0.477 OA
ATOM     20  H   UNL     1       3.178  -8.446  27.274  0.00  0.00    +0.295 HD
ENDBRANCH  17  19
ENDBRANCH   7  17
TORSDOF 5
ENDMDL
MODEL 7
REMARK VINA RESULT:      -4.7      2.853      4.379
REMARK  Name = 
REMARK  5 active torsions:
REMARK  status: ('A' for Active; 'I' for Inactive)
REMARK    1  A    between atoms: N_1  and  C_2
REMARK    2  A    between atoms: C_5  and  C_6
REMARK    3  A    between atoms: C_6  and  O_7
REMARK    4  A    between atoms: C_11  and  C_12
REMARK    5  A    between atoms: C_12  and  O_13
REMARK                            x       y       z     vdW  Elec       q    Type
REMARK                         _______ _______ _______ _____ _____    ______ ____
ROOT
ATOM      1  C   UNL     1       5.469  -3.509  26.004  0.00  0.00    +0.055 A 
ATOM      2  C   UNL     1       4.696  -4.495  25.347  0.00  0.00    +0.055 A 
ATOM      3 BR   UNL     1       2.990  -4.921  26.122  0.00  0.00    -0.047 Br
ATOM      4  C   UNL     1       5.194  -5.177  24.218  0.00  0.00    +0.089 A 
ATOM      5  C   UNL     1       6.475  -4.850  23.725  0.00  0.00    +0.048 A 
ATOM      6 BR   UNL     1       7.085  -5.639  22.085  0.00  0.00    -0.049 Br
ATOM      7  C   UNL     1       7.269  -3.885  24.390  0.00  0.00    +0.089 A 
ATOM      8  C   UNL     1       6.756  -3.210  25.512  0.00  0.00    +0.055 A 
ATOM      9 BR   UNL     1       7.789  -1.904  26.464  0.00  0.00    -0.047 Br
ENDROOT
BRANCH   1  10
ATOM     10  N   UNL     1       4.881  -2.681  26.987  0.00  0.00    -0.356 N 
ATOM     11  H   UNL     1       5.433  -2.575  27.836  0.00  0.00    +0.142 HD
ATOM     12  H   UNL     1       4.503  -1.801  26.641  0.00  0.00    +0.142 HD
ENDBRANCH   1  10
BRANCH   4  13
ATOM     13  C   UNL     1       4.329  -6.174  23.536  0.00  0.00    +0.339 C 
ATOM     14  O   UNL     1       3.496  -5.865  22.699  0.00  0.00    -0.245 OA
BRANCH  13  15
ATOM     15  O   UNL     1       4.492  -7.441  23.966  0.00  0.00    -0.477 OA
ATOM     16  H   UNL     1       4.460  -7.581  24.932  0.00  0.00    +0.295 HD
ENDBRANCH  13  15
ENDBRANCH   4  13
BRANCH   7  17
ATOM     17  C   UNL     1       8.662  -3.652  23.943  0.00  0.00    +0.339 C 
ATOM     18  O   UNL     1       8.949  -2.755  23.167  0.00  0.00    -0.245 OA
BRANCH  17  19
ATOM     19  O   UNL     1       9.578  -4.467  24.498  0.00  0.00    -0.477 OA
ATOM     20  H   UNL     1      10.119  -4.994  23.876  0.00  0.00    +0.295 HD
ENDBRANCH  17  19
ENDBRANCH   7  17
TORSDOF 5
ENDMDL
MODEL 8
REMARK VINA RESULT:      -4.7      1.161      4.393
REMARK  Name = 
REMARK  5 active torsions:
REMARK  status: ('A' for Active; 'I' for Inactive)
REMARK    1  A    between atoms: N_1  and  C_2
REMARK    2  A    between atoms: C_5  and  C_6
REMARK    3  A    between atoms: C_6  and  O_7
REMARK    4  A    between atoms: C_11  and  C_12
REMARK    5  A    between atoms: C_12  and  O_13
REMARK                            x       y       z     vdW  Elec       q    Type
REMARK                         _______ _______ _______ _____ _____    ______ ____
ROOT
ATOM      1  C   UNL     1       3.851  -5.034  25.858  0.00  0.00    +0.055 A 
ATOM      2  C   UNL     1       3.991  -5.169  24.457  0.00  0.00    +0.055 A 
ATOM      3 BR   UNL     1       2.377  -5.419  23.443  0.00  0.00    -0.047 Br
ATOM      4  C   UNL     1       5.263  -5.188  23.851  0.00  0.00    +0.089 A 
ATOM      5  C   UNL     1       6.412  -5.047  24.657  0.00  0.00    +0.048 A 
ATOM      6 BR   UNL     1       8.135  -4.887  23.825  0.00  0.00    -0.049 Br
ATOM      7  C   UNL     1       6.288  -4.939  26.062  0.00  0.00    +0.089 A 
ATOM      8  C   UNL     1       5.011  -4.916  26.651  0.00  0.00    +0.055 A 
ATOM      9 BR   UNL     1       4.777  -4.788  28.551  0.00  0.00    -0.047 Br
ENDROOT
BRANCH   1  10
ATOM     10  N   UNL     1       2.581  -4.792  26.428  0.00  0.00    -0.356 N 
ATOM     11  H   UNL     1       1.838  -4.625  25.751  0.00  0.00    +0.142 HD
ATOM     12  H   UNL     1       2.310  -5.433  27.170  0.00  0.00    +0.142 HD
ENDBRANCH   1  10
BRANCH   4  13
ATOM     13  C   UNL     1       5.358  -5.288  22.371  0.00  0.00    +0.339 C 
ATOM     14  O   UNL     1       5.274  -4.318  21.635  0.00  0.00    -0.245 OA
BRANCH  13  15
ATOM     15  O   UNL     1       5.476  -6.548  21.904  0.00  0.00    -0.477 OA
ATOM     16  H   UNL     1       4.670  -7.098  21.925  0.00  0.00    +0.295 HD
ENDBRANCH  13  15
ENDBRANCH   4  13
BRANCH   7  17
ATOM     17  C   UNL     1       7.505  -4.929  26.905  0.00  0.00    +0.339 C 
ATOM     18  O   UNL     1       8.090  -3.894  27.183  0.00  0.00    -0.245 OA
BRANCH  17  19
ATOM     19  O   UNL     1       7.878  -6.134  27.375  0.00  0.00    -0.477 OA
ATOM     20  H   UNL     1       7.320  -6.511  28.084  0.00  0.00    +0.295 HD
ENDBRANCH  17  19
ENDBRANCH   7  17
TORSDOF 5
ENDMDL
MODEL 9
REMARK VINA RESULT:      -4.7      2.515      3.069
REMARK  Name = 
REMARK  5 active torsions:
REMARK  status: ('A' for Active; 'I' for Inactive)
REMARK    1  A    between atoms: N_1  and  C_2
REMARK    2  A    between atoms: C_5  and  C_6
REMARK    3  A    between atoms: C_6  and  O_7
REMARK    4  A    between atoms: C_11  and  C_12
REMARK    5  A    between atoms: C_12  and  O_13
REMARK                            x       y       z     vdW  Elec       q    Type
REMARK                         _______ _______ _______ _____ _____    ______ ____
ROOT
ATOM      1  C   UNL     1       5.524  -5.488  23.845  0.00  0.00    +0.055 A 
ATOM      2  C   UNL     1       5.676  -5.666  25.240  0.00  0.00    +0.055 A 
ATOM      3 BR   UNL     1       4.596  -7.025  26.065  0.00  0.00    -0.047 Br
ATOM      4  C   UNL     1       6.531  -4.834  25.991  0.00  0.00    +0.089 A 
ATOM      5  C   UNL     1       7.262  -3.823  25.333  0.00  0.00    +0.048 A 
ATOM      6 BR   UNL     1       8.563  -2.807  26.313  0.00  0.00    -0.049 Br
ATOM      7  C   UNL     1       7.097  -3.616  23.942  0.00  0.00    +0.089 A 
ATOM      8  C   UNL     1       6.245  -4.458  23.206  0.00  0.00    +0.055 A 
ATOM      9 BR   UNL     1       5.969  -4.219  21.322  0.00  0.00    -0.047 Br
ENDROOT
BRANCH   1  10
ATOM     10  N   UNL     1       4.847  -6.458  23.072  0.00  0.00    -0.356 N 
ATOM     11  H   UNL     1       5.230  -6.597  22.138  0.00  0.00    +0.142 HD
ATOM     12  H   UNL     1       4.641  -7.329  23.556  0.00  0.00    +0.142 HD
ENDBRANCH   1  10
BRANCH   4  13
ATOM     13  C   UNL     1       6.691  -5.087  27.447  0.00  0.00    +0.339 C 
ATOM     14  O   UNL     1       6.053  -4.487  28.297  0.00  0.00    -0.245 OA
BRANCH  13  15
ATOM     15  O   UNL     1       7.648  -5.986  27.755  0.00  0.00    -0.477 OA
ATOM     16  H   UNL     1       7.564  -6.870  27.348  0.00  0.00    +0.295 HD
ENDBRANCH  13  15
ENDBRANCH   4  13
BRANCH   7  17
ATOM     17  C   UNL     1       7.765  -2.466  23.291  0.00  0.00    +0.339 C 
ATOM     18  O   UNL     1       8.859  -2.571  22.758  0.00  0.00    -0.245 OA
BRANCH  17  19
ATOM     19  O   UNL     1       7.053  -1.324  23.289  0.00  0.00    -0.477 OA
ATOM     20  H   UNL     1       6.778  -0.988  22.413  0.00  0.00    +0.295 HD
ENDBRANCH  17  19
ENDBRANCH   7  17
TORSDOF 5
ENDMDL
