MODEL 1
REMARK VINA RESULT:      -6.5      0.000      0.000
REMARK  Name = 
REMARK  12 active torsions:
REMARK  status: ('A' for Active; 'I' for Inactive)
REMARK    1  A    between atoms: O_1  and  C_2
REMARK    2  A    between atoms: C_2  and  C_3
REMARK    3  A    between atoms: C_6  and  O_8
REMARK    4  A    between atoms: O_8  and  C_9
REMARK    5  A    between atoms: C_11  and  O_13
REMARK    6  A    between atoms: C_14  and  O_16
REMARK    7  A    between atoms: C_17  and  O_18
REMARK    8  A    between atoms: C_20  and  C_22
REMARK    9  A    between atoms: C_22  and  O_23
REMARK   10  A    between atoms: C_24  and  O_26
REMARK   11  A    between atoms: C_27  and  O_29
REMARK   12  A    between atoms: C_30  and  O_32
REMARK                            x       y       z     vdW  Elec       q    Type
REMARK                         _______ _______ _______ _____ _____    ______ ____
ROOT
ATOM      1  O   UNL     1       8.635  -1.231  24.687  0.00  0.00    -0.340 OA
ENDROOT
BRANCH   1   6
ATOM      2  C   UNL     1      10.352   1.225  23.590  0.00  0.00    +0.178 C 
ATOM      3  C   UNL     1       9.957   1.134  22.106  0.00  0.00    +0.177 C 
ATOM      4  C   UNL     1       8.976  -0.000  21.809  0.00  0.00    +0.179 C 
ATOM      5  C   UNL     1       9.494  -1.307  22.397  0.00  0.00    +0.201 C 
ATOM      6  C   UNL     1       9.829  -1.154  23.897  0.00  0.00    +0.282 C 
ATOM      7  O   UNL     1      10.662  -0.036  24.199  0.00  0.00    -0.341 OA
BRANCH   3   8
ATOM      8  O   UNL     1       9.438   2.383  21.630  0.00  0.00    -0.386 OA
ATOM      9  H   UNL     1      10.028   3.074  21.989  0.00  0.00    +0.210 HD
ENDBRANCH   3   8
BRANCH   4  10
ATOM     10  O   UNL     1       7.660   0.331  22.265  0.00  0.00    -0.386 OA
ATOM     11  H   UNL     1       7.117  -0.496  22.260  0.00  0.00    +0.210 HD
ENDBRANCH   4  10
BRANCH   5  12
ATOM     12  O   UNL     1      10.671  -1.692  21.662  0.00  0.00    -0.384 OA
ATOM     13  H   UNL     1      11.454  -1.472  22.199  0.00  0.00    +0.210 HD
ENDBRANCH   5  12
BRANCH   2  14
ATOM     14  C   UNL     1       9.423   2.077  24.469  0.00  0.00    +0.190 C 
BRANCH  14  15
ATOM     15  O   UNL     1       8.932   1.368  25.603  0.00  0.00    -0.392 OA
ATOM     16  H   UNL     1       9.355   1.774  26.382  0.00  0.00    +0.210 HD
ENDBRANCH  14  15
ENDBRANCH   2  14
ENDBRANCH   1   6
BRANCH   1  17
ATOM     17  C   UNL     1       8.557  -2.394  25.544  0.00  0.00    +0.183 C 
ATOM     18  C   UNL     1       9.098  -3.664  24.849  0.00  0.00    +0.178 C 
ATOM     19  O   UNL     1       8.233  -4.155  23.813  0.00  0.00    -0.341 OA
ATOM     20  C   UNL     1       6.858  -4.334  24.155  0.00  0.00    +0.279 C 
ATOM     21  C   UNL     1       6.231  -3.055  24.749  0.00  0.00    +0.201 C 
ATOM     22  C   UNL     1       7.075  -2.579  25.943  0.00  0.00    +0.179 C 
BRANCH  20  23
ATOM     23  O   UNL     1       6.692  -5.467  24.997  0.00  0.00    -0.365 OA
ATOM     24  H   UNL     1       6.423  -6.212  24.424  0.00  0.00    +0.213 HD
ENDBRANCH  20  23
BRANCH  21  25
ATOM     25  O   UNL     1       6.099  -2.025  23.767  0.00  0.00    -0.384 OA
ATOM     26  H   UNL     1       5.229  -2.141  23.337  0.00  0.00    +0.210 HD
ENDBRANCH  21  25
BRANCH  22  27
ATOM     27  O   UNL     1       6.955  -3.541  27.001  0.00  0.00    -0.386 OA
ATOM     28  H   UNL     1       7.359  -4.371  26.683  0.00  0.00    +0.210 HD
ENDBRANCH  22  27
BRANCH  18  29
ATOM     29  C   UNL     1       9.534  -4.757  25.835  0.00  0.00    +0.190 C 
BRANCH  29  30
ATOM     30  O   UNL     1       9.827  -5.955  25.114  0.00  0.00    -0.392 OA
ATOM     31  H   UNL     1      10.701  -6.249  25.433  0.00  0.00    +0.210 HD
ENDBRANCH  29  30
ENDBRANCH  18  29
ENDBRANCH   1  17
TORSDOF 12
ENDMDL
MODEL 2
REMARK VINA RESULT:      -6.3      1.271      5.923
REMARK  Name = 
REMARK  12 active torsions:
REMARK  status: ('A' for Active; 'I' for Inactive)
REMARK    1  A    between atoms: O_1  and  C_2
REMARK    2  A    between atoms: C_2  and  C_3
REMARK    3  A    between atoms: C_6  and  O_8
REMARK    4  A    between atoms: O_8  and  C_9
REMARK    5  A    between atoms: C_11  and  O_13
REMARK    6  A    between atoms: C_14  and  O_16
REMARK    7  A    between atoms: C_17  and  O_18
REMARK    8  A    between atoms: C_20  and  C_22
REMARK    9  A    between atoms: C_22  and  O_23
REMARK   10  A    between atoms: C_24  and  O_26
REMARK   11  A    between atoms: C_27  and  O_29
REMARK   12  A    between atoms: C_30  and  O_32
REMARK                            x       y       z     vdW  Elec       q    Type
REMARK                         _______ _______ _______ _____ _____    ______ ____
ROOT
ATOM      1  O   UNL     1       8.082  -1.611  23.966  0.00  0.00    -0.340 OA
ENDROOT
BRANCH   1   6
ATOM      2  C   UNL     1       7.933  -4.777  23.596  0.00  0.00    +0.178 C 
ATOM      3  C   UNL     1       7.005  -5.102  24.779  0.00  0.00    +0.177 C 
ATOM      4  C   UNL     1       6.571  -3.864  25.566  0.00  0.00    +0.179 C 
ATOM      5  C   UNL     1       7.790  -3.029  25.940  0.00  0.00    +0.201 C 
ATOM      6  C   UNL     1       8.650  -2.704  24.699  0.00  0.00    +0.282 C 
ATOM      7  O   UNL     1       8.975  -3.841  23.900  0.00  0.00    -0.341 OA
BRANCH   3   8
ATOM      8  O   UNL     1       5.859  -5.850  24.351  0.00  0.00    -0.386 OA
ATOM      9  H   UNL     1       5.639  -5.516  23.459  0.00  0.00    +0.210 HD
ENDBRANCH   3   8
BRANCH   4  10
ATOM     10  O   UNL     1       5.587  -3.118  24.841  0.00  0.00    -0.386 OA
ATOM     11  H   UNL     1       6.059  -2.544  24.188  0.00  0.00    +0.210 HD
ENDBRANCH   4  10
BRANCH   5  12
ATOM     12  O   UNL     1       8.564  -3.772  26.900  0.00  0.00    -0.384 OA
ATOM     13  H   UNL     1       7.979  -4.421  27.329  0.00  0.00    +0.210 HD
ENDBRANCH   5  12
BRANCH   2  14
ATOM     14  C   UNL     1       7.223  -4.442  22.274  0.00  0.00    +0.190 C 
BRANCH  14  15
ATOM     15  O   UNL     1       6.819  -3.079  22.196  0.00  0.00    -0.392 OA
ATOM     16  H   UNL     1       7.590  -2.549  22.475  0.00  0.00    +0.210 HD
ENDBRANCH  14  15
ENDBRANCH   2  14
ENDBRANCH   1   6
BRANCH   1  17
ATOM     17  C   UNL     1       8.750  -0.344  24.164  0.00  0.00    +0.183 C 
ATOM     18  C   UNL     1       7.981   0.826  23.510  0.00  0.00    +0.178 C 
ATOM     19  O   UNL     1       8.049   0.818  22.077  0.00  0.00    -0.341 OA
ATOM     20  C   UNL     1       9.349   0.705  21.496  0.00  0.00    +0.279 C 
ATOM     21  C   UNL     1      10.123  -0.520  22.028  0.00  0.00    +0.201 C 
ATOM     22  C   UNL     1      10.169  -0.467  23.564  0.00  0.00    +0.179 C 
BRANCH  20  23
ATOM     23  O   UNL     1      10.075   1.917  21.644  0.00  0.00    -0.365 OA
ATOM     24  H   UNL     1       9.717   2.370  22.434  0.00  0.00    +0.213 HD
ENDBRANCH  20  23
BRANCH  21  25
ATOM     25  O   UNL     1       9.550  -1.747  21.571  0.00  0.00    -0.384 OA
ATOM     26  H   UNL     1       8.674  -1.837  21.997  0.00  0.00    +0.210 HD
ENDBRANCH  21  25
BRANCH  22  27
ATOM     27  O   UNL     1      10.981   0.649  23.959  0.00  0.00    -0.386 OA
ATOM     28  H   UNL     1      11.764   0.657  23.375  0.00  0.00    +0.210 HD
ENDBRANCH  22  27
BRANCH  18  29
ATOM     29  C   UNL     1       8.321   2.194  24.120  0.00  0.00    +0.190 C 
BRANCH  29  30
ATOM     30  O   UNL     1       8.686   2.022  25.491  0.00  0.00    -0.392 OA
ATOM     31  H   UNL     1       7.864   1.777  25.955  0.00  0.00    +0.210 HD
ENDBRANCH  29  30
ENDBRANCH  18  29
ENDBRANCH   1  17
TORSDOF 12
ENDMDL
MODEL 3
REMARK VINA RESULT:      -6.1      1.137      2.509
REMARK  Name = 
REMARK  12 active torsions:
REMARK  status: ('A' for Active; 'I' for Inactive)
REMARK    1  A    between atoms: O_1  and  C_2
REMARK    2  A    between atoms: C_2  and  C_3
REMARK    3  A    between atoms: C_6  and  O_8
REMARK    4  A    between atoms: O_8  and  C_9
REMARK    5  A    between atoms: C_11  and  O_13
REMARK    6  A    between atoms: C_14  and  O_16
REMARK    7  A    between atoms: C_17  and  O_18
REMARK    8  A    between atoms: C_20  and  C_22
REMARK    9  A    between atoms: C_22  and  O_23
REMARK   10  A    between atoms: C_24  and  O_26
REMARK   11  A    between atoms: C_27  and  O_29
REMARK   12  A    between atoms: C_30  and  O_32
REMARK                            x       y       z     vdW  Elec       q    Type
REMARK                         _______ _______ _______ _____ _____    ______ ____
ROOT
ATOM      1  O   UNL     1       8.712  -1.399  24.207  0.00  0.00    -0.340 OA
ENDROOT
BRANCH   1   6
ATOM      2  C   UNL     1       8.522   0.982  22.090  0.00  0.00    +0.178 C 
ATOM      3  C   UNL     1       9.538   1.941  22.734  0.00  0.00    +0.177 C 
ATOM      4  C   UNL     1      10.168   1.386  24.013  0.00  0.00    +0.179 C 
ATOM      5  C   UNL     1       9.081   0.899  24.963  0.00  0.00    +0.201 C 
ATOM      6  C   UNL     1       8.126  -0.092  24.262  0.00  0.00    +0.282 C 
ATOM      7  O   UNL     1       7.611   0.374  23.016  0.00  0.00    -0.341 OA
BRANCH   3   8
ATOM      8  O   UNL     1      10.555   2.325  21.800  0.00  0.00    -0.386 OA
ATOM      9  H   UNL     1      10.257   3.169  21.409  0.00  0.00    +0.210 HD
ENDBRANCH   3   8
BRANCH   4  10
ATOM     10  O   UNL     1      11.134   0.375  23.707  0.00  0.00    -0.386 OA
ATOM     11  H   UNL     1      11.865   0.796  23.190  0.00  0.00    +0.210 HD
ENDBRANCH   4  10
BRANCH   5  12
ATOM     12  O   UNL     1       8.349   2.048  25.430  0.00  0.00    -0.384 OA
ATOM     13  H   UNL     1       7.925   1.818  26.276  0.00  0.00    +0.210 HD
ENDBRANCH   5  12
BRANCH   2  14
ATOM     14  C   UNL     1       9.114  -0.041  21.107  0.00  0.00    +0.190 C 
BRANCH  14  15
ATOM     15  O   UNL     1       9.820  -1.091  21.761  0.00  0.00    -0.392 OA
ATOM     16  H   UNL     1      10.175  -0.707  22.586  0.00  0.00    +0.210 HD
ENDBRANCH  14  15
ENDBRANCH   2  14
ENDBRANCH   1   6
BRANCH   1  17
ATOM     17  C   UNL     1       8.104  -2.367  25.092  0.00  0.00    +0.183 C 
ATOM     18  C   UNL     1       8.878  -3.705  25.108  0.00  0.00    +0.178 C 
ATOM     19  O   UNL     1       8.727  -4.461  23.897  0.00  0.00    -0.341 OA
ATOM     20  C   UNL     1       7.392  -4.675  23.435  0.00  0.00    +0.279 C 
ATOM     21  C   UNL     1       6.605  -3.355  23.289  0.00  0.00    +0.201 C 
ATOM     22  C   UNL     1       6.649  -2.584  24.618  0.00  0.00    +0.179 C 
BRANCH  20  23
ATOM     23  O   UNL     1       6.722  -5.623  24.253  0.00  0.00    -0.365 OA
ATOM     24  H   UNL     1       7.298  -5.793  25.025  0.00  0.00    +0.213 HD
ENDBRANCH  20  23
BRANCH  21  25
ATOM     25  O   UNL     1       7.104  -2.558  22.212  0.00  0.00    -0.384 OA
ATOM     26  H   UNL     1       6.930  -3.045  21.383  0.00  0.00    +0.210 HD
ENDBRANCH  21  25
BRANCH  22  27
ATOM     27  O   UNL     1       5.904  -3.319  25.599  0.00  0.00    -0.386 OA
ATOM     28  H   UNL     1       5.132  -2.774  25.843  0.00  0.00    +0.210 HD
ENDBRANCH  22  27
BRANCH  18  29
ATOM     29  C   UNL     1       8.625  -4.540  26.372  0.00  0.00    +0.190 C 
BRANCH  29  30
ATOM     30  O   UNL     1       9.027  -5.890  26.135  0.00  0.00    -0.392 OA
ATOM     31  H   UNL     1       9.460  -6.185  26.958  0.00  0.00    +0.210 HD
ENDBRANCH  29  30
ENDBRANCH  18  29
ENDBRANCH   1  17
TORSDOF 12
ENDMDL
MODEL 4
REMARK VINA RESULT:      -6.0      1.338      5.902
REMARK  Name = 
REMARK  12 active torsions:
REMARK  status: ('A' for Active; 'I' for Inactive)
REMARK    1  A    between atoms: O_1  and  C_2
REMARK    2  A    between atoms: C_2  and  C_3
REMARK    3  A    between atoms: C_6  and  O_8
REMARK    4  A    between atoms: O_8  and  C_9
REMARK    5  A    between atoms: C_11  and  O_13
REMARK    6  A    between atoms: C_14  and  O_16
REMARK    7  A    between atoms: C_17  and  O_18
REMARK    8  A    between atoms: C_20  and  C_22
REMARK    9  A    between atoms: C_22  and  O_23
REMARK   10  A    between atoms: C_24  and  O_26
REMARK   11  A    between atoms: C_27  and  O_29
REMARK   12  A    between atoms: C_30  and  O_32
REMARK                            x       y       z     vdW  Elec       q    Type
REMARK                         _______ _______ _______ _____ _____    ______ ____
ROOT
ATOM      1  O   UNL     1       8.507  -1.730  23.996  0.00  0.00    -0.340 OA
ENDROOT
BRANCH   1   6
ATOM      2  C   UNL     1       6.369  -3.426  25.650  0.00  0.00    +0.178 C 
ATOM      3  C   UNL     1       6.089  -4.520  24.606  0.00  0.00    +0.177 C 
ATOM      4  C   UNL     1       6.899  -4.351  23.320  0.00  0.00    +0.179 C 
ATOM      5  C   UNL     1       6.749  -2.931  22.789  0.00  0.00    +0.201 C 
ATOM      6  C   UNL     1       7.087  -1.887  23.876  0.00  0.00    +0.282 C 
ATOM      7  O   UNL     1       6.414  -2.095  25.117  0.00  0.00    -0.341 OA
BRANCH   3   8
ATOM      8  O   UNL     1       6.291  -5.828  25.158  0.00  0.00    -0.386 OA
ATOM      9  H   UNL     1       5.474  -6.329  24.968  0.00  0.00    +0.210 HD
ENDBRANCH   3   8
BRANCH   4  10
ATOM     10  O   UNL     1       8.266  -4.727  23.525  0.00  0.00    -0.386 OA
ATOM     11  H   UNL     1       8.774  -4.490  22.710  0.00  0.00    +0.210 HD
ENDBRANCH   4  10
BRANCH   5  12
ATOM     12  O   UNL     1       5.390  -2.761  22.345  0.00  0.00    -0.384 OA
ATOM     13  H   UNL     1       4.947  -3.628  22.373  0.00  0.00    +0.210 HD
ENDBRANCH   5  12
BRANCH   2  14
ATOM     14  C   UNL     1       7.544  -3.706  26.600  0.00  0.00    +0.190 C 
BRANCH  14  15
ATOM     15  O   UNL     1       7.272  -4.759  27.519  0.00  0.00    -0.392 OA
ATOM     16  H   UNL     1       7.013  -4.329  28.357  0.00  0.00    +0.210 HD
ENDBRANCH  14  15
ENDBRANCH   2  14
ENDBRANCH   1   6
BRANCH   1  17
ATOM     17  C   UNL     1       8.945  -0.366  24.193  0.00  0.00    +0.183 C 
ATOM     18  C   UNL     1       7.985   0.653  23.537  0.00  0.00    +0.178 C 
ATOM     19  O   UNL     1       8.056   0.655  22.103  0.00  0.00    -0.341 OA
ATOM     20  C   UNL     1       9.356   0.768  21.524  0.00  0.00    +0.279 C 
ATOM     21  C   UNL     1      10.330  -0.304  22.058  0.00  0.00    +0.201 C 
ATOM     22  C   UNL     1      10.365  -0.241  23.595  0.00  0.00    +0.179 C 
BRANCH  20  23
ATOM     23  O   UNL     1       9.861   2.088  21.671  0.00  0.00    -0.365 OA
ATOM     24  H   UNL     1       9.562   2.412  22.544  0.00  0.00    +0.213 HD
ENDBRANCH  20  23
BRANCH  21  25
ATOM     25  O   UNL     1       9.979  -1.612  21.602  0.00  0.00    -0.384 OA
ATOM     26  H   UNL     1       9.779  -1.545  20.648  0.00  0.00    +0.210 HD
ENDBRANCH  21  25
BRANCH  22  27
ATOM     27  O   UNL     1      10.971   0.998  23.988  0.00  0.00    -0.386 OA
ATOM     28  H   UNL     1      11.015   1.563  23.193  0.00  0.00    +0.210 HD
ENDBRANCH  22  27
BRANCH  18  29
ATOM     29  C   UNL     1       8.083   2.059  24.145  0.00  0.00    +0.190 C 
BRANCH  29  30
ATOM     30  O   UNL     1       8.541   1.959  25.495  0.00  0.00    -0.392 OA
ATOM     31  H   UNL     1       8.214   2.761  25.946  0.00  0.00    +0.210 HD
ENDBRANCH  29  30
ENDBRANCH  18  29
ENDBRANCH   1  17
TORSDOF 12
ENDMDL
MODEL 5
REMARK VINA RESULT:      -5.9      1.581      3.311
REMARK  Name = 
REMARK  12 active torsions:
REMARK  status: ('A' for Active; 'I' for Inactive)
REMARK    1  A    between atoms: O_1  and  C_2
REMARK    2  A    between atoms: C_2  and  C_3
REMARK    3  A    between atoms: C_6  and  O_8
REMARK    4  A    between atoms: O_8  and  C_9
REMARK    5  A    between atoms: C_11  and  O_13
REMARK    6  A    between atoms: C_14  and  O_16
REMARK    7  A    between atoms: C_17  and  O_18
REMARK    8  A    between atoms: C_20  and  C_22
REMARK    9  A    between atoms: C_22  and  O_23
REMARK   10  A    between atoms: C_24  and  O_26
REMARK   11  A    between atoms: C_27  and  O_29
REMARK   12  A    between atoms: C_30  and  O_32
REMARK                            x       y       z     vdW  Elec       q    Type
REMARK                         _______ _______ _______ _____ _____    ______ ____
ROOT
ATOM      1  O   UNL     1       7.824  -1.788  24.698  0.00  0.00    -0.340 OA
ENDROOT
BRANCH   1   6
ATOM      2  C   UNL     1       8.814   0.167  22.379  0.00  0.00    +0.178 C 
ATOM      3  C   UNL     1       8.557   1.509  23.087  0.00  0.00    +0.177 C 
ATOM      4  C   UNL     1       7.990   1.350  24.498  0.00  0.00    +0.179 C 
ATOM      5  C   UNL     1       6.785   0.416  24.475  0.00  0.00    +0.201 C 
ATOM      6  C   UNL     1       7.127  -0.925  23.791  0.00  0.00    +0.282 C 
ATOM      7  O   UNL     1       7.752  -0.788  22.515  0.00  0.00    -0.341 OA
BRANCH   3   8
ATOM      8  O   UNL     1       9.740   2.318  23.110  0.00  0.00    -0.386 OA
ATOM      9  H   UNL     1       9.970   2.430  24.054  0.00  0.00    +0.210 HD
ENDBRANCH   3   8
BRANCH   4  10
ATOM     10  O   UNL     1       9.007   0.923  25.411  0.00  0.00    -0.386 OA
ATOM     11  H   UNL     1       9.005   1.543  26.182  0.00  0.00    +0.210 HD
ENDBRANCH   4  10
BRANCH   5  12
ATOM     12  O   UNL     1       5.720   1.078  23.767  0.00  0.00    -0.384 OA
ATOM     13  H   UNL     1       5.580   0.616  22.922  0.00  0.00    +0.210 HD
ENDBRANCH   5  12
BRANCH   2  14
ATOM     14  C   UNL     1      10.192  -0.462  22.637  0.00  0.00    +0.190 C 
BRANCH  14  15
ATOM     15  O   UNL     1      10.378  -1.690  21.939  0.00  0.00    -0.392 OA
ATOM     16  H   UNL     1       9.605  -1.788  21.351  0.00  0.00    +0.210 HD
ENDBRANCH  14  15
ENDBRANCH   2  14
ENDBRANCH   1   6
BRANCH   1  17
ATOM     17  C   UNL     1       7.090  -2.975  25.081  0.00  0.00    +0.183 C 
ATOM     18  C   UNL     1       7.243  -3.291  26.586  0.00  0.00    +0.178 C 
ATOM     19  O   UNL     1       8.548  -3.777  26.933  0.00  0.00    -0.341 OA
ATOM     20  C   UNL     1       9.059  -4.859  26.153  0.00  0.00    +0.279 C 
ATOM     21  C   UNL     1       9.040  -4.551  24.641  0.00  0.00    +0.201 C 
ATOM     22  C   UNL     1       7.617  -4.146  24.221  0.00  0.00    +0.179 C 
BRANCH  20  23
ATOM     23  O   UNL     1       8.391  -6.071  26.473  0.00  0.00    -0.365 OA
ATOM     24  H   UNL     1       8.167  -6.031  27.425  0.00  0.00    +0.213 HD
ENDBRANCH  20  23
BRANCH  21  25
ATOM     25  O   UNL     1       9.988  -3.538  24.295  0.00  0.00    -0.384 OA
ATOM     26  H   UNL     1      10.862  -3.970  24.222  0.00  0.00    +0.210 HD
ENDBRANCH  21  25
BRANCH  22  27
ATOM     27  O   UNL     1       6.760  -5.289  24.348  0.00  0.00    -0.386 OA
ATOM     28  H   UNL     1       5.863  -4.957  24.544  0.00  0.00    +0.210 HD
ENDBRANCH  22  27
BRANCH  18  29
ATOM     29  C   UNL     1       6.109  -4.166  27.141  0.00  0.00    +0.190 C 
BRANCH  29  30
ATOM     30  O   UNL     1       6.579  -4.880  28.285  0.00  0.00    -0.392 OA
ATOM     31  H   UNL     1       7.525  -5.056  28.118  0.00  0.00    +0.210 HD
ENDBRANCH  29  30
ENDBRANCH  18  29
ENDBRANCH   1  17
TORSDOF 12
ENDMDL
MODEL 6
REMARK VINA RESULT:      -5.9      1.306      5.777
REMARK  Name = 
REMARK  12 active torsions:
REMARK  status: ('A' for Active; 'I' for Inactive)
REMARK    1  A    between atoms: O_1  and  C_2
REMARK    2  A    between atoms: C_2  and  C_3
REMARK    3  A    between atoms: C_6  and  O_8
REMARK    4  A    between atoms: O_8  and  C_9
REMARK    5  A    between atoms: C_11  and  O_13
REMARK    6  A    between atoms: C_14  and  O_16
REMARK    7  A    between atoms: C_17  and  O_18
REMARK    8  A    between atoms: C_20  and  C_22
REMARK    9  A    between atoms: C_22  and  O_23
REMARK   10  A    between atoms: C_24  and  O_26
REMARK   11  A    between atoms: C_27  and  O_29
REMARK   12  A    between atoms: C_30  and  O_32
REMARK                            x       y       z     vdW  Elec       q    Type
REMARK                         _______ _______ _______ _____ _____    ______ ____
ROOT
ATOM      1  O   UNL     1       8.842  -2.316  24.891  0.00  0.00    -0.340 OA
ENDROOT
BRANCH   1   6
ATOM      2  C   UNL     1       7.044  -4.885  24.299  0.00  0.00    +0.178 C 
ATOM      3  C   UNL     1       7.364  -5.685  25.574  0.00  0.00    +0.177 C 
ATOM      4  C   UNL     1       8.326  -4.962  26.517  0.00  0.00    +0.179 C 
ATOM      5  C   UNL     1       9.557  -4.492  25.750  0.00  0.00    +0.201 C 
ATOM      6  C   UNL     1       9.162  -3.660  24.511  0.00  0.00    +0.282 C 
ATOM      7  O   UNL     1       8.187  -4.282  23.676  0.00  0.00    -0.341 OA
BRANCH   3   8
ATOM      8  O   UNL     1       6.166  -6.057  26.268  0.00  0.00    -0.386 OA
ATOM      9  H   UNL     1       5.455  -6.053  25.597  0.00  0.00    +0.210 HD
ENDBRANCH   3   8
BRANCH   4  10
ATOM     10  O   UNL     1       7.660  -3.898  27.206  0.00  0.00    -0.386 OA
ATOM     11  H   UNL     1       7.917  -3.046  26.773  0.00  0.00    +0.210 HD
ENDBRANCH   4  10
BRANCH   5  12
ATOM     12  O   UNL     1      10.304  -5.656  25.350  0.00  0.00    -0.384 OA
ATOM     13  H   UNL     1      10.776  -6.000  26.129  0.00  0.00    +0.210 HD
ENDBRANCH   5  12
BRANCH   2  14
ATOM     14  C   UNL     1       5.866  -3.905  24.414  0.00  0.00    +0.190 C 
BRANCH  14  15
ATOM     15  O   UNL     1       6.017  -2.984  25.489  0.00  0.00    -0.392 OA
ATOM     16  H   UNL     1       5.155  -2.538  25.588  0.00  0.00    +0.210 HD
ENDBRANCH  14  15
ENDBRANCH   2  14
ENDBRANCH   1   6
BRANCH   1  17
ATOM     17  C   UNL     1       8.737  -1.389  23.785  0.00  0.00    +0.183 C 
ATOM     18  C   UNL     1      10.116  -0.840  23.355  0.00  0.00    +0.178 C 
ATOM     19  O   UNL     1      10.678   0.083  24.300  0.00  0.00    -0.341 OA
ATOM     20  C   UNL     1       9.838   1.156  24.728  0.00  0.00    +0.279 C 
ATOM     21  C   UNL     1       8.485   0.657  25.279  0.00  0.00    +0.201 C 
ATOM     22  C   UNL     1       7.805  -0.238  24.229  0.00  0.00    +0.179 C 
BRANCH  20  23
ATOM     23  O   UNL     1       9.686   2.120  23.696  0.00  0.00    -0.365 OA
ATOM     24  H   UNL     1       9.834   1.655  22.848  0.00  0.00    +0.213 HD
ENDBRANCH  20  23
BRANCH  21  25
ATOM     25  O   UNL     1       8.642  -0.033  26.521  0.00  0.00    -0.384 OA
ATOM     26  H   UNL     1       9.381  -0.664  26.414  0.00  0.00    +0.210 HD
ENDBRANCH  21  25
BRANCH  22  27
ATOM     27  O   UNL     1       7.438   0.575  23.105  0.00  0.00    -0.386 OA
ATOM     28  H   UNL     1       7.312   1.484  23.436  0.00  0.00    +0.210 HD
ENDBRANCH  22  27
BRANCH  18  29
ATOM     29  C   UNL     1      10.137  -0.311  21.914  0.00  0.00    +0.190 C 
BRANCH  29  30
ATOM     30  O   UNL     1       9.273  -1.109  21.105  0.00  0.00    -0.392 OA
ATOM     31  H   UNL     1       8.785  -1.684  21.725  0.00  0.00    +0.210 HD
ENDBRANCH  29  30
ENDBRANCH  18  29
ENDBRANCH   1  17
TORSDOF 12
ENDMDL
MODEL 7
REMARK VINA RESULT:      -5.9      1.547      2.412
REMARK  Name = 
REMARK  12 active torsions:
REMARK  status: ('A' for Active; 'I' for Inactive)
REMARK    1  A    between atoms: O_1  and  C_2
REMARK    2  A    between atoms: C_2  and  C_3
REMARK    3  A    between atoms: C_6  and  O_8
REMARK    4  A    between atoms: O_8  and  C_9
REMARK    5  A    between atoms: C_11  and  O_13
REMARK    6  A    between atoms: C_14  and  O_16
REMARK    7  A    between atoms: C_17  and  O_18
REMARK    8  A    between atoms: C_20  and  C_22
REMARK    9  A    between atoms: C_22  and  O_23
REMARK   10  A    between atoms: C_24  and  O_26
REMARK   11  A    between atoms: C_27  and  O_29
REMARK   12  A    between atoms: C_30  and  O_32
REMARK                            x       y       z     vdW  Elec       q    Type
REMARK                         _______ _______ _______ _____ _____    ______ ____
ROOT
ATOM      1  O   UNL     1       8.002  -2.181  23.981  0.00  0.00    -0.340 OA
ENDROOT
BRANCH   1   6
ATOM      2  C   UNL     1       9.173   0.731  24.563  0.00  0.00    +0.178 C 
ATOM      3  C   UNL     1       8.732   1.418  23.259  0.00  0.00    +0.177 C 
ATOM      4  C   UNL     1       7.969   0.489  22.313  0.00  0.00    +0.179 C 
ATOM      5  C   UNL     1       8.752  -0.801  22.104  0.00  0.00    +0.201 C 
ATOM      6  C   UNL     1       9.121  -1.458  23.452  0.00  0.00    +0.282 C 
ATOM      7  O   UNL     1       9.742  -0.573  24.382  0.00  0.00    -0.341 OA
BRANCH   3   8
ATOM      8  O   UNL     1       7.965   2.599  23.528  0.00  0.00    -0.386 OA
ATOM      9  H   UNL     1       8.304   3.284  22.919  0.00  0.00    +0.210 HD
ENDBRANCH   3   8
BRANCH   4  10
ATOM     10  O   UNL     1       6.637   0.262  22.786  0.00  0.00    -0.386 OA
ATOM     11  H   UNL     1       6.654   0.297  23.775  0.00  0.00    +0.210 HD
ENDBRANCH   4  10
BRANCH   5  12
ATOM     12  O   UNL     1       9.944  -0.486  21.361  0.00  0.00    -0.384 OA
ATOM     13  H   UNL     1       9.784   0.330  20.855  0.00  0.00    +0.210 HD
ENDBRANCH   5  12
BRANCH   2  14
ATOM     14  C   UNL     1       8.142   0.757  25.703  0.00  0.00    +0.190 C 
BRANCH  14  15
ATOM     15  O   UNL     1       7.066  -0.154  25.495  0.00  0.00    -0.392 OA
ATOM     16  H   UNL     1       6.894  -0.156  24.534  0.00  0.00    +0.210 HD
ENDBRANCH  14  15
ENDBRANCH   2  14
ENDBRANCH   1   6
BRANCH   1  17
ATOM     17  C   UNL     1       8.134  -3.620  23.921  0.00  0.00    +0.183 C 
ATOM     18  C   UNL     1       6.819  -4.339  24.297  0.00  0.00    +0.178 C 
ATOM     19  O   UNL     1       6.506  -4.253  25.695  0.00  0.00    -0.341 OA
ATOM     20  C   UNL     1       7.540  -4.620  26.609  0.00  0.00    +0.279 C 
ATOM     21  C   UNL     1       8.850  -3.843  26.354  0.00  0.00    +0.201 C 
ATOM     22  C   UNL     1       9.272  -4.024  24.886  0.00  0.00    +0.179 C 
BRANCH  20  23
ATOM     23  O   UNL     1       7.732  -6.028  26.616  0.00  0.00    -0.365 OA
ATOM     24  H   UNL     1       8.680  -6.186  26.795  0.00  0.00    +0.213 HD
ENDBRANCH  20  23
BRANCH  21  25
ATOM     25  O   UNL     1       8.717  -2.459  26.687  0.00  0.00    -0.384 OA
ATOM     26  H   UNL     1       9.266  -2.296  27.479  0.00  0.00    +0.210 HD
ENDBRANCH  21  25
BRANCH  22  27
ATOM     27  O   UNL     1       9.643  -5.395  24.682  0.00  0.00    -0.386 OA
ATOM     28  H   UNL     1       8.817  -5.914  24.642  0.00  0.00    +0.210 HD
ENDBRANCH  22  27
BRANCH  18  29
ATOM     29  C   UNL     1       6.731  -5.771  23.749  0.00  0.00    +0.190 C 
BRANCH  29  30
ATOM     30  O   UNL     1       7.503  -5.866  22.551  0.00  0.00    -0.392 OA
ATOM     31  H   UNL     1       6.874  -5.724  21.818  0.00  0.00    +0.210 HD
ENDBRANCH  29  30
ENDBRANCH  18  29
ENDBRANCH   1  17
TORSDOF 12
ENDMDL
MODEL 8
REMARK VINA RESULT:      -5.9      1.848      2.706
REMARK  Name = 
REMARK  12 active torsions:
REMARK  status: ('A' for Active; 'I' for Inactive)
REMARK    1  A    between atoms: O_1  and  C_2
REMARK    2  A    between atoms: C_2  and  C_3
REMARK    3  A    between atoms: C_6  and  O_8
REMARK    4  A    between atoms: O_8  and  C_9
REMARK    5  A    between atoms: C_11  and  O_13
REMARK    6  A    between atoms: C_14  and  O_16
REMARK    7  A    between atoms: C_17  and  O_18
REMARK    8  A    between atoms: C_20  and  C_22
REMARK    9  A    between atoms: C_22  and  O_23
REMARK   10  A    between atoms: C_24  and  O_26
REMARK   11  A    between atoms: C_27  and  O_29
REMARK   12  A    between atoms: C_30  and  O_32
REMARK                            x       y       z     vdW  Elec       q    Type
REMARK                         _______ _______ _______ _____ _____    ______ ____
ROOT
ATOM      1  O   UNL     1       7.652  -2.633  23.559  0.00  0.00    -0.340 OA
ENDROOT
BRANCH   1   6
ATOM      2  C   UNL     1       9.809  -0.648  24.821  0.00  0.00    +0.178 C 
ATOM      3  C   UNL     1       9.882   0.371  23.671  0.00  0.00    +0.177 C 
ATOM      4  C   UNL     1       8.953   0.034  22.504  0.00  0.00    +0.179 C 
ATOM      5  C   UNL     1       9.163  -1.412  22.070  0.00  0.00    +0.201 C 
ATOM      6  C   UNL     1       9.032  -2.381  23.265  0.00  0.00    +0.282 C 
ATOM      7  O   UNL     1       9.818  -2.019  24.399  0.00  0.00    -0.341 OA
BRANCH   3   8
ATOM      8  O   UNL     1       9.633   1.702  24.141  0.00  0.00    -0.386 OA
ATOM      9  H   UNL     1       9.103   1.605  24.957  0.00  0.00    +0.210 HD
ENDBRANCH   3   8
BRANCH   4  10
ATOM     10  O   UNL     1       7.591   0.323  22.837  0.00  0.00    -0.386 OA
ATOM     11  H   UNL     1       7.246   0.975  22.177  0.00  0.00    +0.210 HD
ENDBRANCH   4  10
BRANCH   5  12
ATOM     12  O   UNL     1      10.474  -1.517  21.485  0.00  0.00    -0.384 OA
ATOM     13  H   UNL     1      11.048  -0.846  21.895  0.00  0.00    +0.210 HD
ENDBRANCH   5  12
BRANCH   2  14
ATOM     14  C   UNL     1       8.725  -0.377  25.876  0.00  0.00    +0.190 C 
BRANCH  14  15
ATOM     15  O   UNL     1       7.413  -0.675  25.409  0.00  0.00    -0.392 OA
ATOM     16  H   UNL     1       7.456  -0.635  24.435  0.00  0.00    +0.210 HD
ENDBRANCH  14  15
ENDBRANCH   2  14
ENDBRANCH   1   6
BRANCH   1  17
ATOM     17  C   UNL     1       7.288  -4.032  23.579  0.00  0.00    +0.183 C 
ATOM     18  C   UNL     1       6.642  -4.484  22.250  0.00  0.00    +0.178 C 
ATOM     19  O   UNL     1       5.318  -3.965  22.059  0.00  0.00    -0.341 OA
ATOM     20  C   UNL     1       4.396  -4.145  23.134  0.00  0.00    +0.279 C 
ATOM     21  C   UNL     1       4.944  -3.603  24.472  0.00  0.00    +0.201 C 
ATOM     22  C   UNL     1       6.312  -4.243  24.759  0.00  0.00    +0.179 C 
BRANCH  20  23
ATOM     23  O   UNL     1       3.982  -5.501  23.222  0.00  0.00    -0.365 OA
ATOM     24  H   UNL     1       3.138  -5.574  22.731  0.00  0.00    +0.213 HD
ENDBRANCH  20  23
BRANCH  21  25
ATOM     25  O   UNL     1       5.031  -2.176  24.469  0.00  0.00    -0.384 OA
ATOM     26  H   UNL     1       4.119  -1.828  24.411  0.00  0.00    +0.210 HD
ENDBRANCH  21  25
BRANCH  22  27
ATOM     27  O   UNL     1       6.120  -5.642  25.010  0.00  0.00    -0.386 OA
ATOM     28  H   UNL     1       5.347  -5.926  24.484  0.00  0.00    +0.210 HD
ENDBRANCH  22  27
BRANCH  18  29
ATOM     29  C   UNL     1       6.734  -5.998  22.013  0.00  0.00    +0.190 C 
BRANCH  29  30
ATOM     30  O   UNL     1       5.728  -6.392  21.078  0.00  0.00    -0.392 OA
ATOM     31  H   UNL     1       4.875  -6.160  21.493  0.00  0.00    +0.210 HD
ENDBRANCH  29  30
ENDBRANCH  18  29
ENDBRANCH   1  17
TORSDOF 12
ENDMDL
MODEL 9
REMARK VINA RESULT:      -5.8      1.837      2.863
REMARK  Name = 
REMARK  12 active torsions:
REMARK  status: ('A' for Active; 'I' for Inactive)
REMARK    1  A    between atoms: O_1  and  C_2
REMARK    2  A    between atoms: C_2  and  C_3
REMARK    3  A    between atoms: C_6  and  O_8
REMARK    4  A    between atoms: O_8  and  C_9
REMARK    5  A    between atoms: C_11  and  O_13
REMARK    6  A    between atoms: C_14  and  O_16
REMARK    7  A    between atoms: C_17  and  O_18
REMARK    8  A    between atoms: C_20  and  C_22
REMARK    9  A    between atoms: C_22  and  O_23
REMARK   10  A    between atoms: C_24  and  O_26
REMARK   11  A    between atoms: C_27  and  O_29
REMARK   12  A    between atoms: C_30  and  O_32
REMARK                            x       y       z     vdW  Elec       q    Type
REMARK                         _______ _______ _______ _____ _____    ______ ____
ROOT
ATOM      1  O   UNL     1       7.379  -1.374  22.980  0.00  0.00    -0.340 OA
ENDROOT
BRANCH   1   6
ATOM      2  C   UNL     1       8.386   1.653  23.090  0.00  0.00    +0.178 C 
ATOM      3  C   UNL     1       9.874   1.408  22.788  0.00  0.00    +0.177 C 
ATOM      4  C   UNL     1      10.214  -0.067  22.569  0.00  0.00    +0.179 C 
ATOM      5  C   UNL     1       9.665  -0.905  23.717  0.00  0.00    +0.201 C 
ATOM      6  C   UNL     1       8.159  -0.642  23.935  0.00  0.00    +0.282 C 
ATOM      7  O   UNL     1       7.816   0.739  24.038  0.00  0.00    -0.341 OA
BRANCH   3   8
ATOM      8  O   UNL     1      10.313   2.195  21.672  0.00  0.00    -0.386 OA
ATOM      9  H   UNL     1      10.362   3.116  21.994  0.00  0.00    +0.210 HD
ENDBRANCH   3   8
BRANCH   4  10
ATOM     10  O   UNL     1       9.755  -0.510  21.287  0.00  0.00    -0.386 OA
ATOM     11  H   UNL     1       8.788  -0.314  21.224  0.00  0.00    +0.210 HD
ENDBRANCH   4  10
BRANCH   5  12
ATOM     12  O   UNL     1      10.404  -0.572  24.907  0.00  0.00    -0.384 OA
ATOM     13  H   UNL     1      11.277  -1.001  24.856  0.00  0.00    +0.210 HD
ENDBRANCH   5  12
BRANCH   2  14
ATOM     14  C   UNL     1       7.485   1.843  21.859  0.00  0.00    +0.190 C 
BRANCH  14  15
ATOM     15  O   UNL     1       8.159   1.566  20.635  0.00  0.00    -0.392 OA
ATOM     16  H   UNL     1       7.889   2.266  20.011  0.00  0.00    +0.210 HD
ENDBRANCH  14  15
ENDBRANCH   2  14
ENDBRANCH   1   6
BRANCH   1  17
ATOM     17  C   UNL     1       7.433  -2.810  23.137  0.00  0.00    +0.183 C 
ATOM     18  C   UNL     1       6.666  -3.546  22.014  0.00  0.00    +0.178 C 
ATOM     19  O   UNL     1       5.241  -3.415  22.122  0.00  0.00    -0.341 OA
ATOM     20  C   UNL     1       4.662  -3.723  23.391  0.00  0.00    +0.279 C 
ATOM     21  C   UNL     1       5.314  -2.926  24.541  0.00  0.00    +0.201 C 
ATOM     22  C   UNL     1       6.835  -3.152  24.520  0.00  0.00    +0.179 C 
BRANCH  20  23
ATOM     23  O   UNL     1       4.671  -5.125  23.622  0.00  0.00    -0.365 OA
ATOM     24  H   UNL     1       3.961  -5.510  23.070  0.00  0.00    +0.213 HD
ENDBRANCH  20  23
BRANCH  21  25
ATOM     25  O   UNL     1       4.997  -1.535  24.466  0.00  0.00    -0.384 OA
ATOM     26  H   UNL     1       5.356  -1.110  25.270  0.00  0.00    +0.210 HD
ENDBRANCH  21  25
BRANCH  22  27
ATOM     27  O   UNL     1       7.099  -4.520  24.860  0.00  0.00    -0.386 OA
ATOM     28  H   UNL     1       6.353  -4.831  25.409  0.00  0.00    +0.210 HD
ENDBRANCH  22  27
BRANCH  18  29
ATOM     29  C   UNL     1       7.123  -4.999  21.817  0.00  0.00    +0.190 C 
BRANCH  29  30
ATOM     30  O   UNL     1       6.194  -5.675  20.969  0.00  0.00    -0.392 OA
ATOM     31  H   UNL     1       5.309  -5.469  21.327  0.00  0.00    +0.210 HD
ENDBRANCH  29  30
ENDBRANCH  18  29
ENDBRANCH   1  17
TORSDOF 12
ENDMDL
