MODEL 1
REMARK VINA RESULT:      -6.3      0.000      0.000
REMARK  Name = 
REMARK  12 active torsions:
REMARK  status: ('A' for Active; 'I' for Inactive)
REMARK    1  A    between atoms: C_2  and  C_3
REMARK    2  A    between atoms: C_4  and  C_6
REMARK    3  A    between atoms: C_6  and  C_7
REMARK    4  A    between atoms: C_6  and  C_8
REMARK    5  A    between atoms: C_12  and  C_13
REMARK    6  A    between atoms: C_14  and  C_16
REMARK    7  A    between atoms: C_16  and  C_18
REMARK    8  A    between atoms: C_18  and  C_19
REMARK    9  A    between atoms: C_19  and  C_20
REMARK   10  A    between atoms: C_20  and  O_21
REMARK   11  A    between atoms: C_23  and  C_24
REMARK   12  A    between atoms: C_23  and  C_25
REMARK                            x       y       z     vdW  Elec       q    Type
REMARK                         _______ _______ _______ _____ _____    ______ ____
ROOT
ATOM      1  C   UNL     1       8.449   0.665  24.061  0.00  0.00    +0.004 C 
ATOM      2  C   UNL     1       8.979   2.075  24.242  0.00  0.00    +0.009 C 
ATOM      3  C   UNL     1       8.975  -0.123  22.757  0.00  0.00    -0.006 C 
ATOM      4  C   UNL     1       9.003   0.736  21.488  0.00  0.00    +0.016 C 
ATOM      5  C   UNL     1      10.370  -0.727  23.001  0.00  0.00    +0.016 C 
ATOM      6  C   UNL     1       7.939  -1.245  22.715  0.00  0.00    -0.038 A 
ATOM      7  C   UNL     1       7.980  -2.509  22.140  0.00  0.00    +0.008 A 
ATOM      8  C   UNL     1       7.179  -3.530  22.682  0.00  0.00    -0.040 A 
ATOM      9  C   UNL     1       6.481  -3.289  23.885  0.00  0.00    +0.021 A 
ATOM     10  C   UNL     1       6.335  -1.973  24.328  0.00  0.00    +0.015 A 
ATOM     11  C   UNL     1       7.116  -4.867  21.990  0.00  0.00    +0.044 C 
ATOM     12  C   UNL     1       6.943  -0.947  23.642  0.00  0.00    -0.039 A 
ATOM     13  C   UNL     1       6.913   0.536  23.928  0.00  0.00    +0.026 C 
ENDROOT
BRANCH  13  14
ATOM     14  C   UNL     1       5.864   0.952  24.986  0.00  0.00    -0.009 C 
ATOM     15  C   UNL     1       6.422   1.116  26.393  0.00  0.00    +0.008 C 
ATOM     16  C   UNL     1       5.256   2.320  24.580  0.00  0.00    +0.008 C 
ENDBRANCH  13  14
BRANCH   9  17
ATOM     17  C   UNL     1       5.908  -4.378  24.734  0.00  0.00    +0.164 C 
ATOM     18  O   UNL     1       4.694  -4.525  24.876  0.00  0.00    -0.292 OA
BRANCH  17  19
ATOM     19  C   UNL     1       6.825  -5.291  25.525  0.00  0.00    +0.091 C 
BRANCH  19  20
ATOM     20  C   UNL     1       8.068  -4.534  25.961  0.00  0.00    +0.128 C 
BRANCH  20  21
ATOM     21  C   UNL     1       9.373  -4.931  25.334  0.00  0.00    +0.305 C 
ATOM     22  O   UNL     1       9.983  -4.168  24.594  0.00  0.00    -0.251 OA
BRANCH  21  23
ATOM     23  O   UNL     1       9.870  -6.165  25.602  0.00  0.00    -0.481 OA
ATOM     24  H   UNL     1       9.876  -6.853  24.907  0.00  0.00    +0.295 HD
ENDBRANCH  21  23
ENDBRANCH  20  21
ENDBRANCH  19  20
ENDBRANCH  17  19
ENDBRANCH   9  17
TORSDOF 6
ENDMDL
MODEL 2
REMARK VINA RESULT:      -6.2      2.826      5.921
REMARK  Name = 
REMARK  12 active torsions:
REMARK  status: ('A' for Active; 'I' for Inactive)
REMARK    1  A    between atoms: C_2  and  C_3
REMARK    2  A    between atoms: C_4  and  C_6
REMARK    3  A    between atoms: C_6  and  C_7
REMARK    4  A    between atoms: C_6  and  C_8
REMARK    5  A    between atoms: C_12  and  C_13
REMARK    6  A    between atoms: C_14  and  C_16
REMARK    7  A    between atoms: C_16  and  C_18
REMARK    8  A    between atoms: C_18  and  C_19
REMARK    9  A    between atoms: C_19  and  C_20
REMARK   10  A    between atoms: C_20  and  O_21
REMARK   11  A    between atoms: C_23  and  C_24
REMARK   12  A    between atoms: C_23  and  C_25
REMARK                            x       y       z     vdW  Elec       q    Type
REMARK                         _______ _______ _______ _____ _____    ______ ____
ROOT
ATOM      1  C   UNL     1       5.887  -4.234  24.330  0.00  0.00    +0.004 C 
ATOM      2  C   UNL     1       4.794  -5.259  24.567  0.00  0.00    +0.009 C 
ATOM      3  C   UNL     1       6.615  -4.301  22.893  0.00  0.00    -0.006 C 
ATOM      4  C   UNL     1       6.940  -5.725  22.433  0.00  0.00    +0.016 C 
ATOM      5  C   UNL     1       5.776  -3.590  21.815  0.00  0.00    +0.016 C 
ATOM      6  C   UNL     1       7.851  -3.460  23.207  0.00  0.00    -0.038 A 
ATOM      7  C   UNL     1       8.708  -2.747  22.378  0.00  0.00    +0.008 A 
ATOM      8  C   UNL     1       9.405  -1.645  22.904  0.00  0.00    -0.040 A 
ATOM      9  C   UNL     1       9.096  -1.197  24.206  0.00  0.00    +0.021 A 
ATOM     10  C   UNL     1       8.363  -2.032  25.052  0.00  0.00    +0.015 A 
ATOM     11  C   UNL     1      10.434  -0.945  22.055  0.00  0.00    +0.044 C 
ATOM     12  C   UNL     1       7.880  -3.231  24.580  0.00  0.00    -0.039 A 
ATOM     13  C   UNL     1       7.083  -4.287  25.309  0.00  0.00    +0.026 C 
ENDROOT
BRANCH  13  14
ATOM     14  C   UNL     1       7.022  -4.084  26.841  0.00  0.00    -0.009 C 
ATOM     15  C   UNL     1       5.790  -3.334  27.327  0.00  0.00    +0.008 C 
ATOM     16  C   UNL     1       7.007  -5.473  27.532  0.00  0.00    +0.008 C 
ENDBRANCH  13  14
BRANCH   9  17
ATOM     17  C   UNL     1       9.488   0.149  24.727  0.00  0.00    +0.164 C 
ATOM     18  O   UNL     1      10.589   0.354  25.240  0.00  0.00    -0.292 OA
BRANCH  17  19
ATOM     19  C   UNL     1       8.493   1.292  24.713  0.00  0.00    +0.091 C 
BRANCH  19  20
ATOM     20  C   UNL     1       9.016   2.431  23.854  0.00  0.00    +0.128 C 
BRANCH  20  21
ATOM     21  C   UNL     1       9.001   2.235  22.365  0.00  0.00    +0.305 C 
ATOM     22  O   UNL     1       7.976   1.917  21.774  0.00  0.00    -0.251 OA
BRANCH  21  23
ATOM     23  O   UNL     1      10.158   2.416  21.679  0.00  0.00    -0.481 OA
ATOM     24  H   UNL     1      10.524   1.691  21.134  0.00  0.00    +0.295 HD
ENDBRANCH  21  23
ENDBRANCH  20  21
ENDBRANCH  19  20
ENDBRANCH  17  19
ENDBRANCH   9  17
TORSDOF 6
ENDMDL
MODEL 3
REMARK VINA RESULT:      -6.1      2.583      6.392
REMARK  Name = 
REMARK  12 active torsions:
REMARK  status: ('A' for Active; 'I' for Inactive)
REMARK    1  A    between atoms: C_2  and  C_3
REMARK    2  A    between atoms: C_4  and  C_6
REMARK    3  A    between atoms: C_6  and  C_7
REMARK    4  A    between atoms: C_6  and  C_8
REMARK    5  A    between atoms: C_12  and  C_13
REMARK    6  A    between atoms: C_14  and  C_16
REMARK    7  A    between atoms: C_16  and  C_18
REMARK    8  A    between atoms: C_18  and  C_19
REMARK    9  A    between atoms: C_19  and  C_20
REMARK   10  A    between atoms: C_20  and  O_21
REMARK   11  A    between atoms: C_23  and  C_24
REMARK   12  A    between atoms: C_23  and  C_25
REMARK                            x       y       z     vdW  Elec       q    Type
REMARK                         _______ _______ _______ _____ _____    ______ ____
ROOT
ATOM      1  C   UNL     1       5.694  -4.890  24.506  0.00  0.00    +0.004 C 
ATOM      2  C   UNL     1       4.966  -6.219  24.583  0.00  0.00    +0.009 C 
ATOM      3  C   UNL     1       4.922  -3.626  25.141  0.00  0.00    -0.006 C 
ATOM      4  C   UNL     1       3.431  -3.578  24.794  0.00  0.00    +0.016 C 
ATOM      5  C   UNL     1       5.097  -3.582  26.670  0.00  0.00    +0.016 C 
ATOM      6  C   UNL     1       5.736  -2.500  24.506  0.00  0.00    -0.038 A 
ATOM      7  C   UNL     1       5.927  -1.179  24.891  0.00  0.00    +0.008 A 
ATOM      8  C   UNL     1       7.104  -0.517  24.496  0.00  0.00    -0.040 A 
ATOM      9  C   UNL     1       8.124  -1.256  23.860  0.00  0.00    +0.021 A 
ATOM     10  C   UNL     1       7.825  -2.520  23.349  0.00  0.00    +0.015 A 
ATOM     11  C   UNL     1       7.263   0.950  24.795  0.00  0.00    +0.044 C 
ATOM     12  C   UNL     1       6.576  -3.061  23.548  0.00  0.00    -0.039 A 
ATOM     13  C   UNL     1       6.031  -4.391  23.082  0.00  0.00    +0.026 C 
ENDROOT
BRANCH  13  14
ATOM     14  C   UNL     1       6.928  -5.111  22.047  0.00  0.00    -0.009 C 
ATOM     15  C   UNL     1       7.839  -6.177  22.639  0.00  0.00    +0.008 C 
ATOM     16  C   UNL     1       6.024  -5.818  21.003  0.00  0.00    +0.008 C 
ENDBRANCH  13  14
BRANCH   9  17
ATOM     17  C   UNL     1       9.531  -0.767  23.727  0.00  0.00    +0.164 C 
ATOM     18  O   UNL     1      10.189  -0.400  24.701  0.00  0.00    -0.292 OA
BRANCH  17  19
ATOM     19  C   UNL     1      10.164  -0.627  22.356  0.00  0.00    +0.091 C 
BRANCH  19  20
ATOM     20  C   UNL     1       9.230   0.124  21.423  0.00  0.00    +0.128 C 
BRANCH  20  21
ATOM     21  C   UNL     1       9.136   1.613  21.592  0.00  0.00    +0.305 C 
ATOM     22  O   UNL     1       8.052   2.182  21.636  0.00  0.00    -0.251 OA
BRANCH  21  23
ATOM     23  O   UNL     1      10.286   2.326  21.693  0.00  0.00    -0.481 OA
ATOM     24  H   UNL     1      10.938   2.111  22.389  0.00  0.00    +0.295 HD
ENDBRANCH  21  23
ENDBRANCH  20  21
ENDBRANCH  19  20
ENDBRANCH  17  19
ENDBRANCH   9  17
TORSDOF 6
ENDMDL
MODEL 4
REMARK VINA RESULT:      -5.9      2.156      3.187
REMARK  Name = 
REMARK  12 active torsions:
REMARK  status: ('A' for Active; 'I' for Inactive)
REMARK    1  A    between atoms: C_2  and  C_3
REMARK    2  A    between atoms: C_4  and  C_6
REMARK    3  A    between atoms: C_6  and  C_7
REMARK    4  A    between atoms: C_6  and  C_8
REMARK    5  A    between atoms: C_12  and  C_13
REMARK    6  A    between atoms: C_14  and  C_16
REMARK    7  A    between atoms: C_16  and  C_18
REMARK    8  A    between atoms: C_18  and  C_19
REMARK    9  A    between atoms: C_19  and  C_20
REMARK   10  A    between atoms: C_20  and  O_21
REMARK   11  A    between atoms: C_23  and  C_24
REMARK   12  A    between atoms: C_23  and  C_25
REMARK                            x       y       z     vdW  Elec       q    Type
REMARK                         _______ _______ _______ _____ _____    ______ ____
ROOT
ATOM      1  C   UNL     1       8.122   1.064  24.777  0.00  0.00    +0.004 C 
ATOM      2  C   UNL     1       8.495   2.475  25.192  0.00  0.00    +0.009 C 
ATOM      3  C   UNL     1       9.183  -0.086  25.165  0.00  0.00    -0.006 C 
ATOM      4  C   UNL     1      10.641   0.310  24.911  0.00  0.00    +0.016 C 
ATOM      5  C   UNL     1       9.015  -0.522  26.633  0.00  0.00    +0.016 C 
ATOM      6  C   UNL     1       8.681  -1.200  24.247  0.00  0.00    -0.038 A 
ATOM      7  C   UNL     1       8.824  -2.580  24.319  0.00  0.00    +0.008 A 
ATOM      8  C   UNL     1       7.853  -3.398  23.714  0.00  0.00    -0.040 A 
ATOM      9  C   UNL     1       6.684  -2.803  23.194  0.00  0.00    +0.021 A 
ATOM     10  C   UNL     1       6.660  -1.422  22.994  0.00  0.00    +0.015 A 
ATOM     11  C   UNL     1       8.064  -4.889  23.671  0.00  0.00    +0.044 C 
ATOM     12  C   UNL     1       7.732  -0.654  23.386  0.00  0.00    -0.039 A 
ATOM     13  C   UNL     1       7.929   0.838  23.260  0.00  0.00    +0.026 C 
ENDROOT
BRANCH  13  14
ATOM     14  C   UNL     1       6.887   1.536  22.355  0.00  0.00    -0.009 C 
ATOM     15  C   UNL     1       5.746   2.205  23.111  0.00  0.00    +0.008 C 
ATOM     16  C   UNL     1       7.596   2.646  21.535  0.00  0.00    +0.008 C 
ENDBRANCH  13  14
BRANCH   9  17
ATOM     17  C   UNL     1       5.445  -3.575  22.868  0.00  0.00    +0.164 C 
ATOM     18  O   UNL     1       5.144  -3.868  21.711  0.00  0.00    -0.292 OA
BRANCH  17  19
ATOM     19  C   UNL     1       4.468  -3.949  23.966  0.00  0.00    +0.091 C 
BRANCH  19  20
ATOM     20  C   UNL     1       3.913  -5.341  23.721  0.00  0.00    +0.128 C 
BRANCH  20  21
ATOM     21  C   UNL     1       4.463  -6.460  24.560  0.00  0.00    +0.305 C 
ATOM     22  O   UNL     1       4.072  -7.613  24.419  0.00  0.00    -0.251 OA
BRANCH  21  23
ATOM     23  O   UNL     1       5.408  -6.168  25.488  0.00  0.00    -0.481 OA
ATOM     24  H   UNL     1       5.272  -5.427  26.111  0.00  0.00    +0.295 HD
ENDBRANCH  21  23
ENDBRANCH  20  21
ENDBRANCH  19  20
ENDBRANCH  17  19
ENDBRANCH   9  17
TORSDOF 6
ENDMDL
MODEL 5
REMARK VINA RESULT:      -5.9      1.395      1.743
REMARK  Name = 
REMARK  12 active torsions:
REMARK  status: ('A' for Active; 'I' for Inactive)
REMARK    1  A    between atoms: C_2  and  C_3
REMARK    2  A    between atoms: C_4  and  C_6
REMARK    3  A    between atoms: C_6  and  C_7
REMARK    4  A    between atoms: C_6  and  C_8
REMARK    5  A    between atoms: C_12  and  C_13
REMARK    6  A    between atoms: C_14  and  C_16
REMARK    7  A    between atoms: C_16  and  C_18
REMARK    8  A    between atoms: C_18  and  C_19
REMARK    9  A    between atoms: C_19  and  C_20
REMARK   10  A    between atoms: C_20  and  O_21
REMARK   11  A    between atoms: C_23  and  C_24
REMARK   12  A    between atoms: C_23  and  C_25
REMARK                            x       y       z     vdW  Elec       q    Type
REMARK                         _______ _______ _______ _____ _____    ______ ____
ROOT
ATOM      1  C   UNL     1       8.518   1.882  24.010  0.00  0.00    +0.004 C 
ATOM      2  C   UNL     1       8.992   3.321  24.089  0.00  0.00    +0.009 C 
ATOM      3  C   UNL     1       9.530   0.847  23.300  0.00  0.00    -0.006 C 
ATOM      4  C   UNL     1      10.179   1.396  22.026  0.00  0.00    +0.016 C 
ATOM      5  C   UNL     1      10.626   0.386  24.279  0.00  0.00    +0.016 C 
ATOM      6  C   UNL     1       8.561  -0.306  23.047  0.00  0.00    -0.038 A 
ATOM      7  C   UNL     1       8.783  -1.664  22.855  0.00  0.00    +0.008 A 
ATOM      8  C   UNL     1       7.765  -2.576  23.188  0.00  0.00    -0.040 A 
ATOM      9  C   UNL     1       6.614  -2.103  23.855  0.00  0.00    +0.021 A 
ATOM     10  C   UNL     1       6.361  -0.730  23.876  0.00  0.00    +0.015 A 
ATOM     11  C   UNL     1       7.943  -4.035  22.863  0.00  0.00    +0.044 C 
ATOM     12  C   UNL     1       7.273   0.142  23.329  0.00  0.00    -0.039 A 
ATOM     13  C   UNL     1       7.205   1.649  23.229  0.00  0.00    +0.026 C 
ENDROOT
BRANCH  13  14
ATOM     14  C   UNL     1       5.817   2.240  23.573  0.00  0.00    -0.009 C 
ATOM     15  C   UNL     1       5.682   2.731  25.007  0.00  0.00    +0.008 C 
ATOM     16  C   UNL     1       5.547   3.458  22.651  0.00  0.00    +0.008 C 
ENDBRANCH  13  14
BRANCH   9  17
ATOM     17  C   UNL     1       5.656  -2.999  24.574  0.00  0.00    +0.164 C 
ATOM     18  O   UNL     1       4.614  -3.393  24.050  0.00  0.00    -0.292 OA
BRANCH  17  19
ATOM     19  C   UNL     1       5.907  -3.381  26.019  0.00  0.00    +0.091 C 
BRANCH  19  20
ATOM     20  C   UNL     1       6.298  -4.846  26.113  0.00  0.00    +0.128 C 
BRANCH  20  21
ATOM     21  C   UNL     1       7.594  -5.172  26.798  0.00  0.00    +0.305 C 
ATOM     22  O   UNL     1       8.655  -4.695  26.414  0.00  0.00    -0.251 OA
BRANCH  21  23
ATOM     23  O   UNL     1       7.568  -6.017  27.860  0.00  0.00    -0.481 OA
ATOM     24  H   UNL     1       7.964  -5.747  28.712  0.00  0.00    +0.295 HD
ENDBRANCH  21  23
ENDBRANCH  20  21
ENDBRANCH  19  20
ENDBRANCH  17  19
ENDBRANCH   9  17
TORSDOF 6
ENDMDL
MODEL 6
REMARK VINA RESULT:      -5.8      1.730      4.240
REMARK  Name = 
REMARK  12 active torsions:
REMARK  status: ('A' for Active; 'I' for Inactive)
REMARK    1  A    between atoms: C_2  and  C_3
REMARK    2  A    between atoms: C_4  and  C_6
REMARK    3  A    between atoms: C_6  and  C_7
REMARK    4  A    between atoms: C_6  and  C_8
REMARK    5  A    between atoms: C_12  and  C_13
REMARK    6  A    between atoms: C_14  and  C_16
REMARK    7  A    between atoms: C_16  and  C_18
REMARK    8  A    between atoms: C_18  and  C_19
REMARK    9  A    between atoms: C_19  and  C_20
REMARK   10  A    between atoms: C_20  and  O_21
REMARK   11  A    between atoms: C_23  and  C_24
REMARK   12  A    between atoms: C_23  and  C_25
REMARK                            x       y       z     vdW  Elec       q    Type
REMARK                         _______ _______ _______ _____ _____    ______ ____
ROOT
ATOM      1  C   UNL     1       7.652   1.394  24.287  0.00  0.00    +0.004 C 
ATOM      2  C   UNL     1       7.558   2.861  23.913  0.00  0.00    +0.009 C 
ATOM      3  C   UNL     1       6.827   0.948  25.598  0.00  0.00    -0.006 C 
ATOM      4  C   UNL     1       6.946   1.932  26.765  0.00  0.00    +0.016 C 
ATOM      5  C   UNL     1       5.340   0.721  25.264  0.00  0.00    +0.016 C 
ATOM      6  C   UNL     1       7.497  -0.399  25.860  0.00  0.00    -0.038 A 
ATOM      7  C   UNL     1       7.056  -1.523  26.548  0.00  0.00    +0.008 A 
ATOM      8  C   UNL     1       7.575  -2.783  26.200  0.00  0.00    -0.040 A 
ATOM      9  C   UNL     1       8.402  -2.892  25.062  0.00  0.00    +0.021 A 
ATOM     10  C   UNL     1       8.948  -1.731  24.510  0.00  0.00    +0.015 A 
ATOM     11  C   UNL     1       7.204  -3.989  27.022  0.00  0.00    +0.044 C 
ATOM     12  C   UNL     1       8.604  -0.502  25.022  0.00  0.00    -0.039 A 
ATOM     13  C   UNL     1       9.074   0.870  24.597  0.00  0.00    +0.026 C 
ENDROOT
BRANCH  13  14
ATOM     14  C   UNL     1      10.276   0.850  23.623  0.00  0.00    -0.009 C 
ATOM     15  C   UNL     1       9.893   0.715  22.156  0.00  0.00    +0.008 C 
ATOM     16  C   UNL     1      11.059   2.181  23.765  0.00  0.00    +0.008 C 
ENDBRANCH  13  14
BRANCH   9  17
ATOM     17  C   UNL     1       8.707  -4.192  24.389  0.00  0.00    +0.164 C 
ATOM     18  O   UNL     1       9.801  -4.746  24.506  0.00  0.00    -0.292 OA
BRANCH  17  19
ATOM     19  C   UNL     1       7.690  -4.829  23.462  0.00  0.00    +0.091 C 
BRANCH  19  20
ATOM     20  C   UNL     1       7.344  -3.876  22.332  0.00  0.00    +0.128 C 
BRANCH  20  21
ATOM     21  C   UNL     1       5.988  -3.230  22.366  0.00  0.00    +0.305 C 
ATOM     22  O   UNL     1       4.974  -3.863  22.096  0.00  0.00    -0.251 OA
BRANCH  21  23
ATOM     23  O   UNL     1       5.905  -1.917  22.699  0.00  0.00    -0.481 OA
ATOM     24  H   UNL     1       5.037  -1.467  22.713  0.00  0.00    +0.295 HD
ENDBRANCH  21  23
ENDBRANCH  20  21
ENDBRANCH  19  20
ENDBRANCH  17  19
ENDBRANCH   9  17
TORSDOF 6
ENDMDL
MODEL 7
REMARK VINA RESULT:      -5.8      2.040      2.630
REMARK  Name = 
REMARK  12 active torsions:
REMARK  status: ('A' for Active; 'I' for Inactive)
REMARK    1  A    between atoms: C_2  and  C_3
REMARK    2  A    between atoms: C_4  and  C_6
REMARK    3  A    between atoms: C_6  and  C_7
REMARK    4  A    between atoms: C_6  and  C_8
REMARK    5  A    between atoms: C_12  and  C_13
REMARK    6  A    between atoms: C_14  and  C_16
REMARK    7  A    between atoms: C_16  and  C_18
REMARK    8  A    between atoms: C_18  and  C_19
REMARK    9  A    between atoms: C_19  and  C_20
REMARK   10  A    between atoms: C_20  and  O_21
REMARK   11  A    between atoms: C_23  and  C_24
REMARK   12  A    between atoms: C_23  and  C_25
REMARK                            x       y       z     vdW  Elec       q    Type
REMARK                         _______ _______ _______ _____ _____    ______ ____
ROOT
ATOM      1  C   UNL     1       9.207  -0.087  24.421  0.00  0.00    +0.004 C 
ATOM      2  C   UNL     1       9.764   1.323  24.476  0.00  0.00    +0.009 C 
ATOM      3  C   UNL     1       9.154  -0.766  22.960  0.00  0.00    -0.006 C 
ATOM      4  C   UNL     1       8.659   0.179  21.860  0.00  0.00    +0.016 C 
ATOM      5  C   UNL     1      10.527  -1.341  22.566  0.00  0.00    +0.016 C 
ATOM      6  C   UNL     1       8.192  -1.914  23.261  0.00  0.00    -0.038 A 
ATOM      7  C   UNL     1       7.996  -3.134  22.625  0.00  0.00    +0.008 A 
ATOM      8  C   UNL     1       7.487  -4.216  23.367  0.00  0.00    -0.040 A 
ATOM      9  C   UNL     1       7.343  -4.080  24.764  0.00  0.00    +0.021 A 
ATOM     10  C   UNL     1       7.391  -2.803  25.327  0.00  0.00    +0.015 A 
ATOM     11  C   UNL     1       7.147  -5.502  22.662  0.00  0.00    +0.044 C 
ATOM     12  C   UNL     1       7.664  -1.714  24.533  0.00  0.00    -0.039 A 
ATOM     13  C   UNL     1       7.753  -0.255  24.918  0.00  0.00    +0.026 C 
ENDROOT
BRANCH  13  14
ATOM     14  C   UNL     1       7.229   0.053  26.340  0.00  0.00    -0.009 C 
ATOM     15  C   UNL     1       8.252  -0.160  27.447  0.00  0.00    +0.008 C 
ATOM     16  C   UNL     1       6.798   1.542  26.405  0.00  0.00    +0.008 C 
ENDBRANCH  13  14
BRANCH   9  17
ATOM     17  C   UNL     1       7.169  -5.242  25.689  0.00  0.00    +0.164 C 
ATOM     18  O   UNL     1       8.130  -5.866  26.140  0.00  0.00    -0.292 OA
BRANCH  17  19
ATOM     19  C   UNL     1       5.780  -5.743  26.031  0.00  0.00    +0.091 C 
BRANCH  19  20
ATOM     20  C   UNL     1       5.411  -5.335  27.447  0.00  0.00    +0.128 C 
BRANCH  20  21
ATOM     21  C   UNL     1       5.769  -6.284  28.554  0.00  0.00    +0.305 C 
ATOM     22  O   UNL     1       6.370  -5.902  29.552  0.00  0.00    -0.251 OA
BRANCH  21  23
ATOM     23  O   UNL     1       5.415  -7.588  28.428  0.00  0.00    -0.481 OA
ATOM     24  H   UNL     1       6.016  -8.293  28.742  0.00  0.00    +0.295 HD
ENDBRANCH  21  23
ENDBRANCH  20  21
ENDBRANCH  19  20
ENDBRANCH  17  19
ENDBRANCH   9  17
TORSDOF 6
ENDMDL
MODEL 8
REMARK VINA RESULT:      -5.7      4.559      7.577
REMARK  Name = 
REMARK  12 active torsions:
REMARK  status: ('A' for Active; 'I' for Inactive)
REMARK    1  A    between atoms: C_2  and  C_3
REMARK    2  A    between atoms: C_4  and  C_6
REMARK    3  A    between atoms: C_6  and  C_7
REMARK    4  A    between atoms: C_6  and  C_8
REMARK    5  A    between atoms: C_12  and  C_13
REMARK    6  A    between atoms: C_14  and  C_16
REMARK    7  A    between atoms: C_16  and  C_18
REMARK    8  A    between atoms: C_18  and  C_19
REMARK    9  A    between atoms: C_19  and  C_20
REMARK   10  A    between atoms: C_20  and  O_21
REMARK   11  A    between atoms: C_23  and  C_24
REMARK   12  A    between atoms: C_23  and  C_25
REMARK                            x       y       z     vdW  Elec       q    Type
REMARK                         _______ _______ _______ _____ _____    ______ ____
ROOT
ATOM      1  C   UNL     1       7.893  -0.040  23.364  0.00  0.00    +0.004 C 
ATOM      2  C   UNL     1       7.436  -1.450  23.043  0.00  0.00    +0.009 C 
ATOM      3  C   UNL     1       9.198   0.476  22.570  0.00  0.00    -0.006 C 
ATOM      4  C   UNL     1      10.313  -0.570  22.475  0.00  0.00    +0.016 C 
ATOM      5  C   UNL     1       8.828   0.965  21.157  0.00  0.00    +0.016 C 
ATOM      6  C   UNL     1       9.556   1.676  23.443  0.00  0.00    -0.038 A 
ATOM      7  C   UNL     1      10.289   2.824  23.166  0.00  0.00    +0.008 A 
ATOM      8  C   UNL     1      10.027   3.994  23.902  0.00  0.00    -0.040 A 
ATOM      9  C   UNL     1       8.924   4.017  24.783  0.00  0.00    +0.021 A 
ATOM     10  C   UNL     1       8.328   2.809  25.151  0.00  0.00    +0.015 A 
ATOM     11  C   UNL     1      10.901   5.204  23.703  0.00  0.00    +0.044 C 
ATOM     12  C   UNL     1       8.761   1.632  24.586  0.00  0.00    -0.039 A 
ATOM     13  C   UNL     1       8.278   0.223  24.838  0.00  0.00    +0.026 C 
ENDROOT
BRANCH  13  14
ATOM     14  C   UNL     1       7.347   0.087  26.067  0.00  0.00    -0.009 C 
ATOM     15  C   UNL     1       5.862   0.167  25.741  0.00  0.00    +0.008 C 
ATOM     16  C   UNL     1       7.589  -1.293  26.731  0.00  0.00    +0.008 C 
ENDBRANCH  13  14
BRANCH   9  17
ATOM     17  C   UNL     1       8.335   5.278  25.327  0.00  0.00    +0.164 C 
ATOM     18  O   UNL     1       8.730   5.782  26.379  0.00  0.00    -0.292 OA
BRANCH  17  19
ATOM     19  C   UNL     1       7.158   5.933  24.631  0.00  0.00    +0.091 C 
BRANCH  19  20
ATOM     20  C   UNL     1       7.642   6.772  23.461  0.00  0.00    +0.128 C 
BRANCH  20  21
ATOM     21  C   UNL     1       7.180   6.374  22.089  0.00  0.00    +0.305 C 
ATOM     22  O   UNL     1       6.461   7.108  21.420  0.00  0.00    -0.251 OA
BRANCH  21  23
ATOM     23  O   UNL     1       7.573   5.171  21.598  0.00  0.00    -0.481 OA
ATOM     24  H   UNL     1       8.423   5.089  21.122  0.00  0.00    +0.295 HD
ENDBRANCH  21  23
ENDBRANCH  20  21
ENDBRANCH  19  20
ENDBRANCH  17  19
ENDBRANCH   9  17
TORSDOF 6
ENDMDL
MODEL 9
REMARK VINA RESULT:      -5.7      1.515      3.558
REMARK  Name = 
REMARK  12 active torsions:
REMARK  status: ('A' for Active; 'I' for Inactive)
REMARK    1  A    between atoms: C_2  and  C_3
REMARK    2  A    between atoms: C_4  and  C_6
REMARK    3  A    between atoms: C_6  and  C_7
REMARK    4  A    between atoms: C_6  and  C_8
REMARK    5  A    between atoms: C_12  and  C_13
REMARK    6  A    between atoms: C_14  and  C_16
REMARK    7  A    between atoms: C_16  and  C_18
REMARK    8  A    between atoms: C_18  and  C_19
REMARK    9  A    between atoms: C_19  and  C_20
REMARK   10  A    between atoms: C_20  and  O_21
REMARK   11  A    between atoms: C_23  and  C_24
REMARK   12  A    between atoms: C_23  and  C_25
REMARK                            x       y       z     vdW  Elec       q    Type
REMARK                         _______ _______ _______ _____ _____    ______ ____
ROOT
ATOM      1  C   UNL     1       7.468   2.160  23.972  0.00  0.00    +0.004 C 
ATOM      2  C   UNL     1       7.986   3.582  24.083  0.00  0.00    +0.009 C 
ATOM      3  C   UNL     1       6.317   1.746  25.021  0.00  0.00    -0.006 C 
ATOM      4  C   UNL     1       6.577   2.241  26.447  0.00  0.00    +0.016 C 
ATOM      5  C   UNL     1       4.936   2.238  24.549  0.00  0.00    +0.016 C 
ATOM      6  C   UNL     1       6.389   0.227  24.876  0.00  0.00    -0.038 A 
ATOM      7  C   UNL     1       5.452  -0.764  25.142  0.00  0.00    +0.008 A 
ATOM      8  C   UNL     1       5.527  -1.979  24.438  0.00  0.00    -0.040 A 
ATOM      9  C   UNL     1       6.447  -2.098  23.374  0.00  0.00    +0.021 A 
ATOM     10  C   UNL     1       7.468  -1.154  23.254  0.00  0.00    +0.015 A 
ATOM     11  C   UNL     1       4.601  -3.107  24.808  0.00  0.00    +0.044 C 
ATOM     12  C   UNL     1       7.512  -0.081  24.113  0.00  0.00    -0.039 A 
ATOM     13  C   UNL     1       8.519   1.044  24.177  0.00  0.00    +0.026 C 
ENDROOT
BRANCH  13  14
ATOM     14  C   UNL     1       9.784   0.807  23.318  0.00  0.00    -0.009 C 
ATOM     15  C   UNL     1       9.759   1.496  21.961  0.00  0.00    +0.008 C 
ATOM     16  C   UNL     1      11.019   1.355  24.080  0.00  0.00    +0.008 C 
ENDBRANCH  13  14
BRANCH   9  17
ATOM     17  C   UNL     1       6.370  -3.175  22.339  0.00  0.00    +0.164 C 
ATOM     18  O   UNL     1       5.436  -3.245  21.539  0.00  0.00    -0.292 OA
BRANCH  17  19
ATOM     19  C   UNL     1       7.412  -4.275  22.303  0.00  0.00    +0.091 C 
BRANCH  19  20
ATOM     20  C   UNL     1       7.215  -5.221  23.475  0.00  0.00    +0.128 C 
BRANCH  20  21
ATOM     21  C   UNL     1       8.134  -5.062  24.652  0.00  0.00    +0.305 C 
ATOM     22  O   UNL     1       9.351  -5.019  24.510  0.00  0.00    -0.251 OA
BRANCH  21  23
ATOM     23  O   UNL     1       7.587  -4.969  25.891  0.00  0.00    -0.481 OA
ATOM     24  H   UNL     1       7.449  -4.093  26.302  0.00  0.00    +0.295 HD
ENDBRANCH  21  23
ENDBRANCH  20  21
ENDBRANCH  19  20
ENDBRANCH  17  19
ENDBRANCH   9  17
TORSDOF 6
ENDMDL
