MODEL 1
REMARK VINA RESULT:      -5.8      0.000      0.000
REMARK  Name = 
REMARK  9 active torsions:
REMARK  status: ('A' for Active; 'I' for Inactive)
REMARK    1  A    between atoms: C_2  and  C_3
REMARK    2  A    between atoms: C_3  and  S_4
REMARK    3  A    between atoms: S_4  and  C_5
REMARK    4  A    between atoms: C_7  and  O_9
REMARK    5  A    between atoms: O_9  and  C_10
REMARK    6  A    between atoms: C_10  and  C_11
REMARK    7  A    between atoms: C_10  and  C_12
REMARK    8  A    between atoms: C_20  and  O_21
REMARK    9  A    between atoms: O_21  and  C_22
REMARK                            x       y       z     vdW  Elec       q    Type
REMARK                         _______ _______ _______ _____ _____    ______ ____
ROOT
ATOM      1  C   UNL     1       7.405  -3.502  23.694  0.00  0.00    +0.146 C 
ATOM      2  C   UNL     1       8.838  -3.587  24.234  0.00  0.00    +0.075 C 
ATOM      3  S   UNL     1       9.343  -4.732  25.346  0.00  0.00    -0.038 S 
ATOM      4  N   UNL     1       9.740  -2.695  23.711  0.00  0.00    -0.309 N 
ATOM      5  H   UNL     1      10.722  -2.817  23.931  0.00  0.00    +0.152 HD
ATOM      6  C   UNL     1       9.306  -1.493  23.131  0.00  0.00    +0.054 A 
ATOM      7  C   UNL     1      10.249  -0.628  22.577  0.00  0.00    +0.029 A 
ATOM      8  C   UNL     1       9.842   0.599  22.050  0.00  0.00    +0.047 A 
ATOM      9  C   UNL     1       8.499   0.976  22.109  0.00  0.00    +0.122 A 
ATOM     10  C   UNL     1       7.563   0.110  22.688  0.00  0.00    +0.071 A 
ATOM     11  C   UNL     1       7.946  -1.136  23.191  0.00  0.00    +0.065 A 
ATOM     12  N   UNL     1       7.001  -2.071  23.738  0.00  0.00    -0.225 N 
ATOM     13  C   UNL     1       5.805  -1.646  24.305  0.00  0.00    +0.408 C 
ATOM     14  O   UNL     1       5.562  -0.489  24.635  0.00  0.00    -0.226 OA
ENDROOT
BRANCH   9  15
ATOM     15  O   UNL     1       7.971   2.147  21.640  0.00  0.00    -0.495 OA
ATOM     16  C   UNL     1       6.772   2.607  22.249  0.00  0.00    +0.277 C 
ENDBRANCH   9  15
BRANCH  13  17
ATOM     17  O   UNL     1       4.895  -2.655  24.469  0.00  0.00    -0.447 OA
BRANCH  17  18
ATOM     18  C   UNL     1       4.233  -2.674  25.755  0.00  0.00    +0.172 C 
ATOM     19  C   UNL     1       5.119  -3.443  26.728  0.00  0.00    +0.052 C 
ATOM     20  C   UNL     1       2.863  -3.344  25.657  0.00  0.00    +0.052 C 
ENDBRANCH  17  18
ENDBRANCH  13  17
BRANCH   1  21
ATOM     21  C   UNL     1       7.292  -4.047  22.248  0.00  0.00    +0.098 C 
BRANCH  21  22
ATOM     22  S   UNL     1       6.737  -5.784  22.044  0.00  0.00    -0.162 S 
ATOM     23  C   UNL     1       5.587  -5.928  23.432  0.00  0.00    +0.084 C 
ENDBRANCH  21  22
ENDBRANCH   1  21
TORSDOF 5
ENDMDL
MODEL 2
REMARK VINA RESULT:      -5.7      2.734      3.623
REMARK  Name = 
REMARK  9 active torsions:
REMARK  status: ('A' for Active; 'I' for Inactive)
REMARK    1  A    between atoms: C_2  and  C_3
REMARK    2  A    between atoms: C_3  and  S_4
REMARK    3  A    between atoms: S_4  and  C_5
REMARK    4  A    between atoms: C_7  and  O_9
REMARK    5  A    between atoms: O_9  and  C_10
REMARK    6  A    between atoms: C_10  and  C_11
REMARK    7  A    between atoms: C_10  and  C_12
REMARK    8  A    between atoms: C_20  and  O_21
REMARK    9  A    between atoms: O_21  and  C_22
REMARK                            x       y       z     vdW  Elec       q    Type
REMARK                         _______ _______ _______ _____ _____    ______ ____
ROOT
ATOM      1  C   UNL     1       6.371  -4.858  23.940  0.00  0.00    +0.146 C 
ATOM      2  C   UNL     1       6.764  -4.934  22.459  0.00  0.00    +0.075 C 
ATOM      3  S   UNL     1       6.441  -6.254  21.481  0.00  0.00    -0.038 S 
ATOM      4  N   UNL     1       7.361  -3.818  21.930  0.00  0.00    -0.309 N 
ATOM      5  H   UNL     1       7.498  -3.775  20.926  0.00  0.00    +0.152 HD
ATOM      6  C   UNL     1       8.018  -2.895  22.758  0.00  0.00    +0.054 A 
ATOM      7  C   UNL     1       8.581  -1.753  22.187  0.00  0.00    +0.029 A 
ATOM      8  C   UNL     1       9.291  -0.854  22.987  0.00  0.00    +0.047 A 
ATOM      9  C   UNL     1       9.467  -1.116  24.346  0.00  0.00    +0.122 A 
ATOM     10  C   UNL     1       8.917  -2.275  24.905  0.00  0.00    +0.071 A 
ATOM     11  C   UNL     1       8.176  -3.171  24.128  0.00  0.00    +0.065 A 
ATOM     12  N   UNL     1       7.550  -4.339  24.684  0.00  0.00    -0.225 N 
ATOM     13  C   UNL     1       8.050  -4.958  25.824  0.00  0.00    +0.408 C 
ATOM     14  O   UNL     1       9.167  -4.760  26.292  0.00  0.00    -0.226 OA
ENDROOT
BRANCH   9  15
ATOM     15  O   UNL     1      10.144  -0.326  25.236  0.00  0.00    -0.495 OA
ATOM     16  C   UNL     1      10.927   0.731  24.698  0.00  0.00    +0.277 C 
ENDBRANCH   9  15
BRANCH  13  17
ATOM     17  O   UNL     1       7.167  -5.832  26.397  0.00  0.00    -0.447 OA
BRANCH  17  18
ATOM     18  C   UNL     1       6.675  -5.435  27.697  0.00  0.00    +0.172 C 
ATOM     19  C   UNL     1       5.692  -6.499  28.173  0.00  0.00    +0.052 C 
ATOM     20  C   UNL     1       5.976  -4.077  27.629  0.00  0.00    +0.052 C 
ENDBRANCH  17  18
ENDBRANCH  13  17
BRANCH   1  21
ATOM     21  C   UNL     1       5.143  -3.941  24.173  0.00  0.00    +0.098 C 
BRANCH  21  22
ATOM     22  S   UNL     1       3.558  -4.753  24.610  0.00  0.00    -0.162 S 
ATOM     23  C   UNL     1       4.095  -6.474  24.746  0.00  0.00    +0.084 C 
ENDBRANCH  21  22
ENDBRANCH   1  21
TORSDOF 5
ENDMDL
MODEL 3
REMARK VINA RESULT:      -5.5      3.037      6.143
REMARK  Name = 
REMARK  9 active torsions:
REMARK  status: ('A' for Active; 'I' for Inactive)
REMARK    1  A    between atoms: C_2  and  C_3
REMARK    2  A    between atoms: C_3  and  S_4
REMARK    3  A    between atoms: S_4  and  C_5
REMARK    4  A    between atoms: C_7  and  O_9
REMARK    5  A    between atoms: O_9  and  C_10
REMARK    6  A    between atoms: C_10  and  C_11
REMARK    7  A    between atoms: C_10  and  C_12
REMARK    8  A    between atoms: C_20  and  O_21
REMARK    9  A    between atoms: O_21  and  C_22
REMARK                            x       y       z     vdW  Elec       q    Type
REMARK                         _______ _______ _______ _____ _____    ______ ____
ROOT
ATOM      1  C   UNL     1       7.527  -0.176  25.046  0.00  0.00    +0.146 C 
ATOM      2  C   UNL     1       7.029  -0.632  26.424  0.00  0.00    +0.075 C 
ATOM      3  S   UNL     1       7.135   0.309  27.805  0.00  0.00    -0.038 S 
ATOM      4  N   UNL     1       6.420  -1.859  26.476  0.00  0.00    -0.309 N 
ATOM      5  H   UNL     1       5.948  -2.127  27.332  0.00  0.00    +0.152 HD
ATOM      6  C   UNL     1       6.675  -2.829  25.495  0.00  0.00    +0.054 A 
ATOM      7  C   UNL     1       6.008  -4.053  25.560  0.00  0.00    +0.029 A 
ATOM      8  C   UNL     1       6.295  -5.052  24.627  0.00  0.00    +0.047 A 
ATOM      9  C   UNL     1       7.273  -4.840  23.654  0.00  0.00    +0.122 A 
ATOM     10  C   UNL     1       7.952  -3.617  23.610  0.00  0.00    +0.071 A 
ATOM     11  C   UNL     1       7.657  -2.593  24.514  0.00  0.00    +0.065 A 
ATOM     12  N   UNL     1       8.295  -1.307  24.458  0.00  0.00    -0.225 N 
ATOM     13  C   UNL     1       9.568  -1.150  23.922  0.00  0.00    +0.408 C 
ATOM     14  O   UNL     1      10.351  -2.070  23.706  0.00  0.00    -0.226 OA
ENDROOT
BRANCH   9  15
ATOM     15  O   UNL     1       7.655  -5.734  22.690  0.00  0.00    -0.495 OA
ATOM     16  C   UNL     1       6.628  -6.294  21.883  0.00  0.00    +0.277 C 
ENDBRANCH   9  15
BRANCH  13  17
ATOM     17  O   UNL     1       9.883   0.152  23.646  0.00  0.00    -0.447 OA
BRANCH  17  18
ATOM     18  C   UNL     1      10.168   0.429  22.256  0.00  0.00    +0.172 C 
ATOM     19  C   UNL     1      10.140   1.941  22.062  0.00  0.00    +0.052 C 
ATOM     20  C   UNL     1       9.137  -0.232  21.342  0.00  0.00    +0.052 C 
ENDBRANCH  17  18
ENDBRANCH  13  17
BRANCH   1  21
ATOM     21  C   UNL     1       6.362   0.227  24.107  0.00  0.00    +0.098 C 
BRANCH  21  22
ATOM     22  S   UNL     1       6.446   1.883  23.324  0.00  0.00    -0.162 S 
ATOM     23  C   UNL     1       7.434   2.776  24.548  0.00  0.00    +0.084 C 
ENDBRANCH  21  22
ENDBRANCH   1  21
TORSDOF 5
ENDMDL
MODEL 4
REMARK VINA RESULT:      -5.3      2.659      3.886
REMARK  Name = 
REMARK  9 active torsions:
REMARK  status: ('A' for Active; 'I' for Inactive)
REMARK    1  A    between atoms: C_2  and  C_3
REMARK    2  A    between atoms: C_3  and  S_4
REMARK    3  A    between atoms: S_4  and  C_5
REMARK    4  A    between atoms: C_7  and  O_9
REMARK    5  A    between atoms: O_9  and  C_10
REMARK    6  A    between atoms: C_10  and  C_11
REMARK    7  A    between atoms: C_10  and  C_12
REMARK    8  A    between atoms: C_20  and  O_21
REMARK    9  A    between atoms: O_21  and  C_22
REMARK                            x       y       z     vdW  Elec       q    Type
REMARK                         _______ _______ _______ _____ _____    ______ ____
ROOT
ATOM      1  C   UNL     1       7.097  -2.492  25.324  0.00  0.00    +0.146 C 
ATOM      2  C   UNL     1       5.980  -1.572  25.833  0.00  0.00    +0.075 C 
ATOM      3  S   UNL     1       4.445  -2.111  26.229  0.00  0.00    -0.038 S 
ATOM      4  N   UNL     1       6.311  -0.253  26.014  0.00  0.00    -0.309 N 
ATOM      5  H   UNL     1       5.648   0.350  26.487  0.00  0.00    +0.152 HD
ATOM      6  C   UNL     1       7.394   0.315  25.325  0.00  0.00    +0.054 A 
ATOM      7  C   UNL     1       7.724   1.649  25.563  0.00  0.00    +0.029 A 
ATOM      8  C   UNL     1       8.760   2.248  24.842  0.00  0.00    +0.047 A 
ATOM      9  C   UNL     1       9.440   1.524  23.861  0.00  0.00    +0.122 A 
ATOM     10  C   UNL     1       9.086   0.193  23.614  0.00  0.00    +0.071 A 
ATOM     11  C   UNL     1       8.074  -0.435  24.347  0.00  0.00    +0.065 A 
ATOM     12  N   UNL     1       7.728  -1.816  24.158  0.00  0.00    -0.225 N 
ATOM     13  C   UNL     1       7.939  -2.458  22.943  0.00  0.00    +0.408 C 
ATOM     14  O   UNL     1       8.168  -1.885  21.882  0.00  0.00    -0.226 OA
ENDROOT
BRANCH   9  15
ATOM     15  O   UNL     1      10.462   1.991  23.081  0.00  0.00    -0.495 OA
ATOM     16  C   UNL     1      10.965   3.286  23.380  0.00  0.00    +0.277 C 
ENDBRANCH   9  15
BRANCH  13  17
ATOM     17  O   UNL     1       7.868  -3.822  23.031  0.00  0.00    -0.447 OA
BRANCH  17  18
ATOM     18  C   UNL     1       6.982  -4.448  22.075  0.00  0.00    +0.172 C 
ATOM     19  C   UNL     1       5.548  -4.209  22.535  0.00  0.00    +0.052 C 
ATOM     20  C   UNL     1       7.253  -5.949  21.976  0.00  0.00    +0.052 C 
ENDBRANCH  17  18
ENDBRANCH  13  17
BRANCH   1  21
ATOM     21  C   UNL     1       8.158  -2.782  26.415  0.00  0.00    +0.098 C 
BRANCH  21  22
ATOM     22  S   UNL     1       8.845  -4.481  26.491  0.00  0.00    -0.162 S 
ATOM     23  C   UNL     1       7.327  -5.440  26.707  0.00  0.00    +0.084 C 
ENDBRANCH  21  22
ENDBRANCH   1  21
TORSDOF 5
ENDMDL
MODEL 5
REMARK VINA RESULT:      -5.3      4.324      6.432
REMARK  Name = 
REMARK  9 active torsions:
REMARK  status: ('A' for Active; 'I' for Inactive)
REMARK    1  A    between atoms: C_2  and  C_3
REMARK    2  A    between atoms: C_3  and  S_4
REMARK    3  A    between atoms: S_4  and  C_5
REMARK    4  A    between atoms: C_7  and  O_9
REMARK    5  A    between atoms: O_9  and  C_10
REMARK    6  A    between atoms: C_10  and  C_11
REMARK    7  A    between atoms: C_10  and  C_12
REMARK    8  A    between atoms: C_20  and  O_21
REMARK    9  A    between atoms: O_21  and  C_22
REMARK                            x       y       z     vdW  Elec       q    Type
REMARK                         _______ _______ _______ _____ _____    ______ ____
ROOT
ATOM      1  C   UNL     1       7.358   2.236  24.130  0.00  0.00    +0.146 C 
ATOM      2  C   UNL     1       6.549   3.465  23.698  0.00  0.00    +0.075 C 
ATOM      3  S   UNL     1       4.945   3.398  23.221  0.00  0.00    -0.038 S 
ATOM      4  N   UNL     1       7.191   4.675  23.775  0.00  0.00    -0.309 N 
ATOM      5  H   UNL     1       6.646   5.519  23.643  0.00  0.00    +0.152 HD
ATOM      6  C   UNL     1       8.592   4.746  23.753  0.00  0.00    +0.054 A 
ATOM      7  C   UNL     1       9.211   5.991  23.870  0.00  0.00    +0.029 A 
ATOM      8  C   UNL     1      10.601   6.086  23.789  0.00  0.00    +0.047 A 
ATOM      9  C   UNL     1      11.369   4.945  23.555  0.00  0.00    +0.122 A 
ATOM     10  C   UNL     1      10.738   3.703  23.416  0.00  0.00    +0.071 A 
ATOM     11  C   UNL     1       9.350   3.581  23.526  0.00  0.00    +0.065 A 
ATOM     12  N   UNL     1       8.677   2.314  23.447  0.00  0.00    -0.225 N 
ATOM     13  C   UNL     1       9.220   1.248  22.738  0.00  0.00    +0.408 C 
ATOM     14  O   UNL     1      10.133   1.344  21.923  0.00  0.00    -0.226 OA
ENDROOT
BRANCH   9  15
ATOM     15  O   UNL     1      12.732   4.901  23.445  0.00  0.00    -0.495 OA
ATOM     16  C   UNL     1      13.311   5.523  22.307  0.00  0.00    +0.277 C 
ENDBRANCH   9  15
BRANCH  13  17
ATOM     17  O   UNL     1       8.634   0.047  23.034  0.00  0.00    -0.447 OA
BRANCH  17  18
ATOM     18  C   UNL     1       9.421  -0.822  23.881  0.00  0.00    +0.172 C 
ATOM     19  C   UNL     1      10.396   0.047  24.668  0.00  0.00    +0.052 C 
ATOM     20  C   UNL     1      10.191  -1.848  23.051  0.00  0.00    +0.052 C 
ENDBRANCH  17  18
ENDBRANCH  13  17
BRANCH   1  21
ATOM     21  C   UNL     1       7.552   2.173  25.666  0.00  0.00    +0.098 C 
BRANCH  21  22
ATOM     22  S   UNL     1       6.824   0.740  26.548  0.00  0.00    -0.162 S 
ATOM     23  C   UNL     1       5.843  -0.001  25.221  0.00  0.00    +0.084 C 
ENDBRANCH  21  22
ENDBRANCH   1  21
TORSDOF 5
ENDMDL
MODEL 6
REMARK VINA RESULT:      -5.1      4.955      8.135
REMARK  Name = 
REMARK  9 active torsions:
REMARK  status: ('A' for Active; 'I' for Inactive)
REMARK    1  A    between atoms: C_2  and  C_3
REMARK    2  A    between atoms: C_3  and  S_4
REMARK    3  A    between atoms: S_4  and  C_5
REMARK    4  A    between atoms: C_7  and  O_9
REMARK    5  A    between atoms: O_9  and  C_10
REMARK    6  A    between atoms: C_10  and  C_11
REMARK    7  A    between atoms: C_10  and  C_12
REMARK    8  A    between atoms: C_20  and  O_21
REMARK    9  A    between atoms: O_21  and  C_22
REMARK                            x       y       z     vdW  Elec       q    Type
REMARK                         _______ _______ _______ _____ _____    ______ ____
ROOT
ATOM      1  C   UNL     1       8.474   4.239  24.241  0.00  0.00    +0.146 C 
ATOM      2  C   UNL     1       7.807   4.106  25.616  0.00  0.00    +0.075 C 
ATOM      3  S   UNL     1       7.652   5.375  26.697  0.00  0.00    -0.038 S 
ATOM      4  N   UNL     1       7.271   2.880  25.917  0.00  0.00    -0.309 N 
ATOM      5  H   UNL     1       6.696   2.796  26.748  0.00  0.00    +0.152 HD
ATOM      6  C   UNL     1       7.726   1.720  25.272  0.00  0.00    +0.054 A 
ATOM      7  C   UNL     1       7.132   0.496  25.578  0.00  0.00    +0.029 A 
ATOM      8  C   UNL     1       7.612  -0.677  24.990  0.00  0.00    +0.047 A 
ATOM      9  C   UNL     1       8.708  -0.629  24.127  0.00  0.00    +0.122 A 
ATOM     10  C   UNL     1       9.312   0.602  23.844  0.00  0.00    +0.071 A 
ATOM     11  C   UNL     1       8.825   1.790  24.396  0.00  0.00    +0.065 A 
ATOM     12  N   UNL     1       9.387   3.075  24.079  0.00  0.00    -0.225 N 
ATOM     13  C   UNL     1      10.713   3.210  23.685  0.00  0.00    +0.408 C 
ATOM     14  O   UNL     1      11.573   2.346  23.824  0.00  0.00    -0.226 OA
ENDROOT
BRANCH   9  15
ATOM     15  O   UNL     1       9.280  -1.698  23.494  0.00  0.00    -0.495 OA
ATOM     16  C   UNL     1      10.303  -1.420  22.548  0.00  0.00    +0.277 C 
ENDBRANCH   9  15
BRANCH  13  17
ATOM     17  O   UNL     1      10.987   4.423  23.113  0.00  0.00    -0.447 OA
BRANCH  17  18
ATOM     18  C   UNL     1      12.289   4.965  23.430  0.00  0.00    +0.172 C 
ATOM     19  C   UNL     1      12.089   6.159  24.356  0.00  0.00    +0.052 C 
ATOM     20  C   UNL     1      13.024   5.405  22.164  0.00  0.00    +0.052 C 
ENDBRANCH  17  18
ENDBRANCH  13  17
BRANCH   1  21
ATOM     21  C   UNL     1       7.438   4.272  23.089  0.00  0.00    +0.098 C 
BRANCH  21  22
ATOM     22  S   UNL     1       7.230   5.857  22.190  0.00  0.00    -0.162 S 
ATOM     23  C   UNL     1       8.306   6.934  23.167  0.00  0.00    +0.084 C 
ENDBRANCH  21  22
ENDBRANCH   1  21
TORSDOF 5
ENDMDL
MODEL 7
REMARK VINA RESULT:      -5.1      2.648      6.202
REMARK  Name = 
REMARK  9 active torsions:
REMARK  status: ('A' for Active; 'I' for Inactive)
REMARK    1  A    between atoms: C_2  and  C_3
REMARK    2  A    between atoms: C_3  and  S_4
REMARK    3  A    between atoms: S_4  and  C_5
REMARK    4  A    between atoms: C_7  and  O_9
REMARK    5  A    between atoms: O_9  and  C_10
REMARK    6  A    between atoms: C_10  and  C_11
REMARK    7  A    between atoms: C_10  and  C_12
REMARK    8  A    between atoms: C_20  and  O_21
REMARK    9  A    between atoms: O_21  and  C_22
REMARK                            x       y       z     vdW  Elec       q    Type
REMARK                         _______ _______ _______ _____ _____    ______ ____
ROOT
ATOM      1  C   UNL     1       6.564  -3.429  25.507  0.00  0.00    +0.146 C 
ATOM      2  C   UNL     1       7.227  -4.761  25.877  0.00  0.00    +0.075 C 
ATOM      3  S   UNL     1       8.824  -4.898  26.363  0.00  0.00    -0.038 S 
ATOM      4  N   UNL     1       6.421  -5.871  25.852  0.00  0.00    -0.309 N 
ATOM      5  H   UNL     1       6.783  -6.738  26.232  0.00  0.00    +0.152 HD
ATOM      6  C   UNL     1       5.251  -5.891  25.077  0.00  0.00    +0.054 A 
ATOM      7  C   UNL     1       4.437  -7.023  25.105  0.00  0.00    +0.029 A 
ATOM      8  C   UNL     1       3.302  -7.084  24.294  0.00  0.00    +0.047 A 
ATOM      9  C   UNL     1       3.002  -6.030  23.430  0.00  0.00    +0.122 A 
ATOM     10  C   UNL     1       3.838  -4.907  23.392  0.00  0.00    +0.071 A 
ATOM     11  C   UNL     1       4.960  -4.813  24.220  0.00  0.00    +0.065 A 
ATOM     12  N   UNL     1       5.804  -3.650  24.247  0.00  0.00    -0.225 N 
ATOM     13  C   UNL     1       5.923  -2.814  23.142  0.00  0.00    +0.408 C 
ATOM     14  O   UNL     1       5.566  -3.106  22.005  0.00  0.00    -0.226 OA
ENDROOT
BRANCH   9  15
ATOM     15  O   UNL     1       1.931  -5.966  22.581  0.00  0.00    -0.495 OA
ATOM     16  C   UNL     1       0.805  -5.215  23.013  0.00  0.00    +0.277 C 
ENDBRANCH   9  15
BRANCH  13  17
ATOM     17  O   UNL     1       6.487  -1.603  23.438  0.00  0.00    -0.447 OA
BRANCH  17  18
ATOM     18  C   UNL     1       7.627  -1.247  22.623  0.00  0.00    +0.172 C 
ATOM     19  C   UNL     1       8.813  -2.089  23.080  0.00  0.00    +0.052 C 
ATOM     20  C   UNL     1       7.959   0.238  22.761  0.00  0.00    +0.052 C 
ENDBRANCH  17  18
ENDBRANCH  13  17
BRANCH   1  21
ATOM     21  C   UNL     1       5.617  -2.917  26.622  0.00  0.00    +0.098 C 
BRANCH  21  22
ATOM     22  S   UNL     1       5.761  -1.153  27.104  0.00  0.00    -0.162 S 
ATOM     23  C   UNL     1       7.509  -0.856  26.746  0.00  0.00    +0.084 C 
ENDBRANCH  21  22
ENDBRANCH   1  21
TORSDOF 5
ENDMDL
MODEL 8
REMARK VINA RESULT:      -5.1      3.938      5.740
REMARK  Name = 
REMARK  9 active torsions:
REMARK  status: ('A' for Active; 'I' for Inactive)
REMARK    1  A    between atoms: C_2  and  C_3
REMARK    2  A    between atoms: C_3  and  S_4
REMARK    3  A    between atoms: S_4  and  C_5
REMARK    4  A    between atoms: C_7  and  O_9
REMARK    5  A    between atoms: O_9  and  C_10
REMARK    6  A    between atoms: C_10  and  C_11
REMARK    7  A    between atoms: C_10  and  C_12
REMARK    8  A    between atoms: C_20  and  O_21
REMARK    9  A    between atoms: O_21  and  C_22
REMARK                            x       y       z     vdW  Elec       q    Type
REMARK                         _______ _______ _______ _____ _____    ______ ____
ROOT
ATOM      1  C   UNL     1       7.390   2.217  24.317  0.00  0.00    +0.146 C 
ATOM      2  C   UNL     1       7.295   2.414  22.798  0.00  0.00    +0.075 C 
ATOM      3  S   UNL     1       6.258   3.508  22.069  0.00  0.00    -0.038 S 
ATOM      4  N   UNL     1       8.162   1.677  22.033  0.00  0.00    -0.309 N 
ATOM      5  H   UNL     1       8.231   1.888  21.044  0.00  0.00    +0.152 HD
ATOM      6  C   UNL     1       8.722   0.489  22.527  0.00  0.00    +0.054 A 
ATOM      7  C   UNL     1       9.628  -0.215  21.734  0.00  0.00    +0.029 A 
ATOM      8  C   UNL     1      10.149  -1.430  22.185  0.00  0.00    +0.047 A 
ATOM      9  C   UNL     1       9.736  -1.957  23.409  0.00  0.00    +0.122 A 
ATOM     10  C   UNL     1       8.809  -1.255  24.188  0.00  0.00    +0.071 A 
ATOM     11  C   UNL     1       8.301  -0.021  23.770  0.00  0.00    +0.065 A 
ATOM     12  N   UNL     1       7.394   0.751  24.572  0.00  0.00    -0.225 N 
ATOM     13  C   UNL     1       6.550   0.149  25.498  0.00  0.00    +0.408 C 
ATOM     14  O   UNL     1       6.299  -1.052  25.535  0.00  0.00    -0.226 OA
ENDROOT
BRANCH   9  15
ATOM     15  O   UNL     1      10.160  -3.136  23.961  0.00  0.00    -0.495 OA
ATOM     16  C   UNL     1       9.215  -3.868  24.729  0.00  0.00    +0.277 C 
ENDBRANCH   9  15
BRANCH  13  17
ATOM     17  O   UNL     1       6.007   1.032  26.391  0.00  0.00    -0.447 OA
BRANCH  17  18
ATOM     18  C   UNL     1       6.522   0.930  27.738  0.00  0.00    +0.172 C 
ATOM     19  C   UNL     1       5.409   0.386  28.627  0.00  0.00    +0.052 C 
ATOM     20  C   UNL     1       6.981   2.293  28.256  0.00  0.00    +0.052 C 
ENDBRANCH  17  18
ENDBRANCH  13  17
BRANCH   1  21
ATOM     21  C   UNL     1       8.663   2.869  24.912  0.00  0.00    +0.098 C 
BRANCH  21  22
ATOM     22  S   UNL     1       9.396   4.277  23.993  0.00  0.00    -0.162 S 
ATOM     23  C   UNL     1      10.938   3.528  23.417  0.00  0.00    +0.084 C 
ENDBRANCH  21  22
ENDBRANCH   1  21
TORSDOF 5
ENDMDL
MODEL 9
REMARK VINA RESULT:      -4.9      2.412      5.103
REMARK  Name = 
REMARK  9 active torsions:
REMARK  status: ('A' for Active; 'I' for Inactive)
REMARK    1  A    between atoms: C_2  and  C_3
REMARK    2  A    between atoms: C_3  and  S_4
REMARK    3  A    between atoms: S_4  and  C_5
REMARK    4  A    between atoms: C_7  and  O_9
REMARK    5  A    between atoms: O_9  and  C_10
REMARK    6  A    between atoms: C_10  and  C_11
REMARK    7  A    between atoms: C_10  and  C_12
REMARK    8  A    between atoms: C_20  and  O_21
REMARK    9  A    between atoms: O_21  and  C_22
REMARK                            x       y       z     vdW  Elec       q    Type
REMARK                         _______ _______ _______ _____ _____    ______ ____
ROOT
ATOM      1  C   UNL     1       8.038  -1.804  24.178  0.00  0.00    +0.146 C 
ATOM      2  C   UNL     1       8.356  -1.789  22.678  0.00  0.00    +0.075 C 
ATOM      3  S   UNL     1       8.994  -0.462  21.880  0.00  0.00    -0.038 S 
ATOM      4  N   UNL     1       8.145  -2.961  21.999  0.00  0.00    -0.309 N 
ATOM      5  H   UNL     1       8.482  -3.034  21.045  0.00  0.00    +0.152 HD
ATOM      6  C   UNL     1       7.251  -3.925  22.491  0.00  0.00    +0.054 A 
ATOM      7  C   UNL     1       7.090  -5.121  21.792  0.00  0.00    +0.029 A 
ATOM      8  C   UNL     1       6.160  -6.065  22.233  0.00  0.00    +0.047 A 
ATOM      9  C   UNL     1       5.368  -5.797  23.350  0.00  0.00    +0.122 A 
ATOM     10  C   UNL     1       5.520  -4.584  24.032  0.00  0.00    +0.071 A 
ATOM     11  C   UNL     1       6.468  -3.640  23.625  0.00  0.00    +0.065 A 
ATOM     12  N   UNL     1       6.689  -2.412  24.338  0.00  0.00    -0.225 N 
ATOM     13  C   UNL     1       5.683  -1.820  25.093  0.00  0.00    +0.408 C 
ATOM     14  O   UNL     1       4.493  -2.107  25.017  0.00  0.00    -0.226 OA
ENDROOT
BRANCH   9  15
ATOM     15  O   UNL     1       4.418  -6.627  23.880  0.00  0.00    -0.495 OA
ATOM     16  C   UNL     1       4.490  -6.886  25.275  0.00  0.00    +0.277 C 
ENDBRANCH   9  15
BRANCH  13  17
ATOM     17  O   UNL     1       6.146  -0.861  25.953  0.00  0.00    -0.447 OA
BRANCH  17  18
ATOM     18  C   UNL     1       5.404   0.380  25.937  0.00  0.00    +0.172 C 
ATOM     19  C   UNL     1       5.794   1.143  24.676  0.00  0.00    +0.052 C 
ATOM     20  C   UNL     1       5.716   1.223  27.172  0.00  0.00    +0.052 C 
ENDBRANCH  17  18
ENDBRANCH  13  17
BRANCH   1  21
ATOM     21  C   UNL     1       9.087  -2.605  24.990  0.00  0.00    +0.098 C 
BRANCH  21  22
ATOM     22  S   UNL     1       8.463  -3.686  26.334  0.00  0.00    -0.162 S 
ATOM     23  C   UNL     1       8.937  -5.311  25.697  0.00  0.00    +0.084 C 
ENDBRANCH  21  22
ENDBRANCH   1  21
TORSDOF 5
ENDMDL
