MODEL 1
REMARK VINA RESULT:      -8.0      0.000      0.000
REMARK  Name = 
REMARK  9 active torsions:
REMARK  status: ('A' for Active; 'I' for Inactive)
REMARK    1  A    between atoms: C_2  and  C_3
REMARK    2  A    between atoms: C_2  and  N_4
REMARK    3  A    between atoms: C_2  and  C_28
REMARK    4  A    between atoms: C_5  and  C_7
REMARK    5  A    between atoms: C_7  and  C_8
REMARK    6  A    between atoms: C_11  and  N_12
REMARK    7  A    between atoms: N_12  and  C_13
REMARK    8  A    between atoms: C_13  and  C_14
REMARK    9  A    between atoms: C_14  and  C_17
REMARK                            x       y       z     vdW  Elec       q    Type
REMARK                         _______ _______ _______ _____ _____    ______ ____
ROOT
ATOM      1  C   UNL     1       8.294   0.961  23.074  0.00  0.00    +0.224 A 
ATOM      2  C   UNL     1       9.695   0.924  23.029  0.00  0.00    +0.109 A 
ATOM      3 CL   UNL     1      10.624   2.065  22.124  0.00  0.00    -0.077 Cl
ATOM      4  C   UNL     1      10.397  -0.035  23.739  0.00  0.00    +0.034 A 
ATOM      5  C   UNL     1       9.716  -0.980  24.489  0.00  0.00    +0.099 A 
ATOM      6  C   UNL     1       8.311  -0.985  24.562  0.00  0.00    +0.283 A 
ATOM      7  N   UNL     1       7.596   0.005  23.830  0.00  0.00    -0.153 N 
ATOM      8  O   UNL     1       6.308   0.032  23.875  0.00  0.00    -0.618 OA
ENDROOT
BRANCH   6   9
ATOM      9  N   UNL     1       7.618  -1.966  25.308  0.00  0.00    -0.284 N 
ATOM     10  H   UNL     1       6.665  -1.686  25.546  0.00  0.00    +0.152 HD
BRANCH   9  11
ATOM     11  C   UNL     1       8.403  -2.831  26.214  0.00  0.00    +0.194 C 
BRANCH  11  12
ATOM     12  C   UNL     1       8.614  -4.317  25.829  0.00  0.00    +0.347 C 
ATOM     13  F   UNL     1       8.601  -5.048  26.994  0.00  0.00    -0.192 F 
ATOM     14  F   UNL     1       9.892  -4.463  25.356  0.00  0.00    -0.192 F 
BRANCH  12  15
ATOM     15  C   UNL     1       7.606  -4.890  24.850  0.00  0.00    +0.266 A 
ATOM     16  C   UNL     1       7.936  -5.057  23.487  0.00  0.00    +0.081 A 
ATOM     17  C   UNL     1       7.011  -5.581  22.585  0.00  0.00    +0.012 A 
ATOM     18  C   UNL     1       5.745  -5.942  23.021  0.00  0.00    +0.071 A 
ATOM     19  C   UNL     1       5.423  -5.755  24.359  0.00  0.00    +0.322 A 
ATOM     20  N   UNL     1       6.330  -5.229  25.277  0.00  0.00    -0.169 N 
ATOM     21  O   UNL     1       5.950  -5.100  26.479  0.00  0.00    -0.619 OA
ENDBRANCH  12  15
ENDBRANCH  11  12
ENDBRANCH   9  11
ENDBRANCH   6   9
BRANCH   1  22
ATOM     22  C   UNL     1       7.481   1.972  22.321  0.00  0.00    +0.205 C 
BRANCH  22  25
ATOM     23  N   UNL     1       8.137   4.267  22.756  0.00  0.00    -0.308 N 
ATOM     24  H   UNL     1       8.998   3.996  22.298  0.00  0.00    +0.149 HD
ATOM     25  C   UNL     1       7.275   3.249  23.113  0.00  0.00    +0.224 C 
ATOM     26  O   UNL     1       6.390   3.374  23.953  0.00  0.00    -0.275 OA
BRANCH  23  27
ATOM     27  C   UNL     1       8.143   5.538  23.465  0.00  0.00    +0.100 C 
ATOM     28  C   UNL     1       7.614   6.648  22.558  0.00  0.00    +0.033 C 
BRANCH  27  29
ATOM     29  C   UNL     1       9.520   5.880  24.005  0.00  0.00    -0.026 A 
ATOM     30  C   UNL     1      10.660   5.386  23.350  0.00  0.00    +0.025 A 
ATOM     31  C   UNL     1      11.937   5.722  23.800  0.00  0.00    +0.041 A 
ATOM     32 CL   UNL     1      13.320   5.123  22.970  0.00  0.00    -0.084 Cl
ATOM     33  C   UNL     1      12.101   6.546  24.910  0.00  0.00    +0.020 A 
ATOM     34  C   UNL     1      10.981   7.025  25.586  0.00  0.00    +0.002 A 
ATOM     35  C   UNL     1       9.699   6.689  25.141  0.00  0.00    +0.005 A 
ENDBRANCH  27  29
ENDBRANCH  23  27
ENDBRANCH  22  25
ENDBRANCH   1  22
TORSDOF 8
ENDMDL
MODEL 2
REMARK VINA RESULT:      -8.0      2.651      3.694
REMARK  Name = 
REMARK  9 active torsions:
REMARK  status: ('A' for Active; 'I' for Inactive)
REMARK    1  A    between atoms: C_2  and  C_3
REMARK    2  A    between atoms: C_2  and  N_4
REMARK    3  A    between atoms: C_2  and  C_28
REMARK    4  A    between atoms: C_5  and  C_7
REMARK    5  A    between atoms: C_7  and  C_8
REMARK    6  A    between atoms: C_11  and  N_12
REMARK    7  A    between atoms: N_12  and  C_13
REMARK    8  A    between atoms: C_13  and  C_14
REMARK    9  A    between atoms: C_14  and  C_17
REMARK                            x       y       z     vdW  Elec       q    Type
REMARK                         _______ _______ _______ _____ _____    ______ ____
ROOT
ATOM      1  C   UNL     1       9.033  -0.221  23.750  0.00  0.00    +0.224 A 
ATOM      2  C   UNL     1       7.905   0.241  24.442  0.00  0.00    +0.109 A 
ATOM      3 CL   UNL     1       7.948   1.635  25.461  0.00  0.00    -0.077 Cl
ATOM      4  C   UNL     1       6.688  -0.407  24.315  0.00  0.00    +0.034 A 
ATOM      5  C   UNL     1       6.580  -1.531  23.512  0.00  0.00    +0.099 A 
ATOM      6  C   UNL     1       7.685  -2.032  22.801  0.00  0.00    +0.283 A 
ATOM      7  N   UNL     1       8.933  -1.361  22.936  0.00  0.00    -0.153 N 
ATOM      8  O   UNL     1       9.967  -1.792  22.297  0.00  0.00    -0.618 OA
ENDROOT
BRANCH   6   9
ATOM      9  N   UNL     1       7.577  -3.194  22.002  0.00  0.00    -0.284 N 
ATOM     10  H   UNL     1       7.961  -3.068  21.063  0.00  0.00    +0.152 HD
BRANCH   9  11
ATOM     11  C   UNL     1       6.430  -4.095  22.238  0.00  0.00    +0.194 C 
BRANCH  11  12
ATOM     12  C   UNL     1       6.681  -5.457  22.932  0.00  0.00    +0.347 C 
ATOM     13  F   UNL     1       7.791  -6.018  22.347  0.00  0.00    -0.192 F 
ATOM     14  F   UNL     1       5.659  -6.306  22.598  0.00  0.00    -0.192 F 
BRANCH  12  15
ATOM     15  C   UNL     1       6.867  -5.400  24.438  0.00  0.00    +0.266 A 
ATOM     16  C   UNL     1       5.788  -5.668  25.310  0.00  0.00    +0.081 A 
ATOM     17  C   UNL     1       5.955  -5.614  26.693  0.00  0.00    +0.012 A 
ATOM     18  C   UNL     1       7.192  -5.289  27.230  0.00  0.00    +0.071 A 
ATOM     19  C   UNL     1       8.241  -5.008  26.365  0.00  0.00    +0.322 A 
ATOM     20  N   UNL     1       8.096  -5.051  24.980  0.00  0.00    -0.169 N 
ATOM     21  O   UNL     1       9.110  -4.785  24.267  0.00  0.00    -0.619 OA
ENDBRANCH  12  15
ENDBRANCH  11  12
ENDBRANCH   9  11
ENDBRANCH   6   9
BRANCH   1  22
ATOM     22  C   UNL     1      10.378   0.436  23.855  0.00  0.00    +0.205 C 
BRANCH  22  25
ATOM     23  N   UNL     1      10.973   2.787  23.778  0.00  0.00    -0.308 N 
ATOM     24  H   UNL     1      10.930   2.722  24.788  0.00  0.00    +0.149 HD
ATOM     25  C   UNL     1      10.450   1.728  23.063  0.00  0.00    +0.224 C 
ATOM     26  O   UNL     1      10.120   1.804  21.884  0.00  0.00    -0.275 OA
BRANCH  23  27
ATOM     27  C   UNL     1      11.042   4.125  23.210  0.00  0.00    +0.100 C 
ATOM     28  C   UNL     1      12.472   4.658  23.290  0.00  0.00    +0.033 C 
BRANCH  27  29
ATOM     29  C   UNL     1      10.064   5.076  23.878  0.00  0.00    -0.026 A 
ATOM     30  C   UNL     1       8.697   4.748  23.911  0.00  0.00    +0.025 A 
ATOM     31  C   UNL     1       7.785   5.582  24.557  0.00  0.00    +0.041 A 
ATOM     32 CL   UNL     1       6.120   5.152  24.605  0.00  0.00    -0.084 Cl
ATOM     33  C   UNL     1       8.213   6.756  25.171  0.00  0.00    +0.020 A 
ATOM     34  C   UNL     1       9.560   7.108  25.127  0.00  0.00    +0.002 A 
ATOM     35  C   UNL     1      10.478   6.277  24.478  0.00  0.00    +0.005 A 
ENDBRANCH  27  29
ENDBRANCH  23  27
ENDBRANCH  22  25
ENDBRANCH   1  22
TORSDOF 8
ENDMDL
MODEL 3
REMARK VINA RESULT:      -7.9      3.088      5.569
REMARK  Name = 
REMARK  9 active torsions:
REMARK  status: ('A' for Active; 'I' for Inactive)
REMARK    1  A    between atoms: C_2  and  C_3
REMARK    2  A    between atoms: C_2  and  N_4
REMARK    3  A    between atoms: C_2  and  C_28
REMARK    4  A    between atoms: C_5  and  C_7
REMARK    5  A    between atoms: C_7  and  C_8
REMARK    6  A    between atoms: C_11  and  N_12
REMARK    7  A    between atoms: N_12  and  C_13
REMARK    8  A    between atoms: C_13  and  C_14
REMARK    9  A    between atoms: C_14  and  C_17
REMARK                            x       y       z     vdW  Elec       q    Type
REMARK                         _______ _______ _______ _____ _____    ______ ____
ROOT
ATOM      1  C   UNL     1       8.493   2.524  23.674  0.00  0.00    +0.224 A 
ATOM      2  C   UNL     1       7.800   2.662  22.464  0.00  0.00    +0.109 A 
ATOM      3 CL   UNL     1       6.597   3.877  22.217  0.00  0.00    -0.077 Cl
ATOM      4  C   UNL     1       8.076   1.826  21.396  0.00  0.00    +0.034 A 
ATOM      5  C   UNL     1       9.031   0.830  21.522  0.00  0.00    +0.099 A 
ATOM      6  C   UNL     1       9.750   0.652  22.719  0.00  0.00    +0.283 A 
ATOM      7  N   UNL     1       9.461   1.516  23.812  0.00  0.00    -0.153 N 
ATOM      8  O   UNL     1      10.102   1.382  24.923  0.00  0.00    -0.618 OA
ENDROOT
BRANCH   6   9
ATOM      9  N   UNL     1      10.706  -0.381  22.852  0.00  0.00    -0.284 N 
ATOM     10  H   UNL     1      11.653  -0.080  22.613  0.00  0.00    +0.152 HD
BRANCH   9  11
ATOM     11  C   UNL     1      10.267  -1.770  22.605  0.00  0.00    +0.194 C 
BRANCH  11  12
ATOM     12  C   UNL     1       9.475  -2.511  23.711  0.00  0.00    +0.347 C 
ATOM     13  F   UNL     1       9.334  -1.641  24.767  0.00  0.00    -0.192 F 
ATOM     14  F   UNL     1      10.262  -3.516  24.207  0.00  0.00    -0.192 F 
BRANCH  12  15
ATOM     15  C   UNL     1       8.115  -3.043  23.298  0.00  0.00    +0.266 A 
ATOM     16  C   UNL     1       7.115  -2.171  22.811  0.00  0.00    +0.081 A 
ATOM     17  C   UNL     1       5.864  -2.657  22.434  0.00  0.00    +0.012 A 
ATOM     18  C   UNL     1       5.586  -4.012  22.538  0.00  0.00    +0.071 A 
ATOM     19  C   UNL     1       6.567  -4.858  23.037  0.00  0.00    +0.322 A 
ATOM     20  N   UNL     1       7.823  -4.394  23.424  0.00  0.00    -0.169 N 
ATOM     21  O   UNL     1       8.659  -5.239  23.863  0.00  0.00    -0.619 OA
ENDBRANCH  12  15
ENDBRANCH  11  12
ENDBRANCH   9  11
ENDBRANCH   6   9
BRANCH   1  22
ATOM     22  C   UNL     1       8.231   3.396  24.867  0.00  0.00    +0.205 C 
BRANCH  22  25
ATOM     23  N   UNL     1       7.510   1.948  26.675  0.00  0.00    -0.308 N 
ATOM     24  H   UNL     1       8.383   1.467  26.497  0.00  0.00    +0.149 HD
ATOM     25  C   UNL     1       7.101   2.867  25.730  0.00  0.00    +0.224 C 
ATOM     26  O   UNL     1       5.944   3.262  25.624  0.00  0.00    -0.275 OA
BRANCH  23  27
ATOM     27  C   UNL     1       6.552   1.270  27.537  0.00  0.00    +0.100 C 
ATOM     28  C   UNL     1       7.103   1.171  28.959  0.00  0.00    +0.033 C 
BRANCH  27  29
ATOM     29  C   UNL     1       6.174  -0.098  26.998  0.00  0.00    -0.026 A 
ATOM     30  C   UNL     1       7.091  -1.158  27.102  0.00  0.00    +0.025 A 
ATOM     31  C   UNL     1       6.751  -2.435  26.656  0.00  0.00    +0.041 A 
ATOM     32 CL   UNL     1       7.880  -3.724  26.812  0.00  0.00    -0.084 Cl
ATOM     33  C   UNL     1       5.500  -2.677  26.093  0.00  0.00    +0.020 A 
ATOM     34  C   UNL     1       4.588  -1.633  25.962  0.00  0.00    +0.002 A 
ATOM     35  C   UNL     1       4.925  -0.350  26.404  0.00  0.00    +0.005 A 
ENDBRANCH  27  29
ENDBRANCH  23  27
ENDBRANCH  22  25
ENDBRANCH   1  22
TORSDOF 8
ENDMDL
MODEL 4
REMARK VINA RESULT:      -7.9      1.209      1.401
REMARK  Name = 
REMARK  9 active torsions:
REMARK  status: ('A' for Active; 'I' for Inactive)
REMARK    1  A    between atoms: C_2  and  C_3
REMARK    2  A    between atoms: C_2  and  N_4
REMARK    3  A    between atoms: C_2  and  C_28
REMARK    4  A    between atoms: C_5  and  C_7
REMARK    5  A    between atoms: C_7  and  C_8
REMARK    6  A    between atoms: C_11  and  N_12
REMARK    7  A    between atoms: N_12  and  C_13
REMARK    8  A    between atoms: C_13  and  C_14
REMARK    9  A    between atoms: C_14  and  C_17
REMARK                            x       y       z     vdW  Elec       q    Type
REMARK                         _______ _______ _______ _____ _____    ______ ____
ROOT
ATOM      1  C   UNL     1       8.945   1.120  22.961  0.00  0.00    +0.224 A 
ATOM      2  C   UNL     1      10.160   1.485  23.556  0.00  0.00    +0.109 A 
ATOM      3 CL   UNL     1      10.974   2.960  23.175  0.00  0.00    -0.077 Cl
ATOM      4  C   UNL     1      10.753   0.668  24.504  0.00  0.00    +0.034 A 
ATOM      5  C   UNL     1      10.154  -0.530  24.860  0.00  0.00    +0.099 A 
ATOM      6  C   UNL     1       8.936  -0.939  24.287  0.00  0.00    +0.283 A 
ATOM      7  N   UNL     1       8.333  -0.094  23.314  0.00  0.00    -0.153 N 
ATOM      8  O   UNL     1       7.215  -0.436  22.770  0.00  0.00    -0.618 OA
ENDROOT
BRANCH   6   9
ATOM      9  N   UNL     1       8.341  -2.174  24.634  0.00  0.00    -0.284 N 
ATOM     10  H   UNL     1       7.576  -2.072  25.305  0.00  0.00    +0.152 HD
BRANCH   9  11
ATOM     11  C   UNL     1       9.194  -3.380  24.634  0.00  0.00    +0.194 C 
BRANCH  11  12
ATOM     12  C   UNL     1       8.527  -4.766  24.814  0.00  0.00    +0.347 C 
ATOM     13  F   UNL     1       8.049  -4.829  26.103  0.00  0.00    -0.192 F 
ATOM     14  F   UNL     1       9.504  -5.725  24.772  0.00  0.00    -0.192 F 
BRANCH  12  15
ATOM     15  C   UNL     1       7.411  -5.088  23.837  0.00  0.00    +0.266 A 
ATOM     16  C   UNL     1       7.667  -5.844  22.670  0.00  0.00    +0.081 A 
ATOM     17  C   UNL     1       6.645  -6.138  21.770  0.00  0.00    +0.012 A 
ATOM     18  C   UNL     1       5.357  -5.684  22.010  0.00  0.00    +0.071 A 
ATOM     19  C   UNL     1       5.118  -4.926  23.148  0.00  0.00    +0.322 A 
ATOM     20  N   UNL     1       6.126  -4.615  24.060  0.00  0.00    -0.169 N 
ATOM     21  O   UNL     1       5.815  -3.921  25.074  0.00  0.00    -0.619 OA
ENDBRANCH  12  15
ENDBRANCH  11  12
ENDBRANCH   9  11
ENDBRANCH   6   9
BRANCH   1  22
ATOM     22  C   UNL     1       8.261   1.961  21.923  0.00  0.00    +0.205 C 
BRANCH  22  25
ATOM     23  N   UNL     1       8.033   4.344  22.319  0.00  0.00    -0.308 N 
ATOM     24  H   UNL     1       9.023   4.367  22.106  0.00  0.00    +0.149 HD
ATOM     25  C   UNL     1       7.472   3.102  22.538  0.00  0.00    +0.224 C 
ATOM     26  O   UNL     1       6.410   2.933  23.128  0.00  0.00    -0.275 OA
BRANCH  23  27
ATOM     27  C   UNL     1       7.462   5.548  22.904  0.00  0.00    +0.100 C 
ATOM     28  C   UNL     1       7.271   6.616  21.829  0.00  0.00    +0.033 C 
BRANCH  27  29
ATOM     29  C   UNL     1       8.301   6.073  24.056  0.00  0.00    -0.026 A 
ATOM     30  C   UNL     1       9.702   6.072  23.945  0.00  0.00    +0.025 A 
ATOM     31  C   UNL     1      10.494   6.590  24.970  0.00  0.00    +0.041 A 
ATOM     32 CL   UNL     1      12.206   6.600  24.804  0.00  0.00    -0.084 Cl
ATOM     33  C   UNL     1       9.908   7.108  26.122  0.00  0.00    +0.020 A 
ATOM     34  C   UNL     1       8.522   7.095  26.258  0.00  0.00    +0.002 A 
ATOM     35  C   UNL     1       7.724   6.574  25.236  0.00  0.00    +0.005 A 
ENDBRANCH  27  29
ENDBRANCH  23  27
ENDBRANCH  22  25
ENDBRANCH   1  22
TORSDOF 8
ENDMDL
MODEL 5
REMARK VINA RESULT:      -7.7      2.095      2.916
REMARK  Name = 
REMARK  9 active torsions:
REMARK  status: ('A' for Active; 'I' for Inactive)
REMARK    1  A    between atoms: C_2  and  C_3
REMARK    2  A    between atoms: C_2  and  N_4
REMARK    3  A    between atoms: C_2  and  C_28
REMARK    4  A    between atoms: C_5  and  C_7
REMARK    5  A    between atoms: C_7  and  C_8
REMARK    6  A    between atoms: C_11  and  N_12
REMARK    7  A    between atoms: N_12  and  C_13
REMARK    8  A    between atoms: C_13  and  C_14
REMARK    9  A    between atoms: C_14  and  C_17
REMARK                            x       y       z     vdW  Elec       q    Type
REMARK                         _______ _______ _______ _____ _____    ______ ____
ROOT
ATOM      1  C   UNL     1       8.635  -0.505  24.567  0.00  0.00    +0.224 A 
ATOM      2  C   UNL     1       9.813  -0.382  23.818  0.00  0.00    +0.109 A 
ATOM      3 CL   UNL     1      11.123   0.631  24.310  0.00  0.00    -0.077 Cl
ATOM      4  C   UNL     1       9.979  -1.098  22.644  0.00  0.00    +0.034 A 
ATOM      5  C   UNL     1       8.970  -1.931  22.191  0.00  0.00    +0.099 A 
ATOM      6  C   UNL     1       7.769  -2.085  22.907  0.00  0.00    +0.283 A 
ATOM      7  N   UNL     1       7.606  -1.346  24.113  0.00  0.00    -0.153 N 
ATOM      8  O   UNL     1       6.519  -1.464  24.796  0.00  0.00    -0.618 OA
ENDROOT
BRANCH   6   9
ATOM      9  N   UNL     1       6.731  -2.918  22.428  0.00  0.00    -0.284 N 
ATOM     10  H   UNL     1       5.848  -2.776  22.923  0.00  0.00    +0.152 HD
BRANCH   9  11
ATOM     11  C   UNL     1       7.097  -4.245  21.894  0.00  0.00    +0.194 C 
BRANCH  11  12
ATOM     12  C   UNL     1       6.991  -5.480  22.824  0.00  0.00    +0.347 C 
ATOM     13  F   UNL     1       8.034  -6.319  22.513  0.00  0.00    -0.192 F 
ATOM     14  F   UNL     1       5.873  -6.189  22.473  0.00  0.00    -0.192 F 
BRANCH  12  15
ATOM     15  C   UNL     1       6.997  -5.181  24.312  0.00  0.00    +0.266 A 
ATOM     16  C   UNL     1       5.791  -5.143  25.047  0.00  0.00    +0.081 A 
ATOM     17  C   UNL     1       5.794  -4.867  26.413  0.00  0.00    +0.012 A 
ATOM     18  C   UNL     1       6.991  -4.618  27.068  0.00  0.00    +0.071 A 
ATOM     19  C   UNL     1       8.169  -4.637  26.334  0.00  0.00    +0.322 A 
ATOM     20  N   UNL     1       8.190  -4.907  24.967  0.00  0.00    -0.169 N 
ATOM     21  O   UNL     1       9.313  -4.909  24.378  0.00  0.00    -0.619 OA
ENDBRANCH  12  15
ENDBRANCH  11  12
ENDBRANCH   9  11
ENDBRANCH   6   9
BRANCH   1  22
ATOM     22  C   UNL     1       8.397   0.250  25.842  0.00  0.00    +0.205 C 
BRANCH  22  25
ATOM     23  N   UNL     1       7.882   2.037  24.284  0.00  0.00    -0.308 N 
ATOM     24  H   UNL     1       8.608   1.612  23.720  0.00  0.00    +0.149 HD
ATOM     25  C   UNL     1       7.784   1.615  25.595  0.00  0.00    +0.224 C 
ATOM     26  O   UNL     1       7.212   2.255  26.471  0.00  0.00    -0.275 OA
BRANCH  23  27
ATOM     27  C   UNL     1       7.424   3.357  23.876  0.00  0.00    +0.100 C 
ATOM     28  C   UNL     1       6.892   3.311  22.445  0.00  0.00    +0.033 C 
BRANCH  27  29
ATOM     29  C   UNL     1       8.512   4.405  24.023  0.00  0.00    -0.026 A 
ATOM     30  C   UNL     1       9.833   4.083  23.669  0.00  0.00    +0.025 A 
ATOM     31  C   UNL     1      10.843   5.041  23.753  0.00  0.00    +0.041 A 
ATOM     32 CL   UNL     1      12.450   4.631  23.293  0.00  0.00    -0.084 Cl
ATOM     33  C   UNL     1      10.559   6.330  24.196  0.00  0.00    +0.020 A 
ATOM     34  C   UNL     1       9.260   6.660  24.574  0.00  0.00    +0.002 A 
ATOM     35  C   UNL     1       8.244   5.702  24.495  0.00  0.00    +0.005 A 
ENDBRANCH  27  29
ENDBRANCH  23  27
ENDBRANCH  22  25
ENDBRANCH   1  22
TORSDOF 8
ENDMDL
MODEL 6
REMARK VINA RESULT:      -7.7      1.618      2.166
REMARK  Name = 
REMARK  9 active torsions:
REMARK  status: ('A' for Active; 'I' for Inactive)
REMARK    1  A    between atoms: C_2  and  C_3
REMARK    2  A    between atoms: C_2  and  N_4
REMARK    3  A    between atoms: C_2  and  C_28
REMARK    4  A    between atoms: C_5  and  C_7
REMARK    5  A    between atoms: C_7  and  C_8
REMARK    6  A    between atoms: C_11  and  N_12
REMARK    7  A    between atoms: N_12  and  C_13
REMARK    8  A    between atoms: C_13  and  C_14
REMARK    9  A    between atoms: C_14  and  C_17
REMARK                            x       y       z     vdW  Elec       q    Type
REMARK                         _______ _______ _______ _____ _____    ______ ____
ROOT
ATOM      1  C   UNL     1       8.564   0.929  22.501  0.00  0.00    +0.224 A 
ATOM      2  C   UNL     1       9.914   1.087  22.843  0.00  0.00    +0.109 A 
ATOM      3 CL   UNL     1      10.811   2.508  22.443  0.00  0.00    -0.077 Cl
ATOM      4  C   UNL     1      10.583   0.098  23.544  0.00  0.00    +0.034 A 
ATOM      5  C   UNL     1       9.924  -1.067  23.900  0.00  0.00    +0.099 A 
ATOM      6  C   UNL     1       8.571  -1.272  23.576  0.00  0.00    +0.283 A 
ATOM      7  N   UNL     1       7.889  -0.251  22.856  0.00  0.00    -0.153 N 
ATOM      8  O   UNL     1       6.647  -0.405  22.544  0.00  0.00    -0.618 OA
ENDROOT
BRANCH   6   9
ATOM      9  N   UNL     1       7.908  -2.474  23.919  0.00  0.00    -0.284 N 
ATOM     10  H   UNL     1       7.908  -2.654  24.925  0.00  0.00    +0.152 HD
BRANCH   9  11
ATOM     11  C   UNL     1       7.944  -3.587  22.949  0.00  0.00    +0.194 C 
BRANCH  11  12
ATOM     12  C   UNL     1       7.253  -4.923  23.320  0.00  0.00    +0.347 C 
ATOM     13  F   UNL     1       8.043  -5.941  22.841  0.00  0.00    -0.192 F 
ATOM     14  F   UNL     1       6.095  -5.027  22.594  0.00  0.00    -0.192 F 
BRANCH  12  15
ATOM     15  C   UNL     1       6.984  -5.133  24.799  0.00  0.00    +0.266 A 
ATOM     16  C   UNL     1       5.664  -5.281  25.280  0.00  0.00    +0.081 A 
ATOM     17  C   UNL     1       5.414  -5.471  26.638  0.00  0.00    +0.012 A 
ATOM     18  C   UNL     1       6.469  -5.512  27.538  0.00  0.00    +0.071 A 
ATOM     19  C   UNL     1       7.761  -5.345  27.059  0.00  0.00    +0.322 A 
ATOM     20  N   UNL     1       8.034  -5.149  25.706  0.00  0.00    -0.169 N 
ATOM     21  O   UNL     1       9.245  -5.012  25.358  0.00  0.00    -0.619 OA
ENDBRANCH  12  15
ENDBRANCH  11  12
ENDBRANCH   9  11
ENDBRANCH   6   9
BRANCH   1  22
ATOM     22  C   UNL     1       7.789   1.962  21.737  0.00  0.00    +0.205 C 
BRANCH  22  25
ATOM     23  N   UNL     1       7.833   4.331  22.258  0.00  0.00    -0.308 N 
ATOM     24  H   UNL     1       8.685   4.328  21.711  0.00  0.00    +0.149 HD
ATOM     25  C   UNL     1       7.322   3.102  22.622  0.00  0.00    +0.224 C 
ATOM     26  O   UNL     1       6.526   2.945  23.542  0.00  0.00    -0.275 OA
BRANCH  23  27
ATOM     27  C   UNL     1       7.562   5.527  23.042  0.00  0.00    +0.100 C 
ATOM     28  C   UNL     1       7.087   6.658  22.130  0.00  0.00    +0.033 C 
BRANCH  27  29
ATOM     29  C   UNL     1       8.767   5.954  23.861  0.00  0.00    -0.026 A 
ATOM     30  C   UNL     1      10.057   5.617  23.417  0.00  0.00    +0.025 A 
ATOM     31  C   UNL     1      11.182   6.035  24.128  0.00  0.00    +0.041 A 
ATOM     32 CL   UNL     1      12.753   5.632  23.555  0.00  0.00    -0.084 Cl
ATOM     33  C   UNL     1      11.043   6.785  25.293  0.00  0.00    +0.020 A 
ATOM     34  C   UNL     1       9.771   7.107  25.760  0.00  0.00    +0.002 A 
ATOM     35  C   UNL     1       8.640   6.688  25.053  0.00  0.00    +0.005 A 
ENDBRANCH  27  29
ENDBRANCH  23  27
ENDBRANCH  22  25
ENDBRANCH   1  22
TORSDOF 8
ENDMDL
MODEL 7
REMARK VINA RESULT:      -7.6      2.753      3.789
REMARK  Name = 
REMARK  9 active torsions:
REMARK  status: ('A' for Active; 'I' for Inactive)
REMARK    1  A    between atoms: C_2  and  C_3
REMARK    2  A    between atoms: C_2  and  N_4
REMARK    3  A    between atoms: C_2  and  C_28
REMARK    4  A    between atoms: C_5  and  C_7
REMARK    5  A    between atoms: C_7  and  C_8
REMARK    6  A    between atoms: C_11  and  N_12
REMARK    7  A    between atoms: N_12  and  C_13
REMARK    8  A    between atoms: C_13  and  C_14
REMARK    9  A    between atoms: C_14  and  C_17
REMARK                            x       y       z     vdW  Elec       q    Type
REMARK                         _______ _______ _______ _____ _____    ______ ____
ROOT
ATOM      1  C   UNL     1       8.576  -0.856  23.833  0.00  0.00    +0.224 A 
ATOM      2  C   UNL     1       7.786  -0.587  24.959  0.00  0.00    +0.109 A 
ATOM      3 CL   UNL     1       8.338   0.397  26.266  0.00  0.00    -0.077 Cl
ATOM      4  C   UNL     1       6.501  -1.096  25.054  0.00  0.00    +0.034 A 
ATOM      5  C   UNL     1       5.993  -1.892  24.041  0.00  0.00    +0.099 A 
ATOM      6  C   UNL     1       6.751  -2.191  22.894  0.00  0.00    +0.283 A 
ATOM      7  N   UNL     1       8.070  -1.665  22.803  0.00  0.00    -0.153 N 
ATOM      8  O   UNL     1       8.791  -1.918  21.765  0.00  0.00    -0.618 OA
ENDROOT
BRANCH   6   9
ATOM      9  N   UNL     1       6.237  -3.025  21.873  0.00  0.00    -0.284 N 
ATOM     10  H   UNL     1       5.849  -2.499  21.088  0.00  0.00    +0.152 HD
BRANCH   9  11
ATOM     11  C   UNL     1       5.670  -4.332  22.264  0.00  0.00    +0.194 C 
BRANCH  11  12
ATOM     12  C   UNL     1       6.630  -5.447  22.747  0.00  0.00    +0.347 C 
ATOM     13  F   UNL     1       7.650  -5.538  21.829  0.00  0.00    -0.192 F 
ATOM     14  F   UNL     1       5.981  -6.650  22.648  0.00  0.00    -0.192 F 
BRANCH  12  15
ATOM     15  C   UNL     1       7.207  -5.258  24.139  0.00  0.00    +0.266 A 
ATOM     16  C   UNL     1       8.571  -4.935  24.318  0.00  0.00    +0.081 A 
ATOM     17  C   UNL     1       9.104  -4.763  25.595  0.00  0.00    +0.012 A 
ATOM     18  C   UNL     1       8.294  -4.913  26.710  0.00  0.00    +0.071 A 
ATOM     19  C   UNL     1       6.960  -5.251  26.525  0.00  0.00    +0.322 A 
ATOM     20  N   UNL     1       6.407  -5.432  25.259  0.00  0.00    -0.169 N 
ATOM     21  O   UNL     1       5.178  -5.734  25.185  0.00  0.00    -0.619 OA
ENDBRANCH  12  15
ENDBRANCH  11  12
ENDBRANCH   9  11
ENDBRANCH   6   9
BRANCH   1  22
ATOM     22  C   UNL     1       9.976  -0.339  23.678  0.00  0.00    +0.205 C 
BRANCH  22  25
ATOM     23  N   UNL     1      10.297   2.057  23.887  0.00  0.00    -0.308 N 
ATOM     24  H   UNL     1      10.110   1.890  24.868  0.00  0.00    +0.149 HD
ATOM     25  C   UNL     1      10.015   1.025  23.015  0.00  0.00    +0.224 C 
ATOM     26  O   UNL     1       9.859   1.181  21.808  0.00  0.00    -0.275 OA
BRANCH  23  27
ATOM     27  C   UNL     1      10.292   3.444  23.446  0.00  0.00    +0.100 C 
ATOM     28  C   UNL     1      11.725   3.961  23.322  0.00  0.00    +0.033 C 
BRANCH  27  29
ATOM     29  C   UNL     1       9.468   4.329  24.365  0.00  0.00    -0.026 A 
ATOM     30  C   UNL     1       8.390   3.772  25.074  0.00  0.00    +0.025 A 
ATOM     31  C   UNL     1       7.645   4.552  25.957  0.00  0.00    +0.041 A 
ATOM     32 CL   UNL     1       6.342   3.846  26.832  0.00  0.00    -0.084 Cl
ATOM     33  C   UNL     1       7.953   5.897  26.145  0.00  0.00    +0.020 A 
ATOM     34  C   UNL     1       9.004   6.471  25.433  0.00  0.00    +0.002 A 
ATOM     35  C   UNL     1       9.752   5.694  24.543  0.00  0.00    +0.005 A 
ENDBRANCH  27  29
ENDBRANCH  23  27
ENDBRANCH  22  25
ENDBRANCH   1  22
TORSDOF 8
ENDMDL
MODEL 8
REMARK VINA RESULT:      -7.5      3.621      9.256
REMARK  Name = 
REMARK  9 active torsions:
REMARK  status: ('A' for Active; 'I' for Inactive)
REMARK    1  A    between atoms: C_2  and  C_3
REMARK    2  A    between atoms: C_2  and  N_4
REMARK    3  A    between atoms: C_2  and  C_28
REMARK    4  A    between atoms: C_5  and  C_7
REMARK    5  A    between atoms: C_7  and  C_8
REMARK    6  A    between atoms: C_11  and  N_12
REMARK    7  A    between atoms: N_12  and  C_13
REMARK    8  A    between atoms: C_13  and  C_14
REMARK    9  A    between atoms: C_14  and  C_17
REMARK                            x       y       z     vdW  Elec       q    Type
REMARK                         _______ _______ _______ _____ _____    ______ ____
ROOT
ATOM      1  C   UNL     1       9.394  -0.120  24.333  0.00  0.00    +0.224 A 
ATOM      2  C   UNL     1       9.751  -1.000  23.302  0.00  0.00    +0.109 A 
ATOM      3 CL   UNL     1      10.075  -2.673  23.583  0.00  0.00    -0.077 Cl
ATOM      4  C   UNL     1       9.838  -0.554  21.995  0.00  0.00    +0.034 A 
ATOM      5  C   UNL     1       9.589   0.776  21.697  0.00  0.00    +0.099 A 
ATOM      6  C   UNL     1       9.230   1.696  22.698  0.00  0.00    +0.283 A 
ATOM      7  N   UNL     1       9.142   1.231  24.040  0.00  0.00    -0.153 N 
ATOM      8  O   UNL     1       8.813   2.047  24.983  0.00  0.00    -0.618 OA
ENDROOT
BRANCH   6   9
ATOM      9  N   UNL     1       9.000   3.059  22.394  0.00  0.00    -0.284 N 
ATOM     10  H   UNL     1       9.686   3.683  22.824  0.00  0.00    +0.152 HD
BRANCH   9  11
ATOM     11  C   UNL     1       7.606   3.496  22.178  0.00  0.00    +0.194 C 
BRANCH  11  12
ATOM     12  C   UNL     1       7.218   4.954  22.530  0.00  0.00    +0.347 C 
ATOM     13  F   UNL     1       5.854   4.986  22.704  0.00  0.00    -0.192 F 
ATOM     14  F   UNL     1       7.434   5.737  21.426  0.00  0.00    -0.192 F 
BRANCH  12  15
ATOM     15  C   UNL     1       7.906   5.539  23.750  0.00  0.00    +0.266 A 
ATOM     16  C   UNL     1       9.000   6.423  23.609  0.00  0.00    +0.081 A 
ATOM     17  C   UNL     1       9.635   6.959  24.728  0.00  0.00    +0.012 A 
ATOM     18  C   UNL     1       9.199   6.623  26.001  0.00  0.00    +0.071 A 
ATOM     19  C   UNL     1       8.137   5.738  26.130  0.00  0.00    +0.322 A 
ATOM     20  N   UNL     1       7.490   5.186  25.026  0.00  0.00    -0.169 N 
ATOM     21  O   UNL     1       6.526   4.391  25.239  0.00  0.00    -0.619 OA
ENDBRANCH  12  15
ENDBRANCH  11  12
ENDBRANCH   9  11
ENDBRANCH   6   9
BRANCH   1  22
ATOM     22  C   UNL     1       9.290  -0.545  25.769  0.00  0.00    +0.205 C 
BRANCH  22  25
ATOM     23  N   UNL     1       8.124  -2.625  26.213  0.00  0.00    -0.308 N 
ATOM     24  H   UNL     1       8.941  -3.051  25.793  0.00  0.00    +0.149 HD
ATOM     25  C   UNL     1       7.985  -1.260  26.063  0.00  0.00    +0.224 C 
ATOM     26  O   UNL     1       6.920  -0.668  26.203  0.00  0.00    -0.275 OA
BRANCH  23  27
ATOM     27  C   UNL     1       6.968  -3.487  26.417  0.00  0.00    +0.100 C 
ATOM     28  C   UNL     1       7.372  -4.730  27.208  0.00  0.00    +0.033 C 
BRANCH  27  29
ATOM     29  C   UNL     1       6.303  -3.864  25.106  0.00  0.00    -0.026 A 
ATOM     30  C   UNL     1       7.016  -4.626  24.164  0.00  0.00    +0.025 A 
ATOM     31  C   UNL     1       6.413  -5.022  22.971  0.00  0.00    +0.041 A 
ATOM     32 CL   UNL     1       7.297  -5.974  21.842  0.00  0.00    -0.084 Cl
ATOM     33  C   UNL     1       5.097  -4.663  22.691  0.00  0.00    +0.020 A 
ATOM     34  C   UNL     1       4.384  -3.888  23.602  0.00  0.00    +0.002 A 
ATOM     35  C   UNL     1       4.985  -3.485  24.798  0.00  0.00    +0.005 A 
ENDBRANCH  27  29
ENDBRANCH  23  27
ENDBRANCH  22  25
ENDBRANCH   1  22
TORSDOF 8
ENDMDL
MODEL 9
REMARK VINA RESULT:      -7.5      3.454      6.233
REMARK  Name = 
REMARK  9 active torsions:
REMARK  status: ('A' for Active; 'I' for Inactive)
REMARK    1  A    between atoms: C_2  and  C_3
REMARK    2  A    between atoms: C_2  and  N_4
REMARK    3  A    between atoms: C_2  and  C_28
REMARK    4  A    between atoms: C_5  and  C_7
REMARK    5  A    between atoms: C_7  and  C_8
REMARK    6  A    between atoms: C_11  and  N_12
REMARK    7  A    between atoms: N_12  and  C_13
REMARK    8  A    between atoms: C_13  and  C_14
REMARK    9  A    between atoms: C_14  and  C_17
REMARK                            x       y       z     vdW  Elec       q    Type
REMARK                         _______ _______ _______ _____ _____    ______ ____
ROOT
ATOM      1  C   UNL     1       7.752   1.726  23.872  0.00  0.00    +0.224 A 
ATOM      2  C   UNL     1       7.722   2.099  22.521  0.00  0.00    +0.109 A 
ATOM      3 CL   UNL     1       6.696   3.357  21.929  0.00  0.00    -0.077 Cl
ATOM      4  C   UNL     1       8.545   1.474  21.600  0.00  0.00    +0.034 A 
ATOM      5  C   UNL     1       9.395   0.458  22.005  0.00  0.00    +0.099 A 
ATOM      6  C   UNL     1       9.457   0.047  23.349  0.00  0.00    +0.283 A 
ATOM      7  N   UNL     1       8.609   0.695  24.291  0.00  0.00    -0.153 N 
ATOM      8  O   UNL     1       8.641   0.345  25.532  0.00  0.00    -0.618 OA
ENDROOT
BRANCH   6   9
ATOM      9  N   UNL     1      10.308  -1.007  23.755  0.00  0.00    -0.284 N 
ATOM     10  H   UNL     1      11.274  -0.705  23.899  0.00  0.00    +0.152 HD
BRANCH   9  11
ATOM     11  C   UNL     1      10.003  -2.370  23.273  0.00  0.00    +0.194 C 
BRANCH  11  12
ATOM     12  C   UNL     1       8.985  -3.230  24.063  0.00  0.00    +0.347 C 
ATOM     13  F   UNL     1       8.395  -2.413  24.998  0.00  0.00    -0.192 F 
ATOM     14  F   UNL     1       9.680  -4.146  24.808  0.00  0.00    -0.192 F 
BRANCH  12  15
ATOM     15  C   UNL     1       7.916  -3.912  23.228  0.00  0.00    +0.266 A 
ATOM     16  C   UNL     1       7.929  -5.312  23.040  0.00  0.00    +0.081 A 
ATOM     17  C   UNL     1       6.951  -5.940  22.271  0.00  0.00    +0.012 A 
ATOM     18  C   UNL     1       5.950  -5.189  21.674  0.00  0.00    +0.071 A 
ATOM     19  C   UNL     1       5.957  -3.812  21.847  0.00  0.00    +0.322 A 
ATOM     20  N   UNL     1       6.927  -3.162  22.608  0.00  0.00    -0.169 N 
ATOM     21  O   UNL     1       6.852  -1.901  22.716  0.00  0.00    -0.619 OA
ENDBRANCH  12  15
ENDBRANCH  11  12
ENDBRANCH   9  11
ENDBRANCH   6   9
BRANCH   1  22
ATOM     22  C   UNL     1       6.879   2.362  24.913  0.00  0.00    +0.205 C 
BRANCH  22  25
ATOM     23  N   UNL     1       5.664   0.548  25.971  0.00  0.00    -0.308 N 
ATOM     24  H   UNL     1       6.587   0.156  26.117  0.00  0.00    +0.149 HD
ATOM     25  C   UNL     1       5.571   1.616  25.102  0.00  0.00    +0.224 C 
ATOM     26  O   UNL     1       4.524   1.966  24.568  0.00  0.00    -0.275 OA
BRANCH  23  27
ATOM     27  C   UNL     1       4.532  -0.335  26.211  0.00  0.00    +0.100 C 
ATOM     28  C   UNL     1       3.831   0.050  27.512  0.00  0.00    +0.033 C 
BRANCH  27  29
ATOM     29  C   UNL     1       4.945  -1.797  26.222  0.00  0.00    -0.026 A 
ATOM     30  C   UNL     1       4.250  -2.716  25.418  0.00  0.00    +0.025 A 
ATOM     31  C   UNL     1       4.638  -4.055  25.377  0.00  0.00    +0.041 A 
ATOM     32 CL   UNL     1       3.787  -5.160  24.368  0.00  0.00    -0.084 Cl
ATOM     33  C   UNL     1       5.714  -4.503  26.138  0.00  0.00    +0.020 A 
ATOM     34  C   UNL     1       6.399  -3.610  26.959  0.00  0.00    +0.002 A 
ATOM     35  C   UNL     1       6.012  -2.268  27.007  0.00  0.00    +0.005 A 
ENDBRANCH  27  29
ENDBRANCH  23  27
ENDBRANCH  22  25
ENDBRANCH   1  22
TORSDOF 8
ENDMDL
