MODEL 1
REMARK VINA RESULT:      -6.5      0.000      0.000
REMARK  Name = 
REMARK  6 active torsions:
REMARK  status: ('A' for Active; 'I' for Inactive)
REMARK    1  A    between atoms: C_2  and  C_3
REMARK    2  A    between atoms: C_2  and  C_4
REMARK    3  A    between atoms: C_2  and  C_7
REMARK    4  A    between atoms: C_4  and  O_5
REMARK    5  A    between atoms: C_10  and  C_13
REMARK    6  A    between atoms: C_13  and  C_15
REMARK                            x       y       z     vdW  Elec       q    Type
REMARK                         _______ _______ _______ _____ _____    ______ ____
ROOT
ATOM      1  C   UNL     1       9.614   0.165  24.059  0.00  0.00    -0.034 A 
ATOM      2  C   UNL     1       8.901  -0.345  25.153  0.00  0.00    +0.005 A 
ATOM      3  C   UNL     1       8.774  -1.725  25.339  0.00  0.00    +0.012 A 
ATOM      4  C   UNL     1       9.313  -2.621  24.408  0.00  0.00    +0.023 A 
ATOM      5  C   UNL     1      10.096  -2.116  23.362  0.00  0.00    +0.012 A 
ATOM      6  C   UNL     1      10.249  -0.736  23.190  0.00  0.00    +0.005 A 
ENDROOT
BRANCH   1   7
ATOM      7  C   UNL     1       9.646   1.668  23.815  0.00  0.00    +0.124 C 
ATOM      8  C   UNL     1       8.739   2.375  24.828  0.00  0.00    +0.024 C 
BRANCH   7   9
ATOM      9  C   UNL     1       9.299   2.106  22.394  0.00  0.00    +0.312 C 
ATOM     10  O   UNL     1       8.152   2.259  21.995  0.00  0.00    -0.250 OA
BRANCH   9  11
ATOM     11  O   UNL     1      10.355   2.403  21.604  0.00  0.00    -0.480 OA
ATOM     12  H   UNL     1      10.340   3.302  21.222  0.00  0.00    +0.295 HD
ENDBRANCH   9  11
ENDBRANCH   7   9
ENDBRANCH   1   7
BRANCH   4  13
ATOM     13  C   UNL     1       9.108  -4.100  24.504  0.00  0.00    +0.200 C 
ATOM     14  O   UNL     1      10.062  -4.766  24.913  0.00  0.00    -0.286 OA
BRANCH  13  15
ATOM     15  C   UNL     1       7.827  -4.717  24.174  0.00  0.00    +0.060 A 
ATOM     16  S   UNL     1       6.574  -4.961  25.325  0.00  0.00    -0.079 S 
ATOM     17  C   UNL     1       5.628  -5.805  24.206  0.00  0.00    +0.051 A 
ATOM     18  I   UNL     1       3.887  -6.765  24.716  0.00  0.00    -0.036 I 
ATOM     19  C   UNL     1       6.142  -5.775  22.935  0.00  0.00    +0.023 A 
ATOM     20  C   UNL     1       7.404  -5.107  22.912  0.00  0.00    +0.020 A 
ENDBRANCH  13  15
ENDBRANCH   4  13
TORSDOF 5
ENDMDL
MODEL 2
REMARK VINA RESULT:      -6.3      3.931      7.314
REMARK  Name = 
REMARK  6 active torsions:
REMARK  status: ('A' for Active; 'I' for Inactive)
REMARK    1  A    between atoms: C_2  and  C_3
REMARK    2  A    between atoms: C_2  and  C_4
REMARK    3  A    between atoms: C_2  and  C_7
REMARK    4  A    between atoms: C_4  and  O_5
REMARK    5  A    between atoms: C_10  and  C_13
REMARK    6  A    between atoms: C_13  and  C_15
REMARK                            x       y       z     vdW  Elec       q    Type
REMARK                         _______ _______ _______ _____ _____    ______ ____
ROOT
ATOM      1  C   UNL     1       5.275  -5.154  23.388  0.00  0.00    -0.034 A 
ATOM      2  C   UNL     1       5.345  -3.851  23.899  0.00  0.00    +0.005 A 
ATOM      3  C   UNL     1       6.575  -3.196  24.013  0.00  0.00    +0.012 A 
ATOM      4  C   UNL     1       7.763  -3.849  23.665  0.00  0.00    +0.023 A 
ATOM      5  C   UNL     1       7.688  -5.118  23.076  0.00  0.00    +0.012 A 
ATOM      6  C   UNL     1       6.455  -5.764  22.934  0.00  0.00    +0.005 A 
ENDROOT
BRANCH   1   7
ATOM      7  C   UNL     1       3.941  -5.889  23.376  0.00  0.00    +0.124 C 
ATOM      8  C   UNL     1       2.805  -4.900  23.662  0.00  0.00    +0.024 C 
BRANCH   7   9
ATOM      9  C   UNL     1       3.848  -7.090  24.314  0.00  0.00    +0.312 C 
ATOM     10  O   UNL     1       4.372  -7.126  25.420  0.00  0.00    -0.250 OA
BRANCH   9  11
ATOM     11  O   UNL     1       3.069  -8.106  23.881  0.00  0.00    -0.480 OA
ATOM     12  H   UNL     1       3.347  -8.993  24.184  0.00  0.00    +0.295 HD
ENDBRANCH   9  11
ENDBRANCH   7   9
ENDBRANCH   1   7
BRANCH   4  13
ATOM     13  C   UNL     1       9.111  -3.231  23.873  0.00  0.00    +0.200 C 
ATOM     14  O   UNL     1       9.948  -3.918  24.463  0.00  0.00    -0.286 OA
BRANCH  13  15
ATOM     15  C   UNL     1       9.428  -1.901  23.364  0.00  0.00    +0.060 A 
ATOM     16  S   UNL     1       9.891  -0.591  24.375  0.00  0.00    -0.079 S 
ATOM     17  C   UNL     1       9.896   0.491  23.075  0.00  0.00    +0.051 A 
ATOM     18  I   UNL     1      10.145   2.515  23.307  0.00  0.00    -0.036 I 
ATOM     19  C   UNL     1       9.722  -0.126  21.862  0.00  0.00    +0.023 A 
ATOM     20  C   UNL     1       9.488  -1.525  22.030  0.00  0.00    +0.020 A 
ENDBRANCH  13  15
ENDBRANCH   4  13
TORSDOF 5
ENDMDL
MODEL 3
REMARK VINA RESULT:      -6.1      1.413      1.854
REMARK  Name = 
REMARK  6 active torsions:
REMARK  status: ('A' for Active; 'I' for Inactive)
REMARK    1  A    between atoms: C_2  and  C_3
REMARK    2  A    between atoms: C_2  and  C_4
REMARK    3  A    between atoms: C_2  and  C_7
REMARK    4  A    between atoms: C_4  and  O_5
REMARK    5  A    between atoms: C_10  and  C_13
REMARK    6  A    between atoms: C_13  and  C_15
REMARK                            x       y       z     vdW  Elec       q    Type
REMARK                         _______ _______ _______ _____ _____    ______ ____
ROOT
ATOM      1  C   UNL     1       9.563   0.146  23.052  0.00  0.00    -0.034 A 
ATOM      2  C   UNL     1       9.660  -0.949  22.182  0.00  0.00    +0.005 A 
ATOM      3  C   UNL     1       9.484  -2.252  22.656  0.00  0.00    +0.012 A 
ATOM      4  C   UNL     1       9.258  -2.489  24.017  0.00  0.00    +0.023 A 
ATOM      5  C   UNL     1       9.077  -1.394  24.872  0.00  0.00    +0.012 A 
ATOM      6  C   UNL     1       9.225  -0.088  24.394  0.00  0.00    +0.005 A 
ENDROOT
BRANCH   1   7
ATOM      7  C   UNL     1       9.868   1.547  22.537  0.00  0.00    +0.124 C 
ATOM      8  C   UNL     1      10.636   2.334  23.605  0.00  0.00    +0.024 C 
BRANCH   7   9
ATOM      9  C   UNL     1       8.658   2.344  22.058  0.00  0.00    +0.312 C 
ATOM     10  O   UNL     1       7.726   1.850  21.435  0.00  0.00    -0.250 OA
BRANCH   9  11
ATOM     11  O   UNL     1       8.628   3.641  22.438  0.00  0.00    -0.480 OA
ATOM     12  H   UNL     1       8.494   4.278  21.710  0.00  0.00    +0.295 HD
ENDBRANCH   9  11
ENDBRANCH   7   9
ENDBRANCH   1   7
BRANCH   4  13
ATOM     13  C   UNL     1       9.174  -3.870  24.589  0.00  0.00    +0.200 C 
ATOM     14  O   UNL     1      10.232  -4.496  24.680  0.00  0.00    -0.286 OA
BRANCH  13  15
ATOM     15  C   UNL     1       7.909  -4.428  25.058  0.00  0.00    +0.060 A 
ATOM     16  S   UNL     1       7.579  -4.755  26.712  0.00  0.00    -0.079 S 
ATOM     17  C   UNL     1       6.094  -5.472  26.337  0.00  0.00    +0.051 A 
ATOM     18  I   UNL     1       4.940  -6.443  27.729  0.00  0.00    -0.036 I 
ATOM     19  C   UNL     1       5.748  -5.332  25.017  0.00  0.00    +0.023 A 
ATOM     20  C   UNL     1       6.790  -4.689  24.282  0.00  0.00    +0.020 A 
ENDBRANCH  13  15
ENDBRANCH   4  13
TORSDOF 5
ENDMDL
MODEL 4
REMARK VINA RESULT:      -6.1      1.131      1.446
REMARK  Name = 
REMARK  6 active torsions:
REMARK  status: ('A' for Active; 'I' for Inactive)
REMARK    1  A    between atoms: C_2  and  C_3
REMARK    2  A    between atoms: C_2  and  C_4
REMARK    3  A    between atoms: C_2  and  C_7
REMARK    4  A    between atoms: C_4  and  O_5
REMARK    5  A    between atoms: C_10  and  C_13
REMARK    6  A    between atoms: C_13  and  C_15
REMARK                            x       y       z     vdW  Elec       q    Type
REMARK                         _______ _______ _______ _____ _____    ______ ____
ROOT
ATOM      1  C   UNL     1       8.917   0.779  23.940  0.00  0.00    -0.034 A 
ATOM      2  C   UNL     1       8.011   0.054  23.153  0.00  0.00    +0.005 A 
ATOM      3  C   UNL     1       7.944  -1.339  23.246  0.00  0.00    +0.012 A 
ATOM      4  C   UNL     1       8.815  -2.038  24.090  0.00  0.00    +0.023 A 
ATOM      5  C   UNL     1       9.661  -1.312  24.937  0.00  0.00    +0.012 A 
ATOM      6  C   UNL     1       9.710   0.084  24.867  0.00  0.00    +0.005 A 
ENDROOT
BRANCH   1   7
ATOM      7  C   UNL     1       9.050   2.284  23.743  0.00  0.00    +0.124 C 
ATOM      8  C   UNL     1       7.762   2.840  23.125  0.00  0.00    +0.024 C 
BRANCH   7   9
ATOM      9  C   UNL     1      10.264   2.731  22.933  0.00  0.00    +0.312 C 
ATOM     10  O   UNL     1      11.201   3.358  23.409  0.00  0.00    -0.250 OA
BRANCH   9  11
ATOM     11  O   UNL     1      10.289   2.316  21.647  0.00  0.00    -0.480 OA
ATOM     12  H   UNL     1      10.955   1.629  21.450  0.00  0.00    +0.295 HD
ENDBRANCH   9  11
ENDBRANCH   7   9
ENDBRANCH   1   7
BRANCH   4  13
ATOM     13  C   UNL     1       8.858  -3.534  24.140  0.00  0.00    +0.200 C 
ATOM     14  O   UNL     1       9.933  -4.046  24.457  0.00  0.00    -0.286 OA
BRANCH  13  15
ATOM     15  C   UNL     1       7.672  -4.342  23.870  0.00  0.00    +0.060 A 
ATOM     16  S   UNL     1       6.417  -4.585  25.019  0.00  0.00    -0.079 S 
ATOM     17  C   UNL     1       5.619  -5.679  24.006  0.00  0.00    +0.051 A 
ATOM     18  I   UNL     1       3.988  -6.771  24.606  0.00  0.00    -0.036 I 
ATOM     19  C   UNL     1       6.172  -5.752  22.753  0.00  0.00    +0.023 A 
ATOM     20  C   UNL     1       7.345  -4.943  22.664  0.00  0.00    +0.020 A 
ENDBRANCH  13  15
ENDBRANCH   4  13
TORSDOF 5
ENDMDL
MODEL 5
REMARK VINA RESULT:      -6.1      3.899      7.058
REMARK  Name = 
REMARK  6 active torsions:
REMARK  status: ('A' for Active; 'I' for Inactive)
REMARK    1  A    between atoms: C_2  and  C_3
REMARK    2  A    between atoms: C_2  and  C_4
REMARK    3  A    between atoms: C_2  and  C_7
REMARK    4  A    between atoms: C_4  and  O_5
REMARK    5  A    between atoms: C_10  and  C_13
REMARK    6  A    between atoms: C_13  and  C_15
REMARK                            x       y       z     vdW  Elec       q    Type
REMARK                         _______ _______ _______ _____ _____    ______ ____
ROOT
ATOM      1  C   UNL     1       6.581  -4.210  24.068  0.00  0.00    -0.034 A 
ATOM      2  C   UNL     1       7.870  -4.501  24.536  0.00  0.00    +0.005 A 
ATOM      3  C   UNL     1       8.945  -3.664  24.225  0.00  0.00    +0.012 A 
ATOM      4  C   UNL     1       8.762  -2.547  23.401  0.00  0.00    +0.023 A 
ATOM      5  C   UNL     1       7.463  -2.208  23.003  0.00  0.00    +0.012 A 
ATOM      6  C   UNL     1       6.380  -3.029  23.336  0.00  0.00    +0.005 A 
ENDROOT
BRANCH   1   7
ATOM      7  C   UNL     1       5.446  -5.194  24.325  0.00  0.00    +0.124 C 
ATOM      8  C   UNL     1       5.549  -5.739  25.753  0.00  0.00    +0.024 C 
BRANCH   7   9
ATOM      9  C   UNL     1       5.338  -6.341  23.324  0.00  0.00    +0.312 C 
ATOM     10  O   UNL     1       5.920  -6.356  22.247  0.00  0.00    -0.250 OA
BRANCH   9  11
ATOM     11  O   UNL     1       4.612  -7.405  23.736  0.00  0.00    -0.480 OA
ATOM     12  H   UNL     1       3.806  -7.577  23.213  0.00  0.00    +0.295 HD
ENDBRANCH   9  11
ENDBRANCH   7   9
ENDBRANCH   1   7
BRANCH   4  13
ATOM     13  C   UNL     1       9.901  -1.686  22.950  0.00  0.00    +0.200 C 
ATOM     14  O   UNL     1      10.937  -2.267  22.622  0.00  0.00    -0.286 OA
BRANCH  13  15
ATOM     15  C   UNL     1       9.772  -0.235  22.862  0.00  0.00    +0.060 A 
ATOM     16  S   UNL     1       9.825   0.800  24.234  0.00  0.00    -0.079 S 
ATOM     17  C   UNL     1       9.459   2.160  23.297  0.00  0.00    +0.051 A 
ATOM     18  I   UNL     1       9.066   4.003  24.110  0.00  0.00    -0.036 I 
ATOM     19  C   UNL     1       9.458   1.901  21.950  0.00  0.00    +0.023 A 
ATOM     20  C   UNL     1       9.678   0.513  21.698  0.00  0.00    +0.020 A 
ENDBRANCH  13  15
ENDBRANCH   4  13
TORSDOF 5
ENDMDL
MODEL 6
REMARK VINA RESULT:      -6.0      3.524      6.772
REMARK  Name = 
REMARK  6 active torsions:
REMARK  status: ('A' for Active; 'I' for Inactive)
REMARK    1  A    between atoms: C_2  and  C_3
REMARK    2  A    between atoms: C_2  and  C_4
REMARK    3  A    between atoms: C_2  and  C_7
REMARK    4  A    between atoms: C_4  and  O_5
REMARK    5  A    between atoms: C_10  and  C_13
REMARK    6  A    between atoms: C_13  and  C_15
REMARK                            x       y       z     vdW  Elec       q    Type
REMARK                         _______ _______ _______ _____ _____    ______ ____
ROOT
ATOM      1  C   UNL     1       7.366  -4.649  24.988  0.00  0.00    -0.034 A 
ATOM      2  C   UNL     1       6.978  -4.330  23.679  0.00  0.00    +0.005 A 
ATOM      3  C   UNL     1       7.705  -3.403  22.926  0.00  0.00    +0.012 A 
ATOM      4  C   UNL     1       8.805  -2.740  23.485  0.00  0.00    +0.023 A 
ATOM      5  C   UNL     1       9.244  -3.118  24.760  0.00  0.00    +0.012 A 
ATOM      6  C   UNL     1       8.534  -4.067  25.504  0.00  0.00    +0.005 A 
ENDROOT
BRANCH   1   7
ATOM      7  C   UNL     1       6.497  -5.577  25.827  0.00  0.00    +0.124 C 
ATOM      8  C   UNL     1       5.042  -5.489  25.354  0.00  0.00    +0.024 C 
BRANCH   7   9
ATOM      9  C   UNL     1       6.579  -5.360  27.336  0.00  0.00    +0.312 C 
ATOM     10  O   UNL     1       7.288  -6.029  28.077  0.00  0.00    -0.250 OA
BRANCH   9  11
ATOM     11  O   UNL     1       5.871  -4.312  27.812  0.00  0.00    -0.480 OA
ATOM     12  H   UNL     1       6.352  -3.746  28.446  0.00  0.00    +0.295 HD
ENDBRANCH   9  11
ENDBRANCH   7   9
ENDBRANCH   1   7
BRANCH   4  13
ATOM     13  C   UNL     1       9.546  -1.661  22.759  0.00  0.00    +0.200 C 
ATOM     14  O   UNL     1      10.678  -1.939  22.361  0.00  0.00    -0.286 OA
BRANCH  13  15
ATOM     15  C   UNL     1       8.938  -0.359  22.499  0.00  0.00    +0.060 A 
ATOM     16  S   UNL     1       7.752   0.348  23.522  0.00  0.00    -0.079 S 
ATOM     17  C   UNL     1       7.519   1.642  22.459  0.00  0.00    +0.051 A 
ATOM     18  I   UNL     1       6.035   3.038  22.708  0.00  0.00    -0.036 I 
ATOM     19  C   UNL     1       8.423   1.659  21.427  0.00  0.00    +0.023 A 
ATOM     20  C   UNL     1       9.272   0.513  21.474  0.00  0.00    +0.020 A 
ENDBRANCH  13  15
ENDBRANCH   4  13
TORSDOF 5
ENDMDL
MODEL 7
REMARK VINA RESULT:      -6.0      2.139      2.996
REMARK  Name = 
REMARK  6 active torsions:
REMARK  status: ('A' for Active; 'I' for Inactive)
REMARK    1  A    between atoms: C_2  and  C_3
REMARK    2  A    between atoms: C_2  and  C_4
REMARK    3  A    between atoms: C_2  and  C_7
REMARK    4  A    between atoms: C_4  and  O_5
REMARK    5  A    between atoms: C_10  and  C_13
REMARK    6  A    between atoms: C_13  and  C_15
REMARK                            x       y       z     vdW  Elec       q    Type
REMARK                         _______ _______ _______ _____ _____    ______ ____
ROOT
ATOM      1  C   UNL     1       9.034   2.689  23.179  0.00  0.00    -0.034 A 
ATOM      2  C   UNL     1       9.369   1.946  24.320  0.00  0.00    +0.005 A 
ATOM      3  C   UNL     1       9.669   0.585  24.219  0.00  0.00    +0.012 A 
ATOM      4  C   UNL     1       9.592  -0.072  22.985  0.00  0.00    +0.023 A 
ATOM      5  C   UNL     1       9.340   0.685  21.834  0.00  0.00    +0.012 A 
ATOM      6  C   UNL     1       9.067   2.054  21.928  0.00  0.00    +0.005 A 
ENDROOT
BRANCH   1   7
ATOM      7  C   UNL     1       8.602   4.143  23.326  0.00  0.00    +0.124 C 
ATOM      8  C   UNL     1       8.452   4.489  24.812  0.00  0.00    +0.024 C 
BRANCH   7   9
ATOM      9  C   UNL     1       7.340   4.529  22.560  0.00  0.00    +0.312 C 
ATOM     10  O   UNL     1       6.229   4.081  22.816  0.00  0.00    -0.250 OA
BRANCH   9  11
ATOM     11  O   UNL     1       7.503   5.480  21.613  0.00  0.00    -0.480 OA
ATOM     12  H   UNL     1       7.419   6.398  21.935  0.00  0.00    +0.295 HD
ENDBRANCH   9  11
ENDBRANCH   7   9
ENDBRANCH   1   7
BRANCH   4  13
ATOM     13  C   UNL     1       9.795  -1.548  22.846  0.00  0.00    +0.200 C 
ATOM     14  O   UNL     1      10.890  -1.917  22.415  0.00  0.00    -0.286 OA
BRANCH  13  15
ATOM     15  C   UNL     1       8.765  -2.502  23.243  0.00  0.00    +0.060 A 
ATOM     16  S   UNL     1       7.247  -2.634  22.448  0.00  0.00    -0.079 S 
ATOM     17  C   UNL     1       6.685  -3.762  23.577  0.00  0.00    +0.051 A 
ATOM     18  I   UNL     1       4.745  -4.431  23.616  0.00  0.00    -0.036 I 
ATOM     19  C   UNL     1       7.658  -4.178  24.450  0.00  0.00    +0.023 A 
ATOM     20  C   UNL     1       8.878  -3.471  24.229  0.00  0.00    +0.020 A 
ENDBRANCH  13  15
ENDBRANCH   4  13
TORSDOF 5
ENDMDL
MODEL 8
REMARK VINA RESULT:      -6.0      3.994      7.163
REMARK  Name = 
REMARK  6 active torsions:
REMARK  status: ('A' for Active; 'I' for Inactive)
REMARK    1  A    between atoms: C_2  and  C_3
REMARK    2  A    between atoms: C_2  and  C_4
REMARK    3  A    between atoms: C_2  and  C_7
REMARK    4  A    between atoms: C_4  and  O_5
REMARK    5  A    between atoms: C_10  and  C_13
REMARK    6  A    between atoms: C_13  and  C_15
REMARK                            x       y       z     vdW  Elec       q    Type
REMARK                         _______ _______ _______ _____ _____    ______ ____
ROOT
ATOM      1  C   UNL     1       9.091  -2.734  24.370  0.00  0.00    -0.034 A 
ATOM      2  C   UNL     1       9.878  -2.342  23.279  0.00  0.00    +0.005 A 
ATOM      3  C   UNL     1      10.281  -1.011  23.134  0.00  0.00    +0.012 A 
ATOM      4  C   UNL     1       9.863  -0.038  24.050  0.00  0.00    +0.023 A 
ATOM      5  C   UNL     1       9.148  -0.442  25.184  0.00  0.00    +0.012 A 
ATOM      6  C   UNL     1       8.768  -1.779  25.346  0.00  0.00    +0.005 A 
ENDROOT
BRANCH   1   7
ATOM      7  C   UNL     1       8.571  -4.165  24.449  0.00  0.00    +0.124 C 
ATOM      8  C   UNL     1       7.041  -4.154  24.533  0.00  0.00    +0.024 C 
BRANCH   7   9
ATOM      9  C   UNL     1       9.159  -5.011  25.575  0.00  0.00    +0.312 C 
ATOM     10  O   UNL     1       8.559  -5.269  26.611  0.00  0.00    -0.250 OA
BRANCH   9  11
ATOM     11  O   UNL     1      10.377  -5.543  25.327  0.00  0.00    -0.480 OA
ATOM     12  H   UNL     1      10.835  -5.172  24.548  0.00  0.00    +0.295 HD
ENDBRANCH   9  11
ENDBRANCH   7   9
ENDBRANCH   1   7
BRANCH   4  13
ATOM     13  C   UNL     1      10.175   1.416  23.876  0.00  0.00    +0.200 C 
ATOM     14  O   UNL     1      11.298   1.786  24.225  0.00  0.00    -0.286 OA
BRANCH  13  15
ATOM     15  C   UNL     1       9.212   2.338  23.283  0.00  0.00    +0.060 A 
ATOM     16  S   UNL     1       9.019   3.964  23.806  0.00  0.00    -0.079 S 
ATOM     17  C   UNL     1       7.700   4.203  22.775  0.00  0.00    +0.051 A 
ATOM     18  I   UNL     1       6.546   5.900  22.813  0.00  0.00    -0.036 I 
ATOM     19  C   UNL     1       7.490   3.153  21.918  0.00  0.00    +0.023 A 
ATOM     20  C   UNL     1       8.396   2.083  22.190  0.00  0.00    +0.020 A 
ENDBRANCH  13  15
ENDBRANCH   4  13
TORSDOF 5
ENDMDL
MODEL 9
REMARK VINA RESULT:      -5.9      4.026      7.267
REMARK  Name = 
REMARK  6 active torsions:
REMARK  status: ('A' for Active; 'I' for Inactive)
REMARK    1  A    between atoms: C_2  and  C_3
REMARK    2  A    between atoms: C_2  and  C_4
REMARK    3  A    between atoms: C_2  and  C_7
REMARK    4  A    between atoms: C_4  and  O_5
REMARK    5  A    between atoms: C_10  and  C_13
REMARK    6  A    between atoms: C_13  and  C_15
REMARK                            x       y       z     vdW  Elec       q    Type
REMARK                         _______ _______ _______ _____ _____    ______ ____
ROOT
ATOM      1  C   UNL     1       8.300  -3.369  24.557  0.00  0.00    -0.034 A 
ATOM      2  C   UNL     1       9.609  -3.029  24.188  0.00  0.00    +0.005 A 
ATOM      3  C   UNL     1       9.871  -1.832  23.516  0.00  0.00    +0.012 A 
ATOM      4  C   UNL     1       8.824  -0.974  23.157  0.00  0.00    +0.023 A 
ATOM      5  C   UNL     1       7.528  -1.271  23.597  0.00  0.00    +0.012 A 
ATOM      6  C   UNL     1       7.268  -2.455  24.295  0.00  0.00    +0.005 A 
ENDROOT
BRANCH   1   7
ATOM      7  C   UNL     1       8.024  -4.728  25.188  0.00  0.00    +0.124 C 
ATOM      8  C   UNL     1       6.592  -5.168  24.860  0.00  0.00    +0.024 C 
BRANCH   7   9
ATOM      9  C   UNL     1       8.274  -4.812  26.691  0.00  0.00    +0.312 C 
ATOM     10  O   UNL     1       7.379  -4.882  27.523  0.00  0.00    -0.250 OA
BRANCH   9  11
ATOM     11  O   UNL     1       9.572  -4.890  27.061  0.00  0.00    -0.480 OA
ATOM     12  H   UNL     1       9.723  -4.914  28.025  0.00  0.00    +0.295 HD
ENDBRANCH   9  11
ENDBRANCH   7   9
ENDBRANCH   1   7
BRANCH   4  13
ATOM     13  C   UNL     1       9.041   0.262  22.341  0.00  0.00    +0.200 C 
ATOM     14  O   UNL     1       9.341   0.097  21.156  0.00  0.00    -0.286 OA
BRANCH  13  15
ATOM     15  C   UNL     1       8.863   1.594  22.910  0.00  0.00    +0.060 A 
ATOM     16  S   UNL     1       7.861   2.796  22.199  0.00  0.00    -0.079 S 
ATOM     17  C   UNL     1       8.347   3.956  23.329  0.00  0.00    +0.051 A 
ATOM     18  I   UNL     1       7.821   5.935  23.194  0.00  0.00    -0.036 I 
ATOM     19  C   UNL     1       9.118   3.435  24.337  0.00  0.00    +0.023 A 
ATOM     20  C   UNL     1       9.386   2.051  24.111  0.00  0.00    +0.020 A 
ENDBRANCH  13  15
ENDBRANCH   4  13
TORSDOF 5
ENDMDL
