MODEL 1
REMARK VINA RESULT:      -7.1      0.000      0.000
REMARK  Name = 
REMARK  5 active torsions:
REMARK  status: ('A' for Active; 'I' for Inactive)
REMARK    1  A    between atoms: O_1  and  C_2
REMARK    2  A    between atoms: C_2  and  C_3
REMARK    3  A    between atoms: C_2  and  C_9
REMARK    4  A    between atoms: C_11  and  C_23
REMARK    5  A    between atoms: C_18  and  C_19
REMARK                            x       y       z     vdW  Elec       q    Type
REMARK                         _______ _______ _______ _____ _____    ______ ____
ROOT
ATOM      1  C   UNL     1       7.160  -4.484  25.426  0.00  0.00    -0.007 A 
ATOM      2  C   UNL     1       7.735  -3.182  25.357  0.00  0.00    +0.007 A 
ATOM      3  C   UNL     1       8.283  -2.498  26.468  0.00  0.00    +0.010 A 
ATOM      4  C   UNL     1       8.897  -1.258  26.338  0.00  0.00    +0.001 A 
ATOM      5  C   UNL     1       8.911  -0.636  25.103  0.00  0.00    +0.014 A 
ATOM      6  C   UNL     1       8.325  -1.259  23.984  0.00  0.00    +0.081 A 
ATOM      7  C   UNL     1       7.785  -2.545  24.086  0.00  0.00    +0.084 A 
ATOM      8  N   UNL     1       7.348  -3.151  22.976  0.00  0.00    -0.242 NA
ATOM      9  C   UNL     1       6.844  -4.410  23.028  0.00  0.00    +0.145 A 
ATOM     10  C   UNL     1       6.706  -5.076  24.235  0.00  0.00    +0.039 A 
ENDROOT
BRANCH   6  11
ATOM     11  C   UNL     1       8.301  -0.483  22.691  0.00  0.00    +0.419 C 
ATOM     12  F   UNL     1       9.014   0.678  22.780  0.00  0.00    -0.166 F 
ATOM     13  F   UNL     1       7.027  -0.091  22.379  0.00  0.00    -0.166 F 
ATOM     14  F   UNL     1       8.756  -1.109  21.573  0.00  0.00    -0.166 F 
ENDBRANCH   6  11
BRANCH   9  15
ATOM     15  C   UNL     1       6.506  -5.131  21.726  0.00  0.00    +0.434 C 
ATOM     16  F   UNL     1       7.574  -5.797  21.202  0.00  0.00    -0.164 F 
ATOM     17  F   UNL     1       6.049  -4.304  20.745  0.00  0.00    -0.164 F 
ATOM     18  F   UNL     1       5.533  -6.081  21.881  0.00  0.00    -0.164 F 
ENDBRANCH   9  15
BRANCH   1  19
ATOM     19  C   UNL     1       7.032  -5.338  26.686  0.00  0.00    +0.162 C 
BRANCH  19  20
ATOM     20  C   UNL     1       6.142  -4.732  27.825  0.00  0.00    +0.087 C 
ATOM     21  N   UNL     1       6.080  -5.591  29.035  0.00  0.00    -0.311 NA
ATOM     22  H   UNL     1       7.014  -5.745  29.410  0.00  0.00    +0.122 HD
ATOM     23  C   UNL     1       5.372  -6.853  28.822  0.00  0.00    +0.081 C 
ATOM     24  C   UNL     1       3.945  -6.634  28.319  0.00  0.00    +0.015 C 
ATOM     25  C   UNL     1       3.898  -5.699  27.115  0.00  0.00    +0.003 C 
ATOM     26  C   UNL     1       4.695  -4.425  27.394  0.00  0.00    +0.021 C 
ENDBRANCH  19  20
BRANCH  19  27
ATOM     27  O   UNL     1       8.328  -5.679  27.187  0.00  0.00    -0.386 OA
ATOM     28  H   UNL     1       8.735  -4.848  27.479  0.00  0.00    +0.210 HD
ENDBRANCH  19  27
ENDBRANCH   1  19
TORSDOF 5
ENDMDL
MODEL 2
REMARK VINA RESULT:      -7.0      2.859      6.067
REMARK  Name = 
REMARK  5 active torsions:
REMARK  status: ('A' for Active; 'I' for Inactive)
REMARK    1  A    between atoms: O_1  and  C_2
REMARK    2  A    between atoms: C_2  and  C_3
REMARK    3  A    between atoms: C_2  and  C_9
REMARK    4  A    between atoms: C_11  and  C_23
REMARK    5  A    between atoms: C_18  and  C_19
REMARK                            x       y       z     vdW  Elec       q    Type
REMARK                         _______ _______ _______ _____ _____    ______ ____
ROOT
ATOM      1  C   UNL     1       8.302  -2.141  23.022  0.00  0.00    -0.007 A 
ATOM      2  C   UNL     1       7.877  -2.294  24.373  0.00  0.00    +0.007 A 
ATOM      3  C   UNL     1       8.218  -1.400  25.417  0.00  0.00    +0.010 A 
ATOM      4  C   UNL     1       7.720  -1.553  26.706  0.00  0.00    +0.001 A 
ATOM      5  C   UNL     1       6.929  -2.647  27.001  0.00  0.00    +0.014 A 
ATOM      6  C   UNL     1       6.615  -3.590  26.003  0.00  0.00    +0.081 A 
ATOM      7  C   UNL     1       7.035  -3.398  24.684  0.00  0.00    +0.084 A 
ATOM      8  N   UNL     1       6.615  -4.250  23.741  0.00  0.00    -0.242 NA
ATOM      9  C   UNL     1       6.978  -4.081  22.444  0.00  0.00    +0.145 A 
ATOM     10  C   UNL     1       7.843  -3.066  22.070  0.00  0.00    +0.039 A 
ENDROOT
BRANCH   6  11
ATOM     11  C   UNL     1       5.821  -4.803  26.419  0.00  0.00    +0.419 C 
ATOM     12  F   UNL     1       4.535  -4.750  25.965  0.00  0.00    -0.166 F 
ATOM     13  F   UNL     1       5.710  -4.871  27.782  0.00  0.00    -0.166 F 
ATOM     14  F   UNL     1       6.293  -6.022  26.047  0.00  0.00    -0.166 F 
ENDBRANCH   6  11
BRANCH   9  15
ATOM     15  C   UNL     1       6.352  -4.972  21.375  0.00  0.00    +0.434 C 
ATOM     16  F   UNL     1       7.203  -5.942  20.936  0.00  0.00    -0.164 F 
ATOM     17  F   UNL     1       5.939  -4.293  20.269  0.00  0.00    -0.164 F 
ATOM     18  F   UNL     1       5.245  -5.643  21.822  0.00  0.00    -0.164 F 
ENDBRANCH   9  15
BRANCH   1  19
ATOM     19  C   UNL     1       9.187  -1.016  22.486  0.00  0.00    +0.162 C 
BRANCH  19  20
ATOM     20  C   UNL     1       8.432   0.150  21.759  0.00  0.00    +0.087 C 
ATOM     21  N   UNL     1       9.346   1.187  21.217  0.00  0.00    -0.311 NA
ATOM     22  H   UNL     1      10.001   0.773  20.556  0.00  0.00    +0.122 HD
ATOM     23  C   UNL     1      10.039   1.956  22.250  0.00  0.00    +0.081 C 
ATOM     24  C   UNL     1       9.064   2.635  23.212  0.00  0.00    +0.015 C 
ATOM     25  C   UNL     1       8.033   1.659  23.769  0.00  0.00    +0.003 C 
ATOM     26  C   UNL     1       7.385   0.861  22.637  0.00  0.00    +0.021 C 
ENDBRANCH  19  20
BRANCH  19  27
ATOM     27  O   UNL     1      10.213  -1.552  21.644  0.00  0.00    -0.386 OA
ATOM     28  H   UNL     1       9.761  -2.058  20.950  0.00  0.00    +0.210 HD
ENDBRANCH  19  27
ENDBRANCH   1  19
TORSDOF 5
ENDMDL
MODEL 3
REMARK VINA RESULT:      -6.9      2.713      5.248
REMARK  Name = 
REMARK  5 active torsions:
REMARK  status: ('A' for Active; 'I' for Inactive)
REMARK    1  A    between atoms: O_1  and  C_2
REMARK    2  A    between atoms: C_2  and  C_3
REMARK    3  A    between atoms: C_2  and  C_9
REMARK    4  A    between atoms: C_11  and  C_23
REMARK    5  A    between atoms: C_18  and  C_19
REMARK                            x       y       z     vdW  Elec       q    Type
REMARK                         _______ _______ _______ _____ _____    ______ ____
ROOT
ATOM      1  C   UNL     1       8.099  -1.524  25.775  0.00  0.00    -0.007 A 
ATOM      2  C   UNL     1       7.337  -2.706  25.545  0.00  0.00    +0.007 A 
ATOM      3  C   UNL     1       6.379  -3.220  26.452  0.00  0.00    +0.010 A 
ATOM      4  C   UNL     1       5.610  -4.338  26.152  0.00  0.00    +0.001 A 
ATOM      5  C   UNL     1       5.834  -5.016  24.967  0.00  0.00    +0.014 A 
ATOM      6  C   UNL     1       6.818  -4.569  24.065  0.00  0.00    +0.081 A 
ATOM      7  C   UNL     1       7.534  -3.395  24.316  0.00  0.00    +0.084 A 
ATOM      8  N   UNL     1       8.373  -2.937  23.378  0.00  0.00    -0.242 NA
ATOM      9  C   UNL     1       9.065  -1.785  23.572  0.00  0.00    +0.145 A 
ATOM     10  C   UNL     1       8.974  -1.089  24.765  0.00  0.00    +0.039 A 
ENDROOT
BRANCH   6  11
ATOM     11  C   UNL     1       7.065  -5.408  22.836  0.00  0.00    +0.419 C 
ATOM     12  F   UNL     1       6.135  -6.397  22.699  0.00  0.00    -0.166 F 
ATOM     13  F   UNL     1       8.265  -6.062  22.924  0.00  0.00    -0.166 F 
ATOM     14  F   UNL     1       7.104  -4.770  21.636  0.00  0.00    -0.166 F 
ENDBRANCH   6  11
BRANCH   9  15
ATOM     15  C   UNL     1       9.886  -1.209  22.422  0.00  0.00    +0.434 C 
ATOM     16  F   UNL     1      10.216   0.099  22.616  0.00  0.00    -0.164 F 
ATOM     17  F   UNL     1       9.258  -1.273  21.215  0.00  0.00    -0.164 F 
ATOM     18  F   UNL     1      11.079  -1.856  22.244  0.00  0.00    -0.164 F 
ENDBRANCH   9  15
BRANCH   1  19
ATOM     19  C   UNL     1       8.019  -0.637  27.016  0.00  0.00    +0.162 C 
BRANCH  19  20
ATOM     20  C   UNL     1       7.298   0.741  26.816  0.00  0.00    +0.087 C 
ATOM     21  N   UNL     1       7.413   1.635  27.996  0.00  0.00    -0.311 NA
ATOM     22  H   UNL     1       8.392   1.818  28.208  0.00  0.00    +0.122 HD
ATOM     23  C   UNL     1       6.689   1.152  29.172  0.00  0.00    +0.081 C 
ATOM     24  C   UNL     1       5.204   0.935  28.882  0.00  0.00    +0.015 C 
ATOM     25  C   UNL     1       4.980   0.083  27.637  0.00  0.00    +0.003 C 
ATOM     26  C   UNL     1       5.802   0.621  26.465  0.00  0.00    +0.021 C 
ENDBRANCH  19  20
BRANCH  19  27
ATOM     27  O   UNL     1       9.323  -0.446  27.573  0.00  0.00    -0.386 OA
ATOM     28  H   UNL     1       9.755   0.233  27.030  0.00  0.00    +0.210 HD
ENDBRANCH  19  27
ENDBRANCH   1  19
TORSDOF 5
ENDMDL
MODEL 4
REMARK VINA RESULT:      -6.9      4.123      5.488
REMARK  Name = 
REMARK  5 active torsions:
REMARK  status: ('A' for Active; 'I' for Inactive)
REMARK    1  A    between atoms: O_1  and  C_2
REMARK    2  A    between atoms: C_2  and  C_3
REMARK    3  A    between atoms: C_2  and  C_9
REMARK    4  A    between atoms: C_11  and  C_23
REMARK    5  A    between atoms: C_18  and  C_19
REMARK                            x       y       z     vdW  Elec       q    Type
REMARK                         _______ _______ _______ _____ _____    ______ ____
ROOT
ATOM      1  C   UNL     1       8.351  -1.819  24.483  0.00  0.00    -0.007 A 
ATOM      2  C   UNL     1       8.777  -0.819  23.561  0.00  0.00    +0.007 A 
ATOM      3  C   UNL     1       9.141  -1.083  22.219  0.00  0.00    +0.010 A 
ATOM      4  C   UNL     1       9.482  -0.064  21.337  0.00  0.00    +0.001 A 
ATOM      5  C   UNL     1       9.542   1.238  21.798  0.00  0.00    +0.014 A 
ATOM      6  C   UNL     1       9.242   1.534  23.141  0.00  0.00    +0.081 A 
ATOM      7  C   UNL     1       8.811   0.529  24.013  0.00  0.00    +0.084 A 
ATOM      8  N   UNL     1       8.419   0.869  25.247  0.00  0.00    -0.242 NA
ATOM      9  C   UNL     1       7.967  -0.073  26.113  0.00  0.00    +0.145 A 
ATOM     10  C   UNL     1       7.959  -1.415  25.770  0.00  0.00    +0.039 A 
ENDROOT
BRANCH   6  11
ATOM     11  C   UNL     1       9.412   2.963  23.592  0.00  0.00    +0.419 C 
ATOM     12  F   UNL     1       8.620   3.819  22.883  0.00  0.00    -0.166 F 
ATOM     13  F   UNL     1      10.691   3.398  23.368  0.00  0.00    -0.166 F 
ATOM     14  F   UNL     1       9.175   3.242  24.902  0.00  0.00    -0.166 F 
ENDBRANCH   6  11
BRANCH   9  15
ATOM     15  C   UNL     1       7.378   0.367  27.450  0.00  0.00    +0.434 C 
ATOM     16  F   UNL     1       8.204   0.100  28.501  0.00  0.00    -0.164 F 
ATOM     17  F   UNL     1       6.183  -0.217  27.741  0.00  0.00    -0.164 F 
ATOM     18  F   UNL     1       7.147   1.715  27.511  0.00  0.00    -0.164 F 
ENDBRANCH   9  15
BRANCH   1  19
ATOM     19  C   UNL     1       8.228  -3.313  24.186  0.00  0.00    +0.162 C 
BRANCH  19  20
ATOM     20  C   UNL     1       6.769  -3.886  24.196  0.00  0.00    +0.087 C 
ATOM     21  N   UNL     1       6.711  -5.337  23.888  0.00  0.00    -0.311 NA
ATOM     22  H   UNL     1       7.263  -5.865  24.562  0.00  0.00    +0.122 HD
ATOM     23  C   UNL     1       7.089  -5.662  22.513  0.00  0.00    +0.081 C 
ATOM     24  C   UNL     1       6.224  -4.923  21.491  0.00  0.00    +0.015 C 
ATOM     25  C   UNL     1       6.160  -3.425  21.768  0.00  0.00    +0.003 C 
ATOM     26  C   UNL     1       5.807  -3.165  23.233  0.00  0.00    +0.021 C 
ENDBRANCH  19  20
BRANCH  19  27
ATOM     27  O   UNL     1       9.069  -4.064  25.068  0.00  0.00    -0.386 OA
ATOM     28  H   UNL     1       9.406  -3.434  25.726  0.00  0.00    +0.210 HD
ENDBRANCH  19  27
ENDBRANCH   1  19
TORSDOF 5
ENDMDL
MODEL 5
REMARK VINA RESULT:      -6.6      3.727      6.461
REMARK  Name = 
REMARK  5 active torsions:
REMARK  status: ('A' for Active; 'I' for Inactive)
REMARK    1  A    between atoms: O_1  and  C_2
REMARK    2  A    between atoms: C_2  and  C_3
REMARK    3  A    between atoms: C_2  and  C_9
REMARK    4  A    between atoms: C_11  and  C_23
REMARK    5  A    between atoms: C_18  and  C_19
REMARK                            x       y       z     vdW  Elec       q    Type
REMARK                         _______ _______ _______ _____ _____    ______ ____
ROOT
ATOM      1  C   UNL     1       8.134  -1.975  24.436  0.00  0.00    -0.007 A 
ATOM      2  C   UNL     1       7.321  -2.522  23.402  0.00  0.00    +0.007 A 
ATOM      3  C   UNL     1       6.562  -1.744  22.495  0.00  0.00    +0.010 A 
ATOM      4  C   UNL     1       5.839  -2.322  21.458  0.00  0.00    +0.001 A 
ATOM      5  C   UNL     1       5.797  -3.700  21.348  0.00  0.00    +0.014 A 
ATOM      6  C   UNL     1       6.492  -4.510  22.266  0.00  0.00    +0.081 A 
ATOM      7  C   UNL     1       7.294  -3.938  23.257  0.00  0.00    +0.084 A 
ATOM      8  N   UNL     1       8.035  -4.739  24.032  0.00  0.00    -0.242 NA
ATOM      9  C   UNL     1       8.848  -4.220  24.987  0.00  0.00    +0.145 A 
ATOM     10  C   UNL     1       8.886  -2.857  25.230  0.00  0.00    +0.039 A 
ENDROOT
BRANCH   6  11
ATOM     11  C   UNL     1       6.328  -6.004  22.136  0.00  0.00    +0.419 C 
ATOM     12  F   UNL     1       5.610  -6.343  21.025  0.00  0.00    -0.166 F 
ATOM     13  F   UNL     1       5.612  -6.511  23.187  0.00  0.00    -0.166 F 
ATOM     14  F   UNL     1       7.458  -6.759  22.088  0.00  0.00    -0.166 F 
ENDBRANCH   6  11
BRANCH   9  15
ATOM     15  C   UNL     1       9.796  -5.148  25.740  0.00  0.00    +0.434 C 
ATOM     16  F   UNL     1       9.879  -4.849  27.068  0.00  0.00    -0.164 F 
ATOM     17  F   UNL     1      11.071  -5.134  25.262  0.00  0.00    -0.164 F 
ATOM     18  F   UNL     1       9.406  -6.460  25.694  0.00  0.00    -0.164 F 
ENDBRANCH   9  15
BRANCH   1  19
ATOM     19  C   UNL     1       8.312  -0.488  24.740  0.00  0.00    +0.162 C 
BRANCH  19  20
ATOM     20  C   UNL     1       9.772   0.063  24.586  0.00  0.00    +0.087 C 
ATOM     21  N   UNL     1       9.857   1.537  24.736  0.00  0.00    -0.311 NA
ATOM     22  H   UNL     1       9.505   1.823  25.648  0.00  0.00    +0.122 HD
ATOM     23  C   UNL     1       9.206   2.276  23.654  0.00  0.00    +0.081 C 
ATOM     24  C   UNL     1       9.771   1.903  22.284  0.00  0.00    +0.015 C 
ATOM     25  C   UNL     1       9.794   0.394  22.063  0.00  0.00    +0.003 C 
ATOM     26  C   UNL     1      10.446  -0.312  23.253  0.00  0.00    +0.021 C 
ENDBRANCH  19  20
BRANCH  19  27
ATOM     27  O   UNL     1       7.793  -0.182  26.038  0.00  0.00    -0.386 OA
ATOM     28  H   UNL     1       8.113  -0.880  26.631  0.00  0.00    +0.210 HD
ENDBRANCH  19  27
ENDBRANCH   1  19
TORSDOF 5
ENDMDL
MODEL 6
REMARK VINA RESULT:      -6.6      4.150      5.251
REMARK  Name = 
REMARK  5 active torsions:
REMARK  status: ('A' for Active; 'I' for Inactive)
REMARK    1  A    between atoms: O_1  and  C_2
REMARK    2  A    between atoms: C_2  and  C_3
REMARK    3  A    between atoms: C_2  and  C_9
REMARK    4  A    between atoms: C_11  and  C_23
REMARK    5  A    between atoms: C_18  and  C_19
REMARK                            x       y       z     vdW  Elec       q    Type
REMARK                         _______ _______ _______ _____ _____    ______ ____
ROOT
ATOM      1  C   UNL     1       6.613  -1.546  24.126  0.00  0.00    -0.007 A 
ATOM      2  C   UNL     1       7.746  -1.125  23.371  0.00  0.00    +0.007 A 
ATOM      3  C   UNL     1       8.613  -2.009  22.684  0.00  0.00    +0.010 A 
ATOM      4  C   UNL     1       9.665  -1.545  21.902  0.00  0.00    +0.001 A 
ATOM      5  C   UNL     1       9.922  -0.188  21.849  0.00  0.00    +0.014 A 
ATOM      6  C   UNL     1       9.118   0.719  22.565  0.00  0.00    +0.081 A 
ATOM      7  C   UNL     1       8.003   0.271  23.282  0.00  0.00    +0.084 A 
ATOM      8  N   UNL     1       7.194   1.174  23.848  0.00  0.00    -0.242 NA
ATOM      9  C   UNL     1       6.087   0.781  24.527  0.00  0.00    +0.145 A 
ATOM     10  C   UNL     1       5.799  -0.561  24.710  0.00  0.00    +0.039 A 
ENDROOT
BRANCH   6  11
ATOM     11  C   UNL     1       9.512   2.174  22.530  0.00  0.00    +0.419 C 
ATOM     12  F   UNL     1      10.632   2.380  21.778  0.00  0.00    -0.166 F 
ATOM     13  F   UNL     1       9.840   2.623  23.781  0.00  0.00    -0.166 F 
ATOM     14  F   UNL     1       8.592   3.064  22.071  0.00  0.00    -0.166 F 
ENDBRANCH   6  11
BRANCH   9  15
ATOM     15  C   UNL     1       5.102   1.838  25.019  0.00  0.00    +0.434 C 
ATOM     16  F   UNL     1       4.314   2.328  24.021  0.00  0.00    -0.164 F 
ATOM     17  F   UNL     1       5.700   2.915  25.601  0.00  0.00    -0.164 F 
ATOM     18  F   UNL     1       4.231   1.356  25.959  0.00  0.00    -0.164 F 
ENDBRANCH   9  15
BRANCH   1  19
ATOM     19  C   UNL     1       6.159  -2.991  24.324  0.00  0.00    +0.162 C 
BRANCH  19  20
ATOM     20  C   UNL     1       5.086  -3.508  23.305  0.00  0.00    +0.087 C 
ATOM     21  N   UNL     1       4.483  -4.805  23.702  0.00  0.00    -0.311 NA
ATOM     22  H   UNL     1       4.039  -4.726  24.615  0.00  0.00    +0.122 HD
ATOM     23  C   UNL     1       5.420  -5.927  23.655  0.00  0.00    +0.081 C 
ATOM     24  C   UNL     1       6.045  -6.096  22.271  0.00  0.00    +0.015 C 
ATOM     25  C   UNL     1       6.631  -4.792  21.741  0.00  0.00    +0.003 C 
ATOM     26  C   UNL     1       5.612  -3.658  21.864  0.00  0.00    +0.021 C 
ENDBRANCH  19  20
BRANCH  19  27
ATOM     27  O   UNL     1       5.711  -3.189  25.669  0.00  0.00    -0.386 OA
ATOM     28  H   UNL     1       5.911  -4.113  25.890  0.00  0.00    +0.210 HD
ENDBRANCH  19  27
ENDBRANCH   1  19
TORSDOF 5
ENDMDL
MODEL 7
REMARK VINA RESULT:      -6.5      3.225      4.529
REMARK  Name = 
REMARK  5 active torsions:
REMARK  status: ('A' for Active; 'I' for Inactive)
REMARK    1  A    between atoms: O_1  and  C_2
REMARK    2  A    between atoms: C_2  and  C_3
REMARK    3  A    between atoms: C_2  and  C_9
REMARK    4  A    between atoms: C_11  and  C_23
REMARK    5  A    between atoms: C_18  and  C_19
REMARK                            x       y       z     vdW  Elec       q    Type
REMARK                         _______ _______ _______ _____ _____    ______ ____
ROOT
ATOM      1  C   UNL     1       6.622  -2.051  23.400  0.00  0.00    -0.007 A 
ATOM      2  C   UNL     1       6.340  -1.113  24.436  0.00  0.00    +0.007 A 
ATOM      3  C   UNL     1       5.332  -1.292  25.413  0.00  0.00    +0.010 A 
ATOM      4  C   UNL     1       5.142  -0.381  26.446  0.00  0.00    +0.001 A 
ATOM      5  C   UNL     1       5.907   0.770  26.484  0.00  0.00    +0.014 A 
ATOM      6  C   UNL     1       6.881   1.011  25.496  0.00  0.00    +0.081 A 
ATOM      7  C   UNL     1       7.142   0.060  24.505  0.00  0.00    +0.084 A 
ATOM      8  N   UNL     1       8.157   0.270  23.659  0.00  0.00    -0.242 NA
ATOM      9  C   UNL     1       8.461  -0.642  22.701  0.00  0.00    +0.145 A 
ATOM     10  C   UNL     1       7.691  -1.781  22.530  0.00  0.00    +0.039 A 
ENDROOT
BRANCH   6  11
ATOM     11  C   UNL     1       7.616   2.327  25.553  0.00  0.00    +0.419 C 
ATOM     12  F   UNL     1       7.534   2.903  26.787  0.00  0.00    -0.166 F 
ATOM     13  F   UNL     1       7.053   3.238  24.700  0.00  0.00    -0.166 F 
ATOM     14  F   UNL     1       8.938   2.324  25.235  0.00  0.00    -0.166 F 
ENDBRANCH   6  11
BRANCH   9  15
ATOM     15  C   UNL     1       9.719  -0.448  21.861  0.00  0.00    +0.434 C 
ATOM     16  F   UNL     1       9.442  -0.180  20.554  0.00  0.00    -0.164 F 
ATOM     17  F   UNL     1      10.551  -1.527  21.864  0.00  0.00    -0.164 F 
ATOM     18  F   UNL     1      10.487   0.603  22.287  0.00  0.00    -0.164 F 
ENDBRANCH   9  15
BRANCH   1  19
ATOM     19  C   UNL     1       5.892  -3.373  23.170  0.00  0.00    +0.162 C 
BRANCH  19  20
ATOM     20  C   UNL     1       6.739  -4.667  23.427  0.00  0.00    +0.087 C 
ATOM     21  N   UNL     1       5.978  -5.919  23.190  0.00  0.00    -0.311 NA
ATOM     22  H   UNL     1       5.635  -5.950  22.231  0.00  0.00    +0.122 HD
ATOM     23  C   UNL     1       4.900  -6.142  24.153  0.00  0.00    +0.081 C 
ATOM     24  C   UNL     1       5.413  -6.161  25.593  0.00  0.00    +0.015 C 
ATOM     25  C   UNL     1       6.274  -4.944  25.913  0.00  0.00    +0.003 C 
ATOM     26  C   UNL     1       7.346  -4.748  24.841  0.00  0.00    +0.021 C 
ENDBRANCH  19  20
BRANCH  19  27
ATOM     27  O   UNL     1       5.318  -3.400  21.859  0.00  0.00    -0.386 OA
ATOM     28  H   UNL     1       5.974  -3.003  21.265  0.00  0.00    +0.210 HD
ENDBRANCH  19  27
ENDBRANCH   1  19
TORSDOF 5
ENDMDL
MODEL 8
REMARK VINA RESULT:      -6.5      3.218      5.009
REMARK  Name = 
REMARK  5 active torsions:
REMARK  status: ('A' for Active; 'I' for Inactive)
REMARK    1  A    between atoms: O_1  and  C_2
REMARK    2  A    between atoms: C_2  and  C_3
REMARK    3  A    between atoms: C_2  and  C_9
REMARK    4  A    between atoms: C_11  and  C_23
REMARK    5  A    between atoms: C_18  and  C_19
REMARK                            x       y       z     vdW  Elec       q    Type
REMARK                         _______ _______ _______ _____ _____    ______ ____
ROOT
ATOM      1  C   UNL     1       7.110  -1.066  24.205  0.00  0.00    -0.007 A 
ATOM      2  C   UNL     1       7.024  -0.038  25.189  0.00  0.00    +0.007 A 
ATOM      3  C   UNL     1       6.478  -0.222  26.482  0.00  0.00    +0.010 A 
ATOM      4  C   UNL     1       6.480   0.792  27.432  0.00  0.00    +0.001 A 
ATOM      5  C   UNL     1       6.962   2.042  27.086  0.00  0.00    +0.014 A 
ATOM      6  C   UNL     1       7.462   2.280  25.792  0.00  0.00    +0.081 A 
ATOM      7  C   UNL     1       7.546   1.243  24.858  0.00  0.00    +0.084 A 
ATOM      8  N   UNL     1       8.139   1.480  23.681  0.00  0.00    -0.242 NA
ATOM      9  C   UNL     1       8.266   0.492  22.759  0.00  0.00    +0.145 A 
ATOM     10  C   UNL     1       7.732  -0.766  22.981  0.00  0.00    +0.039 A 
ENDROOT
BRANCH   6  11
ATOM     11  C   UNL     1       7.888   3.689  25.461  0.00  0.00    +0.419 C 
ATOM     12  F   UNL     1       9.164   3.735  24.979  0.00  0.00    -0.166 F 
ATOM     13  F   UNL     1       7.908   4.470  26.585  0.00  0.00    -0.166 F 
ATOM     14  F   UNL     1       7.133   4.382  24.568  0.00  0.00    -0.166 F 
ENDBRANCH   6  11
BRANCH   9  15
ATOM     15  C   UNL     1       9.087   0.752  21.500  0.00  0.00    +0.434 C 
ATOM     16  F   UNL     1       8.397   1.458  20.560  0.00  0.00    -0.164 F 
ATOM     17  F   UNL     1       9.522  -0.383  20.886  0.00  0.00    -0.164 F 
ATOM     18  F   UNL     1      10.215   1.489  21.742  0.00  0.00    -0.164 F 
ENDBRANCH   9  15
BRANCH   1  19
ATOM     19  C   UNL     1       6.628  -2.505  24.373  0.00  0.00    +0.162 C 
BRANCH  19  20
ATOM     20  C   UNL     1       7.711  -3.613  24.134  0.00  0.00    +0.087 C 
ATOM     21  N   UNL     1       7.173  -4.991  24.262  0.00  0.00    -0.311 NA
ATOM     22  H   UNL     1       6.416  -5.140  23.597  0.00  0.00    +0.122 HD
ATOM     23  C   UNL     1       6.769  -5.340  25.624  0.00  0.00    +0.081 C 
ATOM     24  C   UNL     1       7.917  -5.182  26.621  0.00  0.00    +0.015 C 
ATOM     25  C   UNL     1       8.586  -3.815  26.515  0.00  0.00    +0.003 C 
ATOM     26  C   UNL     1       8.937  -3.502  25.061  0.00  0.00    +0.021 C 
ENDBRANCH  19  20
BRANCH  19  27
ATOM     27  O   UNL     1       5.478  -2.741  23.555  0.00  0.00    -0.386 OA
ATOM     28  H   UNL     1       4.894  -1.976  23.678  0.00  0.00    +0.210 HD
ENDBRANCH  19  27
ENDBRANCH   1  19
TORSDOF 5
ENDMDL
MODEL 9
REMARK VINA RESULT:      -6.5      3.969      4.966
REMARK  Name = 
REMARK  5 active torsions:
REMARK  status: ('A' for Active; 'I' for Inactive)
REMARK    1  A    between atoms: O_1  and  C_2
REMARK    2  A    between atoms: C_2  and  C_3
REMARK    3  A    between atoms: C_2  and  C_9
REMARK    4  A    between atoms: C_11  and  C_23
REMARK    5  A    between atoms: C_18  and  C_19
REMARK                            x       y       z     vdW  Elec       q    Type
REMARK                         _______ _______ _______ _____ _____    ______ ____
ROOT
ATOM      1  C   UNL     1       6.373  -2.191  23.745  0.00  0.00    -0.007 A 
ATOM      2  C   UNL     1       7.615  -1.640  23.317  0.00  0.00    +0.007 A 
ATOM      3  C   UNL     1       8.313  -2.062  22.160  0.00  0.00    +0.010 A 
ATOM      4  C   UNL     1       9.487  -1.445  21.744  0.00  0.00    +0.001 A 
ATOM      5  C   UNL     1      10.034  -0.439  22.519  0.00  0.00    +0.014 A 
ATOM      6  C   UNL     1       9.400  -0.030  23.708  0.00  0.00    +0.081 A 
ATOM      7  C   UNL     1       8.172  -0.581  24.087  0.00  0.00    +0.084 A 
ATOM      8  N   UNL     1       7.542  -0.081  25.157  0.00  0.00    -0.242 NA
ATOM      9  C   UNL     1       6.336  -0.570  25.541  0.00  0.00    +0.145 A 
ATOM     10  C   UNL     1       5.755  -1.639  24.880  0.00  0.00    +0.039 A 
ENDROOT
BRANCH   6  11
ATOM     11  C   UNL     1      10.100   1.012  24.544  0.00  0.00    +0.419 C 
ATOM     12  F   UNL     1      11.173   1.549  23.895  0.00  0.00    -0.166 F 
ATOM     13  F   UNL     1      10.618   0.457  25.683  0.00  0.00    -0.166 F 
ATOM     14  F   UNL     1       9.364   2.070  24.977  0.00  0.00    -0.166 F 
ENDBRANCH   6  11
BRANCH   9  15
ATOM     15  C   UNL     1       5.573   0.129  26.662  0.00  0.00    +0.434 C 
ATOM     16  F   UNL     1       4.318   0.506  26.289  0.00  0.00    -0.164 F 
ATOM     17  F   UNL     1       6.190   1.250  27.128  0.00  0.00    -0.164 F 
ATOM     18  F   UNL     1       5.394  -0.669  27.761  0.00  0.00    -0.164 F 
ENDBRANCH   9  15
BRANCH   1  19
ATOM     19  C   UNL     1       5.606  -3.314  23.048  0.00  0.00    +0.162 C 
BRANCH  19  20
ATOM     20  C   UNL     1       6.310  -4.714  23.047  0.00  0.00    +0.087 C 
ATOM     21  N   UNL     1       5.439  -5.804  22.538  0.00  0.00    -0.311 NA
ATOM     22  H   UNL     1       5.137  -5.601  21.587  0.00  0.00    +0.122 HD
ATOM     23  C   UNL     1       4.305  -6.105  23.410  0.00  0.00    +0.081 C 
ATOM     24  C   UNL     1       4.751  -6.473  24.825  0.00  0.00    +0.015 C 
ATOM     25  C   UNL     1       5.713  -5.445  25.411  0.00  0.00    +0.003 C 
ATOM     26  C   UNL     1       6.844  -5.148  24.426  0.00  0.00    +0.021 C 
ENDBRANCH  19  20
BRANCH  19  27
ATOM     27  O   UNL     1       5.261  -2.924  21.715  0.00  0.00    -0.386 OA
ATOM     28  H   UNL     1       4.827  -2.059  21.787  0.00  0.00    +0.210 HD
ENDBRANCH  19  27
ENDBRANCH   1  19
TORSDOF 5
ENDMDL
