MODEL 1
REMARK VINA RESULT:      -6.4      0.000      0.000
REMARK  Name = 
REMARK  7 active torsions:
REMARK  status: ('A' for Active; 'I' for Inactive)
REMARK    1  A    between atoms: N_10  and  C_11
REMARK    2  A    between atoms: C_11  and  C_12
REMARK    3  A    between atoms: C_12  and  O_14
REMARK    4  A    between atoms: C_12  and  C_15
REMARK    5  A    between atoms: C_15  and  O_17
REMARK    6  A    between atoms: C_15  and  C_18
REMARK    7  A    between atoms: C_18  and  O_19
REMARK                            x       y       z     vdW  Elec       q    Type
REMARK                         _______ _______ _______ _____ _____    ______ ____
ROOT
ATOM      1  N   UNL     1      10.024   2.278  21.489  0.00  0.00    -0.341 N 
ATOM      2  H   UNL     1       9.393   1.964  20.760  0.00  0.00    +0.144 HD
ATOM      3  H   UNL     1       9.991   3.249  21.766  0.00  0.00    +0.144 HD
ATOM      4  C   UNL     1      10.115   1.409  22.568  0.00  0.00    +0.147 A 
ATOM      5  C   UNL     1       9.741   0.057  22.497  0.00  0.00    +0.147 A 
ATOM      6  N   UNL     1       9.215  -0.713  21.483  0.00  0.00    -0.231 NA
ATOM      7  C   UNL     1       9.097  -1.919  21.999  0.00  0.00    +0.201 A 
ATOM      8  N   UNL     1       9.509  -1.959  23.305  0.00  0.00    -0.312 N 
ATOM      9  C   UNL     1       9.901  -0.695  23.651  0.00  0.00    +0.165 A 
ATOM     10  N   UNL     1      10.348  -0.268  24.844  0.00  0.00    -0.216 NA
ATOM     11  C   UNL     1      10.678   1.040  24.789  0.00  0.00    +0.225 A 
ATOM     12  N   UNL     1      10.576   1.890  23.744  0.00  0.00    -0.219 NA
ENDROOT
BRANCH   8  13
ATOM     13  C   UNL     1       9.608  -3.139  24.138  0.00  0.00    +0.159 C 
BRANCH  13  14
ATOM     14  C   UNL     1       8.307  -3.932  24.340  0.00  0.00    +0.174 C 
BRANCH  14  15
ATOM     15  O   UNL     1       7.431  -3.171  25.183  0.00  0.00    -0.387 OA
ATOM     16  H   UNL     1       6.571  -3.632  25.230  0.00  0.00    +0.210 HD
ENDBRANCH  14  15
BRANCH  14  17
ATOM     17  C   UNL     1       8.534  -5.360  24.869  0.00  0.00    +0.253 C 
BRANCH  17  18
ATOM     18  C   UNL     1       8.127  -5.426  26.339  0.00  0.00    +0.336 C 
ATOM     19  O   UNL     1       7.061  -5.858  26.747  0.00  0.00    -0.248 OA
BRANCH  18  20
ATOM     20  O   UNL     1       9.078  -4.896  27.148  0.00  0.00    -0.479 OA
ATOM     21  H   UNL     1       9.258  -5.557  27.863  0.00  0.00    +0.295 HD
ENDBRANCH  18  20
ENDBRANCH  17  18
BRANCH  17  22
ATOM     22  O   UNL     1       9.907  -5.779  24.788  0.00  0.00    -0.378 OA
ATOM     23  H   UNL     1       9.911  -6.698  24.455  0.00  0.00    +0.211 HD
ENDBRANCH  17  22
ENDBRANCH  14  17
ENDBRANCH  13  14
ENDBRANCH   8  13
TORSDOF 7
ENDMDL
MODEL 2
REMARK VINA RESULT:      -6.1      5.089      6.701
REMARK  Name = 
REMARK  7 active torsions:
REMARK  status: ('A' for Active; 'I' for Inactive)
REMARK    1  A    between atoms: N_10  and  C_11
REMARK    2  A    between atoms: C_11  and  C_12
REMARK    3  A    between atoms: C_12  and  O_14
REMARK    4  A    between atoms: C_12  and  C_15
REMARK    5  A    between atoms: C_15  and  O_17
REMARK    6  A    between atoms: C_15  and  C_18
REMARK    7  A    between atoms: C_18  and  O_19
REMARK                            x       y       z     vdW  Elec       q    Type
REMARK                         _______ _______ _______ _____ _____    ______ ____
ROOT
ATOM      1  N   UNL     1      10.146  -5.526  25.750  0.00  0.00    -0.341 N 
ATOM      2  H   UNL     1      10.246  -5.958  26.663  0.00  0.00    +0.144 HD
ATOM      3  H   UNL     1      10.756  -5.833  25.006  0.00  0.00    +0.144 HD
ATOM      4  C   UNL     1       8.828  -5.369  25.343  0.00  0.00    +0.147 A 
ATOM      5  C   UNL     1       7.743  -5.388  26.235  0.00  0.00    +0.147 A 
ATOM      6  N   UNL     1       7.659  -5.569  27.598  0.00  0.00    -0.231 NA
ATOM      7  C   UNL     1       6.376  -5.456  27.876  0.00  0.00    +0.201 A 
ATOM      8  N   UNL     1       5.627  -5.224  26.752  0.00  0.00    -0.312 N 
ATOM      9  C   UNL     1       6.483  -5.204  25.685  0.00  0.00    +0.165 A 
ATOM     10  N   UNL     1       6.177  -5.039  24.387  0.00  0.00    -0.216 NA
ATOM     11  C   UNL     1       7.297  -5.035  23.632  0.00  0.00    +0.225 A 
ATOM     12  N   UNL     1       8.578  -5.202  24.025  0.00  0.00    -0.219 NA
ENDROOT
BRANCH   8  13
ATOM     13  C   UNL     1       4.206  -4.952  26.710  0.00  0.00    +0.159 C 
BRANCH  13  14
ATOM     14  C   UNL     1       3.292  -6.168  26.493  0.00  0.00    +0.174 C 
BRANCH  14  15
ATOM     15  O   UNL     1       3.993  -7.349  26.907  0.00  0.00    -0.387 OA
ATOM     16  H   UNL     1       3.758  -8.077  26.300  0.00  0.00    +0.210 HD
ENDBRANCH  14  15
BRANCH  14  17
ATOM     17  C   UNL     1       2.751  -6.283  25.057  0.00  0.00    +0.253 C 
BRANCH  17  18
ATOM     18  C   UNL     1       3.211  -7.603  24.446  0.00  0.00    +0.336 C 
ATOM     19  O   UNL     1       2.571  -8.643  24.473  0.00  0.00    -0.248 OA
BRANCH  18  20
ATOM     20  O   UNL     1       4.450  -7.502  23.906  0.00  0.00    -0.479 OA
ATOM     21  H   UNL     1       4.833  -8.415  23.871  0.00  0.00    +0.295 HD
ENDBRANCH  18  20
ENDBRANCH  17  18
BRANCH  17  22
ATOM     22  O   UNL     1       3.215  -5.230  24.195  0.00  0.00    -0.378 OA
ATOM     23  H   UNL     1       3.367  -4.442  24.755  0.00  0.00    +0.211 HD
ENDBRANCH  17  22
ENDBRANCH  14  17
ENDBRANCH  13  14
ENDBRANCH   8  13
TORSDOF 7
ENDMDL
MODEL 3
REMARK VINA RESULT:      -6.0      1.513      1.862
REMARK  Name = 
REMARK  7 active torsions:
REMARK  status: ('A' for Active; 'I' for Inactive)
REMARK    1  A    between atoms: N_10  and  C_11
REMARK    2  A    between atoms: C_11  and  C_12
REMARK    3  A    between atoms: C_12  and  O_14
REMARK    4  A    between atoms: C_12  and  C_15
REMARK    5  A    between atoms: C_15  and  O_17
REMARK    6  A    between atoms: C_15  and  C_18
REMARK    7  A    between atoms: C_18  and  O_19
REMARK                            x       y       z     vdW  Elec       q    Type
REMARK                         _______ _______ _______ _____ _____    ______ ____
ROOT
ATOM      1  N   UNL     1       9.992   1.982  21.557  0.00  0.00    -0.341 N 
ATOM      2  H   UNL     1      10.805   1.469  21.234  0.00  0.00    +0.144 HD
ATOM      3  H   UNL     1       9.596   2.685  20.949  0.00  0.00    +0.144 HD
ATOM      4  C   UNL     1       9.030   1.185  22.164  0.00  0.00    +0.147 A 
ATOM      5  C   UNL     1       9.305  -0.093  22.677  0.00  0.00    +0.147 A 
ATOM      6  N   UNL     1      10.450  -0.858  22.709  0.00  0.00    -0.231 NA
ATOM      7  C   UNL     1      10.104  -1.959  23.345  0.00  0.00    +0.201 A 
ATOM      8  N   UNL     1       8.784  -1.945  23.712  0.00  0.00    -0.312 N 
ATOM      9  C   UNL     1       8.247  -0.767  23.268  0.00  0.00    +0.165 A 
ATOM     10  N   UNL     1       6.976  -0.347  23.381  0.00  0.00    -0.216 NA
ATOM     11  C   UNL     1       6.835   0.890  22.858  0.00  0.00    +0.225 A 
ATOM     12  N   UNL     1       7.767   1.659  22.254  0.00  0.00    -0.219 NA
ENDROOT
BRANCH   8  13
ATOM     13  C   UNL     1       8.104  -2.944  24.508  0.00  0.00    +0.159 C 
BRANCH  13  14
ATOM     14  C   UNL     1       8.102  -4.372  23.941  0.00  0.00    +0.174 C 
BRANCH  14  15
ATOM     15  O   UNL     1       6.744  -4.786  23.741  0.00  0.00    -0.387 OA
ATOM     16  H   UNL     1       6.557  -5.532  24.342  0.00  0.00    +0.210 HD
ENDBRANCH  14  15
BRANCH  14  17
ATOM     17  C   UNL     1       8.900  -5.374  24.795  0.00  0.00    +0.253 C 
BRANCH  17  18
ATOM     18  C   UNL     1       8.324  -5.404  26.208  0.00  0.00    +0.336 C 
ATOM     19  O   UNL     1       7.205  -5.799  26.496  0.00  0.00    -0.248 OA
BRANCH  18  20
ATOM     20  O   UNL     1       9.192  -4.890  27.115  0.00  0.00    -0.479 OA
ATOM     21  H   UNL     1       9.309  -3.930  26.900  0.00  0.00    +0.295 HD
ENDBRANCH  18  20
ENDBRANCH  17  18
BRANCH  17  22
ATOM     22  O   UNL     1      10.292  -5.034  24.908  0.00  0.00    -0.378 OA
ATOM     23  H   UNL     1      10.388  -4.102  24.627  0.00  0.00    +0.211 HD
ENDBRANCH  17  22
ENDBRANCH  14  17
ENDBRANCH  13  14
ENDBRANCH   8  13
TORSDOF 7
ENDMDL
MODEL 4
REMARK VINA RESULT:      -5.6      3.898      6.879
REMARK  Name = 
REMARK  7 active torsions:
REMARK  status: ('A' for Active; 'I' for Inactive)
REMARK    1  A    between atoms: N_10  and  C_11
REMARK    2  A    between atoms: C_11  and  C_12
REMARK    3  A    between atoms: C_12  and  O_14
REMARK    4  A    between atoms: C_12  and  C_15
REMARK    5  A    between atoms: C_15  and  O_17
REMARK    6  A    between atoms: C_15  and  C_18
REMARK    7  A    between atoms: C_18  and  O_19
REMARK                            x       y       z     vdW  Elec       q    Type
REMARK                         _______ _______ _______ _____ _____    ______ ____
ROOT
ATOM      1  N   UNL     1       5.103  -7.069  27.462  0.00  0.00    -0.341 N 
ATOM      2  H   UNL     1       5.449  -6.658  28.322  0.00  0.00    +0.144 HD
ATOM      3  H   UNL     1       4.133  -7.347  27.421  0.00  0.00    +0.144 HD
ATOM      4  C   UNL     1       5.530  -6.417  26.314  0.00  0.00    +0.147 A 
ATOM      5  C   UNL     1       6.648  -5.567  26.286  0.00  0.00    +0.147 A 
ATOM      6  N   UNL     1       7.530  -5.154  27.260  0.00  0.00    -0.231 NA
ATOM      7  C   UNL     1       8.390  -4.378  26.633  0.00  0.00    +0.201 A 
ATOM      8  N   UNL     1       8.095  -4.260  25.300  0.00  0.00    -0.312 N 
ATOM      9  C   UNL     1       6.965  -4.994  25.063  0.00  0.00    +0.165 A 
ATOM     10  N   UNL     1       6.303  -5.137  23.903  0.00  0.00    -0.216 NA
ATOM     11  C   UNL     1       5.255  -5.976  24.052  0.00  0.00    +0.225 A 
ATOM     12  N   UNL     1       4.830  -6.599  25.172  0.00  0.00    -0.219 NA
ENDROOT
BRANCH   8  13
ATOM     13  C   UNL     1       8.886  -3.570  24.304  0.00  0.00    +0.159 C 
BRANCH  13  14
ATOM     14  C   UNL     1       8.176  -2.437  23.546  0.00  0.00    +0.174 C 
BRANCH  14  15
ATOM     15  O   UNL     1       7.841  -2.903  22.232  0.00  0.00    -0.387 OA
ATOM     16  H   UNL     1       7.134  -3.572  22.312  0.00  0.00    +0.210 HD
ENDBRANCH  14  15
BRANCH  14  17
ATOM     17  C   UNL     1       8.977  -1.123  23.514  0.00  0.00    +0.253 C 
BRANCH  17  18
ATOM     18  C   UNL     1       9.579  -0.931  22.125  0.00  0.00    +0.336 C 
ATOM     19  O   UNL     1       9.152  -0.158  21.282  0.00  0.00    -0.248 OA
BRANCH  18  20
ATOM     20  O   UNL     1      10.628  -1.764  21.912  0.00  0.00    -0.479 OA
ATOM     21  H   UNL     1      11.314  -1.556  22.595  0.00  0.00    +0.295 HD
ENDBRANCH  18  20
ENDBRANCH  17  18
BRANCH  17  22
ATOM     22  O   UNL     1      10.063  -1.103  24.456  0.00  0.00    -0.378 OA
ATOM     23  H   UNL     1      10.786  -0.580  24.055  0.00  0.00    +0.211 HD
ENDBRANCH  17  22
ENDBRANCH  14  17
ENDBRANCH  13  14
ENDBRANCH   8  13
TORSDOF 7
ENDMDL
MODEL 5
REMARK VINA RESULT:      -5.6      3.700      6.372
REMARK  Name = 
REMARK  7 active torsions:
REMARK  status: ('A' for Active; 'I' for Inactive)
REMARK    1  A    between atoms: N_10  and  C_11
REMARK    2  A    between atoms: C_11  and  C_12
REMARK    3  A    between atoms: C_12  and  O_14
REMARK    4  A    between atoms: C_12  and  C_15
REMARK    5  A    between atoms: C_15  and  O_17
REMARK    6  A    between atoms: C_15  and  C_18
REMARK    7  A    between atoms: C_18  and  O_19
REMARK                            x       y       z     vdW  Elec       q    Type
REMARK                         _______ _______ _______ _____ _____    ______ ____
ROOT
ATOM      1  N   UNL     1       5.289  -6.354  25.435  0.00  0.00    -0.341 N 
ATOM      2  H   UNL     1       4.962  -6.498  24.486  0.00  0.00    +0.144 HD
ATOM      3  H   UNL     1       5.285  -7.142  26.067  0.00  0.00    +0.144 HD
ATOM      4  C   UNL     1       6.448  -5.594  25.522  0.00  0.00    +0.147 A 
ATOM      5  C   UNL     1       6.890  -4.749  24.491  0.00  0.00    +0.147 A 
ATOM      6  N   UNL     1       6.393  -4.470  23.237  0.00  0.00    -0.231 NA
ATOM      7  C   UNL     1       7.222  -3.577  22.735  0.00  0.00    +0.201 A 
ATOM      8  N   UNL     1       8.239  -3.278  23.603  0.00  0.00    -0.312 N 
ATOM      9  C   UNL     1       8.059  -4.040  24.725  0.00  0.00    +0.165 A 
ATOM     10  N   UNL     1       8.836  -4.092  25.819  0.00  0.00    -0.216 NA
ATOM     11  C   UNL     1       8.310  -4.931  26.738  0.00  0.00    +0.225 A 
ATOM     12  N   UNL     1       7.191  -5.682  26.648  0.00  0.00    -0.219 NA
ENDROOT
BRANCH   8  13
ATOM     13  C   UNL     1       9.261  -2.271  23.413  0.00  0.00    +0.159 C 
BRANCH  13  14
ATOM     14  C   UNL     1       9.189  -1.478  22.099  0.00  0.00    +0.174 C 
BRANCH  14  15
ATOM     15  O   UNL     1      10.489  -1.477  21.492  0.00  0.00    -0.387 OA
ATOM     16  H   UNL     1      11.053  -2.115  21.969  0.00  0.00    +0.210 HD
ENDBRANCH  14  15
BRANCH  14  17
ATOM     17  C   UNL     1       8.621  -0.057  22.268  0.00  0.00    +0.253 C 
BRANCH  17  18
ATOM     18  C   UNL     1       9.771   0.929  22.456  0.00  0.00    +0.336 C 
ATOM     19  O   UNL     1      10.561   0.907  23.387  0.00  0.00    -0.248 OA
BRANCH  18  20
ATOM     20  O   UNL     1       9.786   1.875  21.485  0.00  0.00    -0.479 OA
ATOM     21  H   UNL     1       9.746   1.404  20.614  0.00  0.00    +0.295 HD
ENDBRANCH  18  20
ENDBRANCH  17  18
BRANCH  17  22
ATOM     22  O   UNL     1       7.758   0.071  23.410  0.00  0.00    -0.378 OA
ATOM     23  H   UNL     1       7.402  -0.818  23.608  0.00  0.00    +0.211 HD
ENDBRANCH  17  22
ENDBRANCH  14  17
ENDBRANCH  13  14
ENDBRANCH   8  13
TORSDOF 7
ENDMDL
MODEL 6
REMARK VINA RESULT:      -5.6      3.868      6.489
REMARK  Name = 
REMARK  7 active torsions:
REMARK  status: ('A' for Active; 'I' for Inactive)
REMARK    1  A    between atoms: N_10  and  C_11
REMARK    2  A    between atoms: C_11  and  C_12
REMARK    3  A    between atoms: C_12  and  O_14
REMARK    4  A    between atoms: C_12  and  C_15
REMARK    5  A    between atoms: C_15  and  O_17
REMARK    6  A    between atoms: C_15  and  C_18
REMARK    7  A    between atoms: C_18  and  O_19
REMARK                            x       y       z     vdW  Elec       q    Type
REMARK                         _______ _______ _______ _____ _____    ______ ____
ROOT
ATOM      1  N   UNL     1       4.389  -6.982  26.774  0.00  0.00    -0.341 N 
ATOM      2  H   UNL     1       3.844  -7.343  25.998  0.00  0.00    +0.144 HD
ATOM      3  H   UNL     1       4.544  -7.584  27.570  0.00  0.00    +0.144 HD
ATOM      4  C   UNL     1       5.527  -6.287  26.387  0.00  0.00    +0.147 A 
ATOM      5  C   UNL     1       5.700  -5.754  25.099  0.00  0.00    +0.147 A 
ATOM      6  N   UNL     1       4.914  -5.775  23.968  0.00  0.00    -0.231 NA
ATOM      7  C   UNL     1       5.588  -5.083  23.074  0.00  0.00    +0.201 A 
ATOM      8  N   UNL     1       6.781  -4.629  23.571  0.00  0.00    -0.312 N 
ATOM      9  C   UNL     1       6.884  -5.072  24.862  0.00  0.00    +0.165 A 
ATOM     10  N   UNL     1       7.902  -4.887  25.718  0.00  0.00    -0.216 NA
ATOM     11  C   UNL     1       7.620  -5.438  26.919  0.00  0.00    +0.225 A 
ATOM     12  N   UNL     1       6.520  -6.127  27.290  0.00  0.00    -0.219 NA
ENDROOT
BRANCH   8  13
ATOM     13  C   UNL     1       7.718  -3.757  22.894  0.00  0.00    +0.159 C 
BRANCH  13  14
ATOM     14  C   UNL     1       7.928  -2.372  23.526  0.00  0.00    +0.174 C 
BRANCH  14  15
ATOM     15  O   UNL     1       7.500  -1.371  22.592  0.00  0.00    -0.387 OA
ATOM     16  H   UNL     1       8.146  -0.638  22.608  0.00  0.00    +0.210 HD
ENDBRANCH  14  15
BRANCH  14  17
ATOM     17  C   UNL     1       9.367  -2.135  24.021  0.00  0.00    +0.253 C 
BRANCH  17  18
ATOM     18  C   UNL     1      10.073  -1.166  23.077  0.00  0.00    +0.336 C 
ATOM     19  O   UNL     1      10.265   0.017  23.309  0.00  0.00    -0.248 OA
BRANCH  18  20
ATOM     20  O   UNL     1      10.424  -1.766  21.912  0.00  0.00    -0.479 OA
ATOM     21  H   UNL     1      10.611  -1.048  21.255  0.00  0.00    +0.295 HD
ENDBRANCH  18  20
ENDBRANCH  17  18
BRANCH  17  22
ATOM     22  O   UNL     1      10.152  -3.338  24.064  0.00  0.00    -0.378 OA
ATOM     23  H   UNL     1      10.494  -3.429  24.975  0.00  0.00    +0.211 HD
ENDBRANCH  17  22
ENDBRANCH  14  17
ENDBRANCH  13  14
ENDBRANCH   8  13
TORSDOF 7
ENDMDL
MODEL 7
REMARK VINA RESULT:      -5.6      2.668      3.278
REMARK  Name = 
REMARK  7 active torsions:
REMARK  status: ('A' for Active; 'I' for Inactive)
REMARK    1  A    between atoms: N_10  and  C_11
REMARK    2  A    between atoms: C_11  and  C_12
REMARK    3  A    between atoms: C_12  and  O_14
REMARK    4  A    between atoms: C_12  and  C_15
REMARK    5  A    between atoms: C_15  and  O_17
REMARK    6  A    between atoms: C_15  and  C_18
REMARK    7  A    between atoms: C_18  and  O_19
REMARK                            x       y       z     vdW  Elec       q    Type
REMARK                         _______ _______ _______ _____ _____    ______ ____
ROOT
ATOM      1  N   UNL     1      10.152   2.233  21.516  0.00  0.00    -0.341 N 
ATOM      2  H   UNL     1      10.902   1.659  21.146  0.00  0.00    +0.144 HD
ATOM      3  H   UNL     1       9.880   3.057  21.000  0.00  0.00    +0.144 HD
ATOM      4  C   UNL     1       9.067   1.505  21.987  0.00  0.00    +0.147 A 
ATOM      5  C   UNL     1       9.146   0.145  22.329  0.00  0.00    +0.147 A 
ATOM      6  N   UNL     1      10.176  -0.769  22.284  0.00  0.00    -0.231 NA
ATOM      7  C   UNL     1       9.660  -1.885  22.757  0.00  0.00    +0.201 A 
ATOM      8  N   UNL     1       8.339  -1.736  23.091  0.00  0.00    -0.312 N 
ATOM      9  C   UNL     1       7.984  -0.448  22.798  0.00  0.00    +0.165 A 
ATOM     10  N   UNL     1       6.777   0.126  22.937  0.00  0.00    -0.216 NA
ATOM     11  C   UNL     1       6.826   1.428  22.583  0.00  0.00    +0.225 A 
ATOM     12  N   UNL     1       7.877   2.133  22.111  0.00  0.00    -0.219 NA
ENDROOT
BRANCH   8  13
ATOM     13  C   UNL     1       7.499  -2.727  23.729  0.00  0.00    +0.159 C 
BRANCH  13  14
ATOM     14  C   UNL     1       6.624  -3.575  22.791  0.00  0.00    +0.174 C 
BRANCH  14  15
ATOM     15  O   UNL     1       5.437  -3.962  23.495  0.00  0.00    -0.387 OA
ATOM     16  H   UNL     1       5.679  -4.168  24.419  0.00  0.00    +0.210 HD
ENDBRANCH  14  15
BRANCH  14  17
ATOM     17  C   UNL     1       7.364  -4.780  22.183  0.00  0.00    +0.253 C 
BRANCH  17  18
ATOM     18  C   UNL     1       6.354  -5.711  21.519  0.00  0.00    +0.336 C 
ATOM     19  O   UNL     1       5.923  -5.575  20.385  0.00  0.00    -0.248 OA
BRANCH  18  20
ATOM     20  O   UNL     1       5.946  -6.693  22.361  0.00  0.00    -0.479 OA
ATOM     21  H   UNL     1       6.030  -6.344  23.284  0.00  0.00    +0.295 HD
ENDBRANCH  18  20
ENDBRANCH  17  18
BRANCH  17  22
ATOM     22  O   UNL     1       8.078  -5.554  23.162  0.00  0.00    -0.378 OA
ATOM     23  H   UNL     1       7.548  -6.356  23.342  0.00  0.00    +0.211 HD
ENDBRANCH  17  22
ENDBRANCH  14  17
ENDBRANCH  13  14
ENDBRANCH   8  13
TORSDOF 7
ENDMDL
MODEL 8
REMARK VINA RESULT:      -5.6      2.510      3.550
REMARK  Name = 
REMARK  7 active torsions:
REMARK  status: ('A' for Active; 'I' for Inactive)
REMARK    1  A    between atoms: N_10  and  C_11
REMARK    2  A    between atoms: C_11  and  C_12
REMARK    3  A    between atoms: C_12  and  O_14
REMARK    4  A    between atoms: C_12  and  C_15
REMARK    5  A    between atoms: C_15  and  O_17
REMARK    6  A    between atoms: C_15  and  C_18
REMARK    7  A    between atoms: C_18  and  O_19
REMARK                            x       y       z     vdW  Elec       q    Type
REMARK                         _______ _______ _______ _____ _____    ______ ____
ROOT
ATOM      1  N   UNL     1      10.155   1.230  24.860  0.00  0.00    -0.341 N 
ATOM      2  H   UNL     1      10.039   1.280  25.867  0.00  0.00    +0.144 HD
ATOM      3  H   UNL     1      10.922   1.736  24.441  0.00  0.00    +0.144 HD
ATOM      4  C   UNL     1       9.997  -0.046  24.338  0.00  0.00    +0.147 A 
ATOM      5  C   UNL     1       9.330  -1.077  25.020  0.00  0.00    +0.147 A 
ATOM      6  N   UNL     1       8.731  -1.140  26.260  0.00  0.00    -0.231 NA
ATOM      7  C   UNL     1       8.248  -2.362  26.341  0.00  0.00    +0.201 A 
ATOM      8  N   UNL     1       8.520  -3.096  25.217  0.00  0.00    -0.312 N 
ATOM      9  C   UNL     1       9.237  -2.297  24.368  0.00  0.00    +0.165 A 
ATOM     10  N   UNL     1       9.740  -2.616  23.164  0.00  0.00    -0.216 NA
ATOM     11  C   UNL     1      10.352  -1.550  22.606  0.00  0.00    +0.225 A 
ATOM     12  N   UNL     1      10.520  -0.312  23.120  0.00  0.00    -0.219 NA
ENDROOT
BRANCH   8  13
ATOM     13  C   UNL     1       8.051  -4.436  24.932  0.00  0.00    +0.159 C 
BRANCH  13  14
ATOM     14  C   UNL     1       6.576  -4.561  24.520  0.00  0.00    +0.174 C 
BRANCH  14  15
ATOM     15  O   UNL     1       6.040  -5.763  25.089  0.00  0.00    -0.387 OA
ATOM     16  H   UNL     1       6.381  -6.524  24.581  0.00  0.00    +0.210 HD
ENDBRANCH  14  15
BRANCH  14  17
ATOM     17  C   UNL     1       6.355  -4.485  22.998  0.00  0.00    +0.253 C 
BRANCH  17  18
ATOM     18  C   UNL     1       5.400  -5.595  22.569  0.00  0.00    +0.336 C 
ATOM     19  O   UNL     1       4.182  -5.520  22.610  0.00  0.00    -0.248 OA
BRANCH  18  20
ATOM     20  O   UNL     1       6.068  -6.709  22.179  0.00  0.00    -0.479 OA
ATOM     21  H   UNL     1       5.398  -7.345  21.821  0.00  0.00    +0.295 HD
ENDBRANCH  18  20
ENDBRANCH  17  18
BRANCH  17  22
ATOM     22  O   UNL     1       7.568  -4.650  22.244  0.00  0.00    -0.378 OA
ATOM     23  H   UNL     1       7.394  -5.323  21.557  0.00  0.00    +0.211 HD
ENDBRANCH  17  22
ENDBRANCH  14  17
ENDBRANCH  13  14
ENDBRANCH   8  13
TORSDOF 7
ENDMDL
MODEL 9
REMARK VINA RESULT:      -5.6      1.696      2.159
REMARK  Name = 
REMARK  7 active torsions:
REMARK  status: ('A' for Active; 'I' for Inactive)
REMARK    1  A    between atoms: N_10  and  C_11
REMARK    2  A    between atoms: C_11  and  C_12
REMARK    3  A    between atoms: C_12  and  O_14
REMARK    4  A    between atoms: C_12  and  C_15
REMARK    5  A    between atoms: C_15  and  O_17
REMARK    6  A    between atoms: C_15  and  C_18
REMARK    7  A    between atoms: C_18  and  O_19
REMARK                            x       y       z     vdW  Elec       q    Type
REMARK                         _______ _______ _______ _____ _____    ______ ____
ROOT
ATOM      1  N   UNL     1       9.071   1.736  21.458  0.00  0.00    -0.341 N 
ATOM      2  H   UNL     1       8.082   1.732  21.231  0.00  0.00    +0.144 HD
ATOM      3  H   UNL     1       9.602   2.574  21.269  0.00  0.00    +0.144 HD
ATOM      4  C   UNL     1       9.367   1.172  22.691  0.00  0.00    +0.147 A 
ATOM      5  C   UNL     1       8.494   0.303  23.367  0.00  0.00    +0.147 A 
ATOM      6  N   UNL     1       7.236  -0.172  23.069  0.00  0.00    -0.231 NA
ATOM      7  C   UNL     1       6.931  -0.975  24.068  0.00  0.00    +0.201 A 
ATOM      8  N   UNL     1       7.930  -1.029  25.004  0.00  0.00    -0.312 N 
ATOM      9  C   UNL     1       8.931  -0.194  24.586  0.00  0.00    +0.165 A 
ATOM     10  N   UNL     1      10.087   0.084  25.211  0.00  0.00    -0.216 NA
ATOM     11  C   UNL     1      10.841   0.922  24.467  0.00  0.00    +0.225 A 
ATOM     12  N   UNL     1      10.546   1.483  23.274  0.00  0.00    -0.219 NA
ENDROOT
BRANCH   8  13
ATOM     13  C   UNL     1       7.968  -1.885  26.171  0.00  0.00    +0.159 C 
BRANCH  13  14
ATOM     14  C   UNL     1       7.635  -3.366  25.931  0.00  0.00    +0.174 C 
BRANCH  14  15
ATOM     15  O   UNL     1       6.367  -3.655  26.534  0.00  0.00    -0.387 OA
ATOM     16  H   UNL     1       6.147  -4.590  26.357  0.00  0.00    +0.210 HD
ENDBRANCH  14  15
BRANCH  14  17
ATOM     17  C   UNL     1       8.741  -4.328  26.402  0.00  0.00    +0.253 C 
BRANCH  17  18
ATOM     18  C   UNL     1       9.630  -4.695  25.218  0.00  0.00    +0.336 C 
ATOM     19  O   UNL     1      10.022  -3.907  24.371  0.00  0.00    -0.248 OA
BRANCH  18  20
ATOM     20  O   UNL     1       9.900  -6.024  25.185  0.00  0.00    -0.479 OA
ATOM     21  H   UNL     1       9.293  -6.431  24.517  0.00  0.00    +0.295 HD
ENDBRANCH  18  20
ENDBRANCH  17  18
BRANCH  17  22
ATOM     22  O   UNL     1       8.224  -5.555  26.944  0.00  0.00    -0.378 OA
ATOM     23  H   UNL     1       8.557  -5.632  27.861  0.00  0.00    +0.211 HD
ENDBRANCH  17  22
ENDBRANCH  14  17
ENDBRANCH  13  14
ENDBRANCH   8  13
TORSDOF 7
ENDMDL
