MODEL 1
REMARK VINA RESULT:      -6.7      0.000      0.000
REMARK  Name = 
REMARK  7 active torsions:
REMARK  status: ('A' for Active; 'I' for Inactive)
REMARK    1  A    between atoms: C_2  and  N_3
REMARK    2  A    between atoms: C_2  and  C_4
REMARK    3  A    between atoms: C_2  and  C_6
REMARK    4  A    between atoms: C_4  and  C_5
REMARK    5  A    between atoms: C_12  and  C_14
REMARK    6  A    between atoms: N_16  and  C_17
REMARK    7  A    between atoms: C_17  and  C_18
REMARK                            x       y       z     vdW  Elec       q    Type
REMARK                         _______ _______ _______ _____ _____    ______ ____
ROOT
ATOM      1  C   UNL     1       6.936  -5.345  25.835  0.00  0.00    +0.233 C 
ATOM      2  N   UNL     1       6.769  -4.610  24.680  0.00  0.00    -0.289 N 
ATOM      3  C   UNL     1       7.859  -4.507  23.715  0.00  0.00    +0.162 C 
ATOM      4  C   UNL     1       7.201  -4.004  22.423  0.00  0.00    +0.033 C 
ATOM      5  C   UNL     1       5.709  -3.906  22.743  0.00  0.00    +0.021 C 
ATOM      6  C   UNL     1       5.644  -3.804  24.257  0.00  0.00    +0.108 C 
ATOM      7  O   UNL     1       7.967  -6.006  26.004  0.00  0.00    -0.274 OA
ENDROOT
BRANCH   3   8
ATOM      8  C   UNL     1       8.895  -3.466  24.192  0.00  0.00    +0.234 C 
ATOM      9  N   UNL     1       8.362  -2.230  24.506  0.00  0.00    -0.310 N 
ATOM     10  H   UNL     1       7.484  -1.966  24.079  0.00  0.00    +0.149 HD
ATOM     11  O   UNL     1      10.075  -3.747  24.399  0.00  0.00    -0.274 OA
BRANCH   9  12
ATOM     12  C   UNL     1       9.244  -1.160  24.918  0.00  0.00    +0.139 C 
BRANCH  12  13
ATOM     13  C   UNL     1       9.416  -0.124  23.838  0.00  0.00    -0.029 A 
ATOM     14  C   UNL     1      10.089   1.079  24.111  0.00  0.00    +0.025 A 
ATOM     15  C   UNL     1      10.311   2.007  23.095  0.00  0.00    +0.041 A 
ATOM     16 CL   UNL     1      11.150   3.470  23.442  0.00  0.00    -0.084 Cl
ATOM     17  C   UNL     1       9.872   1.754  21.798  0.00  0.00    +0.020 A 
ATOM     18  C   UNL     1       9.200   0.565  21.517  0.00  0.00    +0.002 A 
ATOM     19  C   UNL     1       8.972  -0.369  22.531  0.00  0.00    +0.005 A 
ENDBRANCH  12  13
ENDBRANCH   9  12
ENDBRANCH   3   8
BRANCH   1  20
ATOM     20  C   UNL     1       5.810  -5.293  26.901  0.00  0.00    +0.138 C 
BRANCH  20  21
ATOM     21  N   UNL     1       6.397  -4.954  28.208  0.00  0.00    -0.320 NA
ATOM     22  H   UNL     1       7.404  -5.107  28.188  0.00  0.00    +0.119 HD
ATOM     23  H   UNL     1       6.240  -3.973  28.424  0.00  0.00    +0.119 HD
ENDBRANCH  20  21
BRANCH  20  24
ATOM     24  C   UNL     1       5.083  -6.647  26.951  0.00  0.00    +0.024 C 
ATOM     25  C   UNL     1       4.259  -6.954  25.708  0.00  0.00    +0.006 C 
ENDBRANCH  20  24
ENDBRANCH   1  20
TORSDOF 6
ENDMDL
MODEL 2
REMARK VINA RESULT:      -6.5      1.791      2.623
REMARK  Name = 
REMARK  7 active torsions:
REMARK  status: ('A' for Active; 'I' for Inactive)
REMARK    1  A    between atoms: C_2  and  N_3
REMARK    2  A    between atoms: C_2  and  C_4
REMARK    3  A    between atoms: C_2  and  C_6
REMARK    4  A    between atoms: C_4  and  C_5
REMARK    5  A    between atoms: C_12  and  C_14
REMARK    6  A    between atoms: N_16  and  C_17
REMARK    7  A    between atoms: C_17  and  C_18
REMARK                            x       y       z     vdW  Elec       q    Type
REMARK                         _______ _______ _______ _____ _____    ______ ____
ROOT
ATOM      1  C   UNL     1       8.258  -4.745  25.097  0.00  0.00    +0.233 C 
ATOM      2  N   UNL     1       7.168  -5.026  24.299  0.00  0.00    -0.289 N 
ATOM      3  C   UNL     1       7.296  -4.983  22.847  0.00  0.00    +0.162 C 
ATOM      4  C   UNL     1       6.067  -5.735  22.317  0.00  0.00    +0.033 C 
ATOM      5  C   UNL     1       5.325  -6.222  23.562  0.00  0.00    +0.021 C 
ATOM      6  C   UNL     1       5.799  -5.306  24.677  0.00  0.00    +0.108 C 
ATOM      7  O   UNL     1       9.368  -4.565  24.586  0.00  0.00    -0.274 OA
ENDROOT
BRANCH   3   8
ATOM      8  C   UNL     1       7.245  -3.522  22.351  0.00  0.00    +0.234 C 
ATOM      9  N   UNL     1       8.480  -2.911  22.239  0.00  0.00    -0.310 N 
ATOM     10  H   UNL     1       9.242  -3.267  22.802  0.00  0.00    +0.149 HD
ATOM     11  O   UNL     1       6.207  -2.985  21.964  0.00  0.00    -0.274 OA
BRANCH   9  12
ATOM     12  C   UNL     1       8.553  -1.525  21.831  0.00  0.00    +0.139 C 
BRANCH  12  13
ATOM     13  C   UNL     1       9.265  -0.674  22.848  0.00  0.00    -0.029 A 
ATOM     14  C   UNL     1       9.702   0.618  22.510  0.00  0.00    +0.025 A 
ATOM     15  C   UNL     1      10.297   1.434  23.472  0.00  0.00    +0.041 A 
ATOM     16 CL   UNL     1      10.815   3.019  23.045  0.00  0.00    -0.084 Cl
ATOM     17  C   UNL     1      10.464   0.980  24.778  0.00  0.00    +0.020 A 
ATOM     18  C   UNL     1      10.037  -0.302  25.123  0.00  0.00    +0.002 A 
ATOM     19  C   UNL     1       9.441  -1.125  24.164  0.00  0.00    +0.005 A 
ENDBRANCH  12  13
ENDBRANCH   9  12
ENDBRANCH   3   8
BRANCH   1  20
ATOM     20  C   UNL     1       8.033  -4.646  26.629  0.00  0.00    +0.138 C 
BRANCH  20  21
ATOM     21  N   UNL     1       7.839  -5.999  27.178  0.00  0.00    -0.320 NA
ATOM     22  H   UNL     1       8.075  -6.010  28.169  0.00  0.00    +0.119 HD
ATOM     23  H   UNL     1       6.866  -6.281  27.091  0.00  0.00    +0.119 HD
ENDBRANCH  20  21
BRANCH  20  24
ATOM     24  C   UNL     1       6.817  -3.750  26.916  0.00  0.00    +0.024 C 
ATOM     25  C   UNL     1       7.060  -2.270  26.647  0.00  0.00    +0.006 C 
ENDBRANCH  20  24
ENDBRANCH   1  20
TORSDOF 6
ENDMDL
MODEL 3
REMARK VINA RESULT:      -6.4      3.309      7.619
REMARK  Name = 
REMARK  7 active torsions:
REMARK  status: ('A' for Active; 'I' for Inactive)
REMARK    1  A    between atoms: C_2  and  N_3
REMARK    2  A    between atoms: C_2  and  C_4
REMARK    3  A    between atoms: C_2  and  C_6
REMARK    4  A    between atoms: C_4  and  C_5
REMARK    5  A    between atoms: C_12  and  C_14
REMARK    6  A    between atoms: N_16  and  C_17
REMARK    7  A    between atoms: C_17  and  C_18
REMARK                            x       y       z     vdW  Elec       q    Type
REMARK                         _______ _______ _______ _____ _____    ______ ____
ROOT
ATOM      1  C   UNL     1      10.228   1.468  24.170  0.00  0.00    +0.233 C 
ATOM      2  N   UNL     1       9.073   0.937  24.706  0.00  0.00    -0.289 N 
ATOM      3  C   UNL     1       9.137  -0.258  25.540  0.00  0.00    +0.162 C 
ATOM      4  C   UNL     1       7.790  -0.303  26.274  0.00  0.00    +0.033 C 
ATOM      5  C   UNL     1       7.046   0.957  25.829  0.00  0.00    +0.021 C 
ATOM      6  C   UNL     1       7.698   1.345  24.513  0.00  0.00    +0.108 C 
ATOM      7  O   UNL     1      11.328   1.000  24.485  0.00  0.00    -0.274 OA
ENDROOT
BRANCH   3   8
ATOM      8  C   UNL     1       9.271  -1.517  24.656  0.00  0.00    +0.234 C 
ATOM      9  N   UNL     1       9.061  -2.710  25.322  0.00  0.00    -0.310 N 
ATOM     10  H   UNL     1       9.210  -2.730  26.323  0.00  0.00    +0.149 HD
ATOM     11  O   UNL     1       9.424  -1.461  23.436  0.00  0.00    -0.274 OA
BRANCH   9  12
ATOM     12  C   UNL     1       9.209  -3.958  24.607  0.00  0.00    +0.139 C 
BRANCH  12  13
ATOM     13  C   UNL     1       7.877  -4.575  24.267  0.00  0.00    -0.029 A 
ATOM     14  C   UNL     1       7.565  -4.898  22.936  0.00  0.00    +0.025 A 
ATOM     15  C   UNL     1       6.362  -5.535  22.630  0.00  0.00    +0.041 A 
ATOM     16 CL   UNL     1       6.001  -5.937  20.996  0.00  0.00    -0.084 Cl
ATOM     17  C   UNL     1       5.457  -5.859  23.637  0.00  0.00    +0.020 A 
ATOM     18  C   UNL     1       5.756  -5.539  24.962  0.00  0.00    +0.002 A 
ATOM     19  C   UNL     1       6.959  -4.900  25.275  0.00  0.00    +0.005 A 
ENDBRANCH  12  13
ENDBRANCH   9  12
ENDBRANCH   3   8
BRANCH   1  20
ATOM     20  C   UNL     1      10.093   2.641  23.163  0.00  0.00    +0.138 C 
BRANCH  20  21
ATOM     21  N   UNL     1      10.117   2.105  21.792  0.00  0.00    -0.320 NA
ATOM     22  H   UNL     1      10.439   1.139  21.801  0.00  0.00    +0.119 HD
ATOM     23  H   UNL     1       9.183   2.113  21.391  0.00  0.00    +0.119 HD
ENDBRANCH  20  21
BRANCH  20  24
ATOM     24  C   UNL     1      11.232   3.649  23.387  0.00  0.00    +0.024 C 
ATOM     25  C   UNL     1      10.757   5.059  23.711  0.00  0.00    +0.006 C 
ENDBRANCH  20  24
ENDBRANCH   1  20
TORSDOF 6
ENDMDL
MODEL 4
REMARK VINA RESULT:      -6.4      3.257      6.846
REMARK  Name = 
REMARK  7 active torsions:
REMARK  status: ('A' for Active; 'I' for Inactive)
REMARK    1  A    between atoms: C_2  and  N_3
REMARK    2  A    between atoms: C_2  and  C_4
REMARK    3  A    between atoms: C_2  and  C_6
REMARK    4  A    between atoms: C_4  and  C_5
REMARK    5  A    between atoms: C_12  and  C_14
REMARK    6  A    between atoms: N_16  and  C_17
REMARK    7  A    between atoms: C_17  and  C_18
REMARK                            x       y       z     vdW  Elec       q    Type
REMARK                         _______ _______ _______ _____ _____    ______ ____
ROOT
ATOM      1  C   UNL     1       9.269  -1.313  23.850  0.00  0.00    +0.233 C 
ATOM      2  N   UNL     1       8.492  -0.778  24.857  0.00  0.00    -0.289 N 
ATOM      3  C   UNL     1       8.501  -1.384  26.185  0.00  0.00    +0.162 C 
ATOM      4  C   UNL     1       7.891  -0.322  27.110  0.00  0.00    +0.033 C 
ATOM      5  C   UNL     1       7.619   0.887  26.213  0.00  0.00    +0.021 C 
ATOM      6  C   UNL     1       7.546   0.315  24.808  0.00  0.00    +0.108 C 
ATOM      7  O   UNL     1      10.054  -2.234  24.097  0.00  0.00    -0.274 OA
ENDROOT
BRANCH   3   8
ATOM      8  C   UNL     1       7.605  -2.641  26.202  0.00  0.00    +0.234 C 
ATOM      9  N   UNL     1       8.275  -3.825  25.957  0.00  0.00    -0.310 N 
ATOM     10  H   UNL     1       9.143  -3.784  25.439  0.00  0.00    +0.149 HD
ATOM     11  O   UNL     1       6.420  -2.610  26.532  0.00  0.00    -0.274 OA
BRANCH   9  12
ATOM     12  C   UNL     1       7.529  -5.064  25.899  0.00  0.00    +0.139 C 
BRANCH  12  13
ATOM     13  C   UNL     1       6.939  -5.304  24.534  0.00  0.00    -0.029 A 
ATOM     14  C   UNL     1       5.569  -5.578  24.393  0.00  0.00    +0.025 A 
ATOM     15  C   UNL     1       5.008  -5.729  23.124  0.00  0.00    +0.041 A 
ATOM     16 CL   UNL     1       3.325  -6.049  22.967  0.00  0.00    -0.084 Cl
ATOM     17  C   UNL     1       5.798  -5.610  21.984  0.00  0.00    +0.020 A 
ATOM     18  C   UNL     1       7.161  -5.343  22.114  0.00  0.00    +0.002 A 
ATOM     19  C   UNL     1       7.729  -5.191  23.381  0.00  0.00    +0.005 A 
ENDBRANCH  12  13
ENDBRANCH   9  12
ENDBRANCH   3   8
BRANCH   1  20
ATOM     20  C   UNL     1       9.104  -0.734  22.419  0.00  0.00    +0.138 C 
BRANCH  20  21
ATOM     21  N   UNL     1       9.427  -1.781  21.435  0.00  0.00    -0.320 NA
ATOM     22  H   UNL     1      10.042  -1.405  20.715  0.00  0.00    +0.119 HD
ATOM     23  H   UNL     1       9.915  -2.552  21.883  0.00  0.00    +0.119 HD
ENDBRANCH  20  21
BRANCH  20  24
ATOM     24  C   UNL     1      10.018   0.490  22.249  0.00  0.00    +0.024 C 
ATOM     25  C   UNL     1       9.276   1.774  21.902  0.00  0.00    +0.006 C 
ENDBRANCH  20  24
ENDBRANCH   1  20
TORSDOF 6
ENDMDL
MODEL 5
REMARK VINA RESULT:      -6.4      2.228      3.384
REMARK  Name = 
REMARK  7 active torsions:
REMARK  status: ('A' for Active; 'I' for Inactive)
REMARK    1  A    between atoms: C_2  and  N_3
REMARK    2  A    between atoms: C_2  and  C_4
REMARK    3  A    between atoms: C_2  and  C_6
REMARK    4  A    between atoms: C_4  and  C_5
REMARK    5  A    between atoms: C_12  and  C_14
REMARK    6  A    between atoms: N_16  and  C_17
REMARK    7  A    between atoms: C_17  and  C_18
REMARK                            x       y       z     vdW  Elec       q    Type
REMARK                         _______ _______ _______ _____ _____    ______ ____
ROOT
ATOM      1  C   UNL     1       6.396  -4.150  23.039  0.00  0.00    +0.233 C 
ATOM      2  N   UNL     1       7.438  -4.220  23.940  0.00  0.00    -0.289 N 
ATOM      3  C   UNL     1       7.928  -3.006  24.585  0.00  0.00    +0.162 C 
ATOM      4  C   UNL     1       8.754  -3.498  25.782  0.00  0.00    +0.033 C 
ATOM      5  C   UNL     1       8.621  -5.021  25.765  0.00  0.00    +0.021 C 
ATOM      6  C   UNL     1       8.238  -5.359  24.334  0.00  0.00    +0.108 C 
ATOM      7  O   UNL     1       5.804  -3.080  22.859  0.00  0.00    -0.274 OA
ENDROOT
BRANCH   3   8
ATOM      8  C   UNL     1       8.851  -2.229  23.622  0.00  0.00    +0.234 C 
ATOM      9  N   UNL     1       8.227  -1.209  22.928  0.00  0.00    -0.310 N 
ATOM     10  H   UNL     1       7.226  -1.267  22.792  0.00  0.00    +0.149 HD
ATOM     11  O   UNL     1      10.067  -2.413  23.570  0.00  0.00    -0.274 OA
BRANCH   9  12
ATOM     12  C   UNL     1       8.982  -0.443  21.960  0.00  0.00    +0.139 C 
BRANCH  12  13
ATOM     13  C   UNL     1       9.160   0.990  22.390  0.00  0.00    -0.029 A 
ATOM     14  C   UNL     1       8.173   1.946  22.096  0.00  0.00    +0.025 A 
ATOM     15  C   UNL     1       8.304   3.256  22.555  0.00  0.00    +0.041 A 
ATOM     16 CL   UNL     1       7.079   4.412  22.200  0.00  0.00    -0.084 Cl
ATOM     17  C   UNL     1       9.411   3.633  23.311  0.00  0.00    +0.020 A 
ATOM     18  C   UNL     1      10.399   2.693  23.604  0.00  0.00    +0.002 A 
ATOM     19  C   UNL     1      10.275   1.379  23.146  0.00  0.00    +0.005 A 
ENDBRANCH  12  13
ENDBRANCH   9  12
ENDBRANCH   3   8
BRANCH   1  20
ATOM     20  C   UNL     1       6.017  -5.439  22.262  0.00  0.00    +0.138 C 
BRANCH  20  21
ATOM     21  N   UNL     1       6.006  -5.147  20.818  0.00  0.00    -0.320 NA
ATOM     22  H   UNL     1       5.078  -5.319  20.435  0.00  0.00    +0.119 HD
ATOM     23  H   UNL     1       6.231  -4.170  20.652  0.00  0.00    +0.119 HD
ENDBRANCH  20  21
BRANCH  20  24
ATOM     24  C   UNL     1       4.645  -5.944  22.738  0.00  0.00    +0.024 C 
ATOM     25  C   UNL     1       4.656  -6.535  24.142  0.00  0.00    +0.006 C 
ENDBRANCH  20  24
ENDBRANCH   1  20
TORSDOF 6
ENDMDL
MODEL 6
REMARK VINA RESULT:      -6.4      3.408      7.120
REMARK  Name = 
REMARK  7 active torsions:
REMARK  status: ('A' for Active; 'I' for Inactive)
REMARK    1  A    between atoms: C_2  and  N_3
REMARK    2  A    between atoms: C_2  and  C_4
REMARK    3  A    between atoms: C_2  and  C_6
REMARK    4  A    between atoms: C_4  and  C_5
REMARK    5  A    between atoms: C_12  and  C_14
REMARK    6  A    between atoms: N_16  and  C_17
REMARK    7  A    between atoms: C_17  and  C_18
REMARK                            x       y       z     vdW  Elec       q    Type
REMARK                         _______ _______ _______ _____ _____    ______ ____
ROOT
ATOM      1  C   UNL     1       7.249   0.849  23.290  0.00  0.00    +0.233 C 
ATOM      2  N   UNL     1       8.544   0.843  23.765  0.00  0.00    -0.289 N 
ATOM      3  C   UNL     1       9.400  -0.316  23.536  0.00  0.00    +0.162 C 
ATOM      4  C   UNL     1      10.826   0.183  23.810  0.00  0.00    +0.033 C 
ATOM      5  C   UNL     1      10.677   1.670  24.134  0.00  0.00    +0.021 C 
ATOM      6  C   UNL     1       9.232   1.826  24.573  0.00  0.00    +0.108 C 
ATOM      7  O   UNL     1       6.847  -0.077  22.577  0.00  0.00    -0.274 OA
ENDROOT
BRANCH   3   8
ATOM      8  C   UNL     1       9.058  -1.437  24.540  0.00  0.00    +0.234 C 
ATOM      9  N   UNL     1       9.330  -2.715  24.088  0.00  0.00    -0.310 N 
ATOM     10  H   UNL     1       9.361  -2.871  23.089  0.00  0.00    +0.149 HD
ATOM     11  O   UNL     1       8.693  -1.210  25.694  0.00  0.00    -0.274 OA
BRANCH   9  12
ATOM     12  C   UNL     1       9.004  -3.849  24.925  0.00  0.00    +0.139 C 
BRANCH  12  13
ATOM     13  C   UNL     1       7.745  -4.541  24.472  0.00  0.00    -0.029 A 
ATOM     14  C   UNL     1       7.532  -4.805  23.109  0.00  0.00    +0.025 A 
ATOM     15  C   UNL     1       6.401  -5.508  22.696  0.00  0.00    +0.041 A 
ATOM     16 CL   UNL     1       6.162  -5.836  21.024  0.00  0.00    -0.084 Cl
ATOM     17  C   UNL     1       5.470  -5.959  23.628  0.00  0.00    +0.020 A 
ATOM     18  C   UNL     1       5.670  -5.698  24.984  0.00  0.00    +0.002 A 
ATOM     19  C   UNL     1       6.800  -4.993  25.404  0.00  0.00    +0.005 A 
ENDBRANCH  12  13
ENDBRANCH   9  12
ENDBRANCH   3   8
BRANCH   1  20
ATOM     20  C   UNL     1       6.329   2.032  23.696  0.00  0.00    +0.138 C 
BRANCH  20  21
ATOM     21  N   UNL     1       5.068   1.499  24.237  0.00  0.00    -0.320 NA
ATOM     22  H   UNL     1       4.319   1.618  23.556  0.00  0.00    +0.119 HD
ATOM     23  H   UNL     1       5.155   0.505  24.427  0.00  0.00    +0.119 HD
ENDBRANCH  20  21
BRANCH  20  24
ATOM     24  C   UNL     1       6.076   2.931  22.475  0.00  0.00    +0.024 C 
ATOM     25  C   UNL     1       7.139   4.000  22.262  0.00  0.00    +0.006 C 
ENDBRANCH  20  24
ENDBRANCH   1  20
TORSDOF 6
ENDMDL
MODEL 7
REMARK VINA RESULT:      -6.4      3.419      6.727
REMARK  Name = 
REMARK  7 active torsions:
REMARK  status: ('A' for Active; 'I' for Inactive)
REMARK    1  A    between atoms: C_2  and  N_3
REMARK    2  A    between atoms: C_2  and  C_4
REMARK    3  A    between atoms: C_2  and  C_6
REMARK    4  A    between atoms: C_4  and  C_5
REMARK    5  A    between atoms: C_12  and  C_14
REMARK    6  A    between atoms: N_16  and  C_17
REMARK    7  A    between atoms: C_17  and  C_18
REMARK                            x       y       z     vdW  Elec       q    Type
REMARK                         _______ _______ _______ _____ _____    ______ ____
ROOT
ATOM      1  C   UNL     1       7.742   0.394  24.661  0.00  0.00    +0.233 C 
ATOM      2  N   UNL     1       8.623   0.517  23.606  0.00  0.00    -0.289 N 
ATOM      3  C   UNL     1       8.347  -0.158  22.343  0.00  0.00    +0.162 C 
ATOM      4  C   UNL     1       9.267   0.522  21.320  0.00  0.00    +0.033 C 
ATOM      5  C   UNL     1       9.992   1.621  22.097  0.00  0.00    +0.021 C 
ATOM      6  C   UNL     1       9.903   1.189  23.550  0.00  0.00    +0.108 C 
ATOM      7  O   UNL     1       6.667  -0.194  24.505  0.00  0.00    -0.274 OA
ENDROOT
BRANCH   3   8
ATOM      8  C   UNL     1       8.723  -1.652  22.444  0.00  0.00    +0.234 C 
ATOM      9  N   UNL     1       7.653  -2.498  22.667  0.00  0.00    -0.310 N 
ATOM     10  H   UNL     1       6.825  -2.116  23.104  0.00  0.00    +0.149 HD
ATOM     11  O   UNL     1       9.859  -2.070  22.219  0.00  0.00    -0.274 OA
BRANCH   9  12
ATOM     12  C   UNL     1       7.891  -3.916  22.829  0.00  0.00    +0.139 C 
BRANCH  12  13
ATOM     13  C   UNL     1       7.817  -4.339  24.273  0.00  0.00    -0.029 A 
ATOM     14  C   UNL     1       6.704  -5.055  24.745  0.00  0.00    +0.025 A 
ATOM     15  C   UNL     1       6.666  -5.509  26.063  0.00  0.00    +0.041 A 
ATOM     16 CL   UNL     1       5.302  -6.397  26.622  0.00  0.00    -0.084 Cl
ATOM     17  C   UNL     1       7.730  -5.261  26.927  0.00  0.00    +0.020 A 
ATOM     18  C   UNL     1       8.838  -4.548  26.469  0.00  0.00    +0.002 A 
ATOM     19  C   UNL     1       8.881  -4.089  25.150  0.00  0.00    +0.005 A 
ENDBRANCH  12  13
ENDBRANCH   9  12
ENDBRANCH   3   8
BRANCH   1  20
ATOM     20  C   UNL     1       8.157   0.996  26.030  0.00  0.00    +0.138 C 
BRANCH  20  21
ATOM     21  N   UNL     1       8.024  -0.036  27.072  0.00  0.00    -0.320 NA
ATOM     22  H   UNL     1       7.718  -0.914  26.656  0.00  0.00    +0.119 HD
ATOM     23  H   UNL     1       8.920  -0.205  27.521  0.00  0.00    +0.119 HD
ENDBRANCH  20  21
BRANCH  20  24
ATOM     24  C   UNL     1       7.280   2.220  26.343  0.00  0.00    +0.024 C 
ATOM     25  C   UNL     1       7.697   3.486  25.605  0.00  0.00    +0.006 C 
ENDBRANCH  20  24
ENDBRANCH   1  20
TORSDOF 6
ENDMDL
MODEL 8
REMARK VINA RESULT:      -6.2      2.063      3.479
REMARK  Name = 
REMARK  7 active torsions:
REMARK  status: ('A' for Active; 'I' for Inactive)
REMARK    1  A    between atoms: C_2  and  N_3
REMARK    2  A    between atoms: C_2  and  C_4
REMARK    3  A    between atoms: C_2  and  C_6
REMARK    4  A    between atoms: C_4  and  C_5
REMARK    5  A    between atoms: C_12  and  C_14
REMARK    6  A    between atoms: N_16  and  C_17
REMARK    7  A    between atoms: C_17  and  C_18
REMARK                            x       y       z     vdW  Elec       q    Type
REMARK                         _______ _______ _______ _____ _____    ______ ____
ROOT
ATOM      1  C   UNL     1       4.646  -4.940  24.458  0.00  0.00    +0.233 C 
ATOM      2  N   UNL     1       5.145  -5.480  25.625  0.00  0.00    -0.289 N 
ATOM      3  C   UNL     1       6.061  -4.705  26.455  0.00  0.00    +0.162 C 
ATOM      4  C   UNL     1       6.064  -5.416  27.815  0.00  0.00    +0.033 C 
ATOM      5  C   UNL     1       5.062  -6.563  27.673  0.00  0.00    +0.021 C 
ATOM      6  C   UNL     1       4.964  -6.806  26.177  0.00  0.00    +0.108 C 
ATOM      7  O   UNL     1       4.884  -3.763  24.169  0.00  0.00    -0.274 OA
ENDROOT
BRANCH   3   8
ATOM      8  C   UNL     1       7.485  -4.749  25.860  0.00  0.00    +0.234 C 
ATOM      9  N   UNL     1       7.876  -3.587  25.223  0.00  0.00    -0.310 N 
ATOM     10  H   UNL     1       7.156  -2.973  24.863  0.00  0.00    +0.149 HD
ATOM     11  O   UNL     1       8.256  -5.691  26.046  0.00  0.00    -0.274 OA
BRANCH   9  12
ATOM     12  C   UNL     1       9.173  -3.529  24.584  0.00  0.00    +0.139 C 
BRANCH  12  13
ATOM     13  C   UNL     1       9.342  -2.278  23.763  0.00  0.00    -0.029 A 
ATOM     14  C   UNL     1       9.944  -1.138  24.323  0.00  0.00    +0.025 A 
ATOM     15  C   UNL     1      10.166  -0.004  23.542  0.00  0.00    +0.041 A 
ATOM     16 CL   UNL     1      10.917   1.378  24.239  0.00  0.00    -0.084 Cl
ATOM     17  C   UNL     1       9.796   0.013  22.199  0.00  0.00    +0.020 A 
ATOM     18  C   UNL     1       9.194  -1.111  21.635  0.00  0.00    +0.002 A 
ATOM     19  C   UNL     1       8.968  -2.250  22.412  0.00  0.00    +0.005 A 
ENDBRANCH  12  13
ENDBRANCH   9  12
ENDBRANCH   3   8
BRANCH   1  20
ATOM     20  C   UNL     1       3.806  -5.859  23.531  0.00  0.00    +0.138 C 
BRANCH  20  21
ATOM     21  N   UNL     1       4.503  -6.015  22.244  0.00  0.00    -0.320 NA
ATOM     22  H   UNL     1       5.225  -5.302  22.151  0.00  0.00    +0.119 HD
ATOM     23  H   UNL     1       4.959  -6.922  22.195  0.00  0.00    +0.119 HD
ENDBRANCH  20  21
BRANCH  20  24
ATOM     24  C   UNL     1       2.405  -5.254  23.336  0.00  0.00    +0.024 C 
ATOM     25  C   UNL     1       1.382  -6.231  22.773  0.00  0.00    +0.006 C 
ENDBRANCH  20  24
ENDBRANCH   1  20
TORSDOF 6
ENDMDL
MODEL 9
REMARK VINA RESULT:      -6.2      3.323      7.371
REMARK  Name = 
REMARK  7 active torsions:
REMARK  status: ('A' for Active; 'I' for Inactive)
REMARK    1  A    between atoms: C_2  and  N_3
REMARK    2  A    between atoms: C_2  and  C_4
REMARK    3  A    between atoms: C_2  and  C_6
REMARK    4  A    between atoms: C_4  and  C_5
REMARK    5  A    between atoms: C_12  and  C_14
REMARK    6  A    between atoms: N_16  and  C_17
REMARK    7  A    between atoms: C_17  and  C_18
REMARK                            x       y       z     vdW  Elec       q    Type
REMARK                         _______ _______ _______ _____ _____    ______ ____
ROOT
ATOM      1  C   UNL     1       9.771   1.059  23.818  0.00  0.00    +0.233 C 
ATOM      2  N   UNL     1       8.800   0.352  24.497  0.00  0.00    -0.289 N 
ATOM      3  C   UNL     1       9.138  -0.903  25.159  0.00  0.00    +0.162 C 
ATOM      4  C   UNL     1       7.975  -1.168  26.125  0.00  0.00    +0.033 C 
ATOM      5  C   UNL     1       7.046   0.037  25.978  0.00  0.00    +0.021 C 
ATOM      6  C   UNL     1       7.383   0.620  24.618  0.00  0.00    +0.108 C 
ATOM      7  O   UNL     1      10.949   0.688  23.861  0.00  0.00    -0.274 OA
ENDROOT
BRANCH   3   8
ATOM      8  C   UNL     1       9.206  -2.048  24.126  0.00  0.00    +0.234 C 
ATOM      9  N   UNL     1       7.988  -2.391  23.570  0.00  0.00    -0.310 N 
ATOM     10  H   UNL     1       7.148  -2.182  24.094  0.00  0.00    +0.149 HD
ATOM     11  O   UNL     1      10.269  -2.529  23.733  0.00  0.00    -0.274 OA
BRANCH   9  12
ATOM     12  C   UNL     1       7.922  -3.485  22.625  0.00  0.00    +0.139 C 
BRANCH  12  13
ATOM     13  C   UNL     1       6.901  -4.517  23.027  0.00  0.00    -0.029 A 
ATOM     14  C   UNL     1       6.718  -4.843  24.382  0.00  0.00    +0.025 A 
ATOM     15  C   UNL     1       5.724  -5.745  24.761  0.00  0.00    +0.041 A 
ATOM     16 CL   UNL     1       5.504  -6.122  26.425  0.00  0.00    -0.084 Cl
ATOM     17  C   UNL     1       4.901  -6.332  23.804  0.00  0.00    +0.020 A 
ATOM     18  C   UNL     1       5.077  -6.019  22.456  0.00  0.00    +0.002 A 
ATOM     19  C   UNL     1       6.071  -5.117  22.070  0.00  0.00    +0.005 A 
ENDBRANCH  12  13
ENDBRANCH   9  12
ENDBRANCH   3   8
BRANCH   1  20
ATOM     20  C   UNL     1       9.330   2.300  22.998  0.00  0.00    +0.138 C 
BRANCH  20  21
ATOM     21  N   UNL     1       9.937   2.234  21.658  0.00  0.00    -0.320 NA
ATOM     22  H   UNL     1       9.246   2.478  20.950  0.00  0.00    +0.119 HD
ATOM     23  H   UNL     1      10.702   2.900  21.582  0.00  0.00    +0.119 HD
ENDBRANCH  20  21
BRANCH  20  24
ATOM     24  C   UNL     1       9.749   3.582  23.737  0.00  0.00    +0.024 C 
ATOM     25  C   UNL     1       8.709   4.096  24.724  0.00  0.00    +0.006 C 
ENDBRANCH  20  24
ENDBRANCH   1  20
TORSDOF 6
ENDMDL
