MODEL 1
REMARK VINA RESULT:      -8.0      0.000      0.000
REMARK  Name = 
REMARK  10 active torsions:
REMARK  status: ('A' for Active; 'I' for Inactive)
REMARK    1  A    between atoms: C_1  and  C_2
REMARK    2  A    between atoms: C_2  and  C_3
REMARK    3  A    between atoms: C_4  and  C_5
REMARK    4  A    between atoms: C_5  and  C_7
REMARK    5  A    between atoms: C_11  and  O_12
REMARK    6  A    between atoms: C_20  and  S_23
REMARK    7  A    between atoms: S_23  and  N_26
REMARK    8  A    between atoms: N_26  and  C_27
REMARK    9  A    between atoms: C_30  and  S_33
REMARK   10  A    between atoms: S_33  and  N_34
REMARK                            x       y       z     vdW  Elec       q    Type
REMARK                         _______ _______ _______ _____ _____    ______ ____
ROOT
ATOM      1  C   UNL     1       7.176  -4.536  23.067  0.00  0.00    +0.117 A 
ATOM      2  O   UNL     1       6.918  -3.410  22.345  0.00  0.00    -0.459 OA
ATOM      3  C   UNL     1       7.077  -2.346  23.170  0.00  0.00    +0.138 A 
ATOM      4  C   UNL     1       6.865  -1.016  22.813  0.00  0.00    +0.075 A 
ATOM      5  C   UNL     1       7.167  -0.069  23.800  0.00  0.00    +0.112 A 
ATOM      6  C   UNL     1       7.654  -0.445  25.059  0.00  0.00    +0.029 A 
ATOM      7  C   UNL     1       7.834  -1.801  25.381  0.00  0.00    +0.014 A 
ATOM      8  C   UNL     1       7.497  -2.774  24.421  0.00  0.00    +0.031 A 
ATOM      9  C   UNL     1       7.444  -4.205  24.390  0.00  0.00    +0.071 A 
ENDROOT
BRANCH   5  10
ATOM     10  S   UNL     1       6.893   1.663  23.470  0.00  0.00    +0.072 S 
ATOM     11  O   UNL     1       5.522   1.947  23.846  0.00  0.00    -0.150 OA
ATOM     12  O   UNL     1       7.384   1.951  22.141  0.00  0.00    -0.150 OA
BRANCH  10  13
ATOM     13  N   UNL     1       7.869   2.428  24.628  0.00  0.00    -0.216 N 
ATOM     14  H   UNL     1       8.009   1.840  25.447  0.00  0.00    +0.174 HD
BRANCH  13  15
ATOM     15  C   UNL     1       8.993   3.155  24.148  0.00  0.00    +0.048 A 
ATOM     16  C   UNL     1       8.990   4.551  24.175  0.00  0.00    +0.026 A 
ATOM     17  C   UNL     1      10.155   5.252  23.858  0.00  0.00    +0.030 A 
ATOM     18  C   UNL     1      11.303   4.547  23.484  0.00  0.00    +0.105 A 
ATOM     19  C   UNL     1      11.299   3.150  23.430  0.00  0.00    +0.030 A 
ATOM     20  C   UNL     1      10.140   2.455  23.773  0.00  0.00    +0.026 A 
BRANCH  18  21
ATOM     21  S   UNL     1      12.806   5.422  23.162  0.00  0.00    +0.056 S 
ATOM     22  O   UNL     1      12.656   6.194  21.952  0.00  0.00    -0.153 OA
ATOM     23  O   UNL     1      13.926   4.539  23.388  0.00  0.00    -0.153 OA
BRANCH  21  24
ATOM     24  N   UNL     1      12.830   6.529  24.421  0.00  0.00    -0.204 NA
ATOM     25  H   UNL     1      12.713   7.474  24.051  0.00  0.00    +0.144 HD
ATOM     26  H   UNL     1      13.678   6.405  24.973  0.00  0.00    +0.144 HD
ENDBRANCH  21  24
ENDBRANCH  18  21
ENDBRANCH  13  15
ENDBRANCH  10  13
ENDBRANCH   5  10
BRANCH   1  28
ATOM     27  C   UNL     1       6.397  -5.744  20.987  0.00  0.00    +0.012 C 
ATOM     28  C   UNL     1       7.135  -5.829  22.316  0.00  0.00    +0.072 C 
ENDBRANCH   1  28
BRANCH   9  29
ATOM     29  C   UNL     1       7.654  -5.169  25.461  0.00  0.00    +0.197 C 
ATOM     30  O   UNL     1       8.765  -5.642  25.693  0.00  0.00    -0.287 OA
BRANCH  29  31
ATOM     31  C   UNL     1       6.496  -5.662  26.274  0.00  0.00    +0.025 A 
ATOM     32  C   UNL     1       5.355  -6.240  25.698  0.00  0.00    +0.030 A 
ATOM     33  C   UNL     1       4.342  -6.766  26.510  0.00  0.00    +0.061 A 
ATOM     34 BR   UNL     1       2.801  -7.486  25.667  0.00  0.00    -0.046 Br
ATOM     35  C   UNL     1       4.481  -6.771  27.899  0.00  0.00    +0.145 A 
ATOM     36  C   UNL     1       5.615  -6.194  28.476  0.00  0.00    +0.061 A 
ATOM     37 BR   UNL     1       5.846  -6.188  30.358  0.00  0.00    -0.046 Br
ATOM     38  C   UNL     1       6.609  -5.629  27.673  0.00  0.00    +0.030 A 
BRANCH  35  39
ATOM     39  O   UNL     1       3.519  -7.364  28.671  0.00  0.00    -0.505 OA
ATOM     40  H   UNL     1       3.894  -7.527  29.556  0.00  0.00    +0.292 HD
ENDBRANCH  35  39
ENDBRANCH  29  31
ENDBRANCH   9  29
TORSDOF 9
ENDMDL
MODEL 2
REMARK VINA RESULT:      -7.8      5.300      9.966
REMARK  Name = 
REMARK  10 active torsions:
REMARK  status: ('A' for Active; 'I' for Inactive)
REMARK    1  A    between atoms: C_1  and  C_2
REMARK    2  A    between atoms: C_2  and  C_3
REMARK    3  A    between atoms: C_4  and  C_5
REMARK    4  A    between atoms: C_5  and  C_7
REMARK    5  A    between atoms: C_11  and  O_12
REMARK    6  A    between atoms: C_20  and  S_23
REMARK    7  A    between atoms: S_23  and  N_26
REMARK    8  A    between atoms: N_26  and  C_27
REMARK    9  A    between atoms: C_30  and  S_33
REMARK   10  A    between atoms: S_33  and  N_34
REMARK                            x       y       z     vdW  Elec       q    Type
REMARK                         _______ _______ _______ _____ _____    ______ ____
ROOT
ATOM      1  C   UNL     1       9.416  -0.391  24.438  0.00  0.00    +0.117 A 
ATOM      2  O   UNL     1       9.595  -1.629  23.899  0.00  0.00    -0.459 OA
ATOM      3  C   UNL     1       8.375  -2.102  23.540  0.00  0.00    +0.138 A 
ATOM      4  C   UNL     1       8.132  -3.356  22.985  0.00  0.00    +0.075 A 
ATOM      5  C   UNL     1       6.806  -3.608  22.616  0.00  0.00    +0.112 A 
ATOM      6  C   UNL     1       5.796  -2.652  22.792  0.00  0.00    +0.029 A 
ATOM      7  C   UNL     1       6.085  -1.406  23.374  0.00  0.00    +0.014 A 
ATOM      8  C   UNL     1       7.402  -1.145  23.794  0.00  0.00    +0.031 A 
ATOM      9  C   UNL     1       8.063  -0.081  24.489  0.00  0.00    +0.071 A 
ENDROOT
BRANCH   5  10
ATOM     10  S   UNL     1       6.370  -5.199  21.935  0.00  0.00    +0.072 S 
ATOM     11  O   UNL     1       7.418  -6.120  22.326  0.00  0.00    -0.150 OA
ATOM     12  O   UNL     1       6.010  -5.011  20.548  0.00  0.00    -0.150 OA
BRANCH  10  13
ATOM     13  N   UNL     1       4.998  -5.633  22.836  0.00  0.00    -0.216 N 
ATOM     14  H   UNL     1       4.370  -6.228  22.299  0.00  0.00    +0.174 HD
BRANCH  13  15
ATOM     15  C   UNL     1       5.200  -5.964  24.203  0.00  0.00    +0.048 A 
ATOM     16  C   UNL     1       6.199  -5.327  24.941  0.00  0.00    +0.026 A 
ATOM     17  C   UNL     1       6.283  -5.536  26.319  0.00  0.00    +0.030 A 
ATOM     18  C   UNL     1       5.386  -6.411  26.939  0.00  0.00    +0.105 A 
ATOM     19  C   UNL     1       4.402  -7.072  26.196  0.00  0.00    +0.030 A 
ATOM     20  C   UNL     1       4.307  -6.838  24.825  0.00  0.00    +0.026 A 
BRANCH  18  21
ATOM     21  S   UNL     1       5.432  -6.619  28.694  0.00  0.00    +0.056 S 
ATOM     22  O   UNL     1       5.291  -5.331  29.329  0.00  0.00    -0.153 OA
ATOM     23  O   UNL     1       6.490  -7.542  29.034  0.00  0.00    -0.153 OA
BRANCH  21  24
ATOM     24  N   UNL     1       3.997  -7.438  28.977  0.00  0.00    -0.204 NA
ATOM     25  H   UNL     1       3.212  -6.890  28.622  0.00  0.00    +0.144 HD
ATOM     26  H   UNL     1       3.922  -7.671  29.967  0.00  0.00    +0.144 HD
ENDBRANCH  21  24
ENDBRANCH  18  21
ENDBRANCH  13  15
ENDBRANCH  10  13
ENDBRANCH   5  10
BRANCH   1  28
ATOM     27  C   UNL     1      10.952   1.559  23.954  0.00  0.00    +0.012 C 
ATOM     28  C   UNL     1      10.658   0.347  24.828  0.00  0.00    +0.072 C 
ENDBRANCH   1  28
BRANCH   9  29
ATOM     29  C   UNL     1       7.507   1.115  25.106  0.00  0.00    +0.197 C 
ATOM     30  O   UNL     1       7.367   1.205  26.324  0.00  0.00    -0.287 OA
BRANCH  29  31
ATOM     31  C   UNL     1       7.026   2.252  24.257  0.00  0.00    +0.025 A 
ATOM     32  C   UNL     1       5.731   2.304  23.721  0.00  0.00    +0.030 A 
ATOM     33  C   UNL     1       5.305   3.432  23.009  0.00  0.00    +0.061 A 
ATOM     34 BR   UNL     1       3.558   3.416  22.265  0.00  0.00    -0.046 Br
ATOM     35  C   UNL     1       6.144   4.539  22.872  0.00  0.00    +0.145 A 
ATOM     36  C   UNL     1       7.435   4.490  23.402  0.00  0.00    +0.061 A 
ATOM     37 BR   UNL     1       8.602   5.976  23.246  0.00  0.00    -0.046 Br
ATOM     38  C   UNL     1       7.881   3.350  24.077  0.00  0.00    +0.030 A 
BRANCH  35  39
ATOM     39  O   UNL     1       5.679   5.664  22.245  0.00  0.00    -0.505 OA
ATOM     40  H   UNL     1       4.771   5.834  22.555  0.00  0.00    +0.292 HD
ENDBRANCH  35  39
ENDBRANCH  29  31
ENDBRANCH   9  29
TORSDOF 9
ENDMDL
MODEL 3
REMARK VINA RESULT:      -7.7      5.368     10.093
REMARK  Name = 
REMARK  10 active torsions:
REMARK  status: ('A' for Active; 'I' for Inactive)
REMARK    1  A    between atoms: C_1  and  C_2
REMARK    2  A    between atoms: C_2  and  C_3
REMARK    3  A    between atoms: C_4  and  C_5
REMARK    4  A    between atoms: C_5  and  C_7
REMARK    5  A    between atoms: C_11  and  O_12
REMARK    6  A    between atoms: C_20  and  S_23
REMARK    7  A    between atoms: S_23  and  N_26
REMARK    8  A    between atoms: N_26  and  C_27
REMARK    9  A    between atoms: C_30  and  S_33
REMARK   10  A    between atoms: S_33  and  N_34
REMARK                            x       y       z     vdW  Elec       q    Type
REMARK                         _______ _______ _______ _____ _____    ______ ____
ROOT
ATOM      1  C   UNL     1       9.075  -0.262  23.249  0.00  0.00    +0.117 A 
ATOM      2  O   UNL     1       8.899  -1.408  22.533  0.00  0.00    -0.459 OA
ATOM      3  C   UNL     1       7.727  -1.964  22.928  0.00  0.00    +0.138 A 
ATOM      4  C   UNL     1       7.211  -3.168  22.456  0.00  0.00    +0.075 A 
ATOM      5  C   UNL     1       5.945  -3.517  22.941  0.00  0.00    +0.112 A 
ATOM      6  C   UNL     1       5.248  -2.698  23.840  0.00  0.00    +0.029 A 
ATOM      7  C   UNL     1       5.816  -1.500  24.304  0.00  0.00    +0.014 A 
ATOM      8  C   UNL     1       7.106  -1.149  23.865  0.00  0.00    +0.031 A 
ATOM      9  C   UNL     1       8.040  -0.104  24.163  0.00  0.00    +0.071 A 
ENDROOT
BRANCH   5  10
ATOM     10  S   UNL     1       5.205  -5.061  22.437  0.00  0.00    +0.072 S 
ATOM     11  O   UNL     1       5.673  -5.328  21.092  0.00  0.00    -0.150 OA
ATOM     12  O   UNL     1       3.794  -5.005  22.746  0.00  0.00    -0.150 OA
BRANCH  10  13
ATOM     13  N   UNL     1       5.973  -6.193  23.440  0.00  0.00    -0.216 N 
ATOM     14  H   UNL     1       6.940  -6.347  23.160  0.00  0.00    +0.174 HD
BRANCH  13  15
ATOM     15  C   UNL     1       5.703  -6.113  24.833  0.00  0.00    +0.048 A 
ATOM     16  C   UNL     1       4.585  -6.754  25.371  0.00  0.00    +0.026 A 
ATOM     17  C   UNL     1       4.418  -6.809  26.756  0.00  0.00    +0.030 A 
ATOM     18  C   UNL     1       5.355  -6.190  27.589  0.00  0.00    +0.105 A 
ATOM     19  C   UNL     1       6.460  -5.523  27.050  0.00  0.00    +0.030 A 
ATOM     20  C   UNL     1       6.635  -5.494  25.667  0.00  0.00    +0.026 A 
BRANCH  18  21
ATOM     21  S   UNL     1       5.195  -6.325  29.345  0.00  0.00    +0.056 S 
ATOM     22  O   UNL     1       4.660  -5.092  29.869  0.00  0.00    -0.153 OA
ATOM     23  O   UNL     1       6.382  -6.948  29.881  0.00  0.00    -0.153 OA
BRANCH  21  24
ATOM     24  N   UNL     1       3.972  -7.463  29.487  0.00  0.00    -0.204 NA
ATOM     25  H   UNL     1       4.187  -8.105  30.252  0.00  0.00    +0.144 HD
ATOM     26  H   UNL     1       3.827  -7.925  28.590  0.00  0.00    +0.144 HD
ENDBRANCH  21  24
ENDBRANCH  18  21
ENDBRANCH  13  15
ENDBRANCH  10  13
ENDBRANCH   5  10
BRANCH   1  28
ATOM     27  C   UNL     1      10.005   1.655  21.888  0.00  0.00    +0.012 C 
ATOM     28  C   UNL     1      10.279   0.556  22.906  0.00  0.00    +0.072 C 
ENDBRANCH   1  28
BRANCH   9  29
ATOM     29  C   UNL     1       7.968   0.952  25.163  0.00  0.00    +0.197 C 
ATOM     30  O   UNL     1       8.053   0.707  26.365  0.00  0.00    -0.287 OA
BRANCH  29  31
ATOM     31  C   UNL     1       7.720   2.371  24.750  0.00  0.00    +0.025 A 
ATOM     32  C   UNL     1       8.711   3.363  24.809  0.00  0.00    +0.030 A 
ATOM     33  C   UNL     1       8.450   4.652  24.327  0.00  0.00    +0.061 A 
ATOM     34 BR   UNL     1       9.817   5.960  24.484  0.00  0.00    -0.046 Br
ATOM     35  C   UNL     1       7.223   4.949  23.733  0.00  0.00    +0.145 A 
ATOM     36  C   UNL     1       6.233   3.965  23.677  0.00  0.00    +0.061 A 
ATOM     37 BR   UNL     1       4.555   4.326  22.870  0.00  0.00    -0.046 Br
ATOM     38  C   UNL     1       6.472   2.689  24.194  0.00  0.00    +0.030 A 
BRANCH  35  39
ATOM     39  O   UNL     1       7.017   6.190  23.194  0.00  0.00    -0.505 OA
ATOM     40  H   UNL     1       7.882   6.555  22.929  0.00  0.00    +0.292 HD
ENDBRANCH  35  39
ENDBRANCH  29  31
ENDBRANCH   9  29
TORSDOF 9
ENDMDL
MODEL 4
REMARK VINA RESULT:      -7.6      4.648     10.061
REMARK  Name = 
REMARK  10 active torsions:
REMARK  status: ('A' for Active; 'I' for Inactive)
REMARK    1  A    between atoms: C_1  and  C_2
REMARK    2  A    between atoms: C_2  and  C_3
REMARK    3  A    between atoms: C_4  and  C_5
REMARK    4  A    between atoms: C_5  and  C_7
REMARK    5  A    between atoms: C_11  and  O_12
REMARK    6  A    between atoms: C_20  and  S_23
REMARK    7  A    between atoms: S_23  and  N_26
REMARK    8  A    between atoms: N_26  and  C_27
REMARK    9  A    between atoms: C_30  and  S_33
REMARK   10  A    between atoms: S_33  and  N_34
REMARK                            x       y       z     vdW  Elec       q    Type
REMARK                         _______ _______ _______ _____ _____    ______ ____
ROOT
ATOM      1  C   UNL     1      10.206   4.488  23.882  0.00  0.00    +0.117 A 
ATOM      2  O   UNL     1      10.771   3.413  23.264  0.00  0.00    -0.459 OA
ATOM      3  C   UNL     1       9.943   2.354  23.441  0.00  0.00    +0.138 A 
ATOM      4  C   UNL     1      10.187   1.060  22.989  0.00  0.00    +0.075 A 
ATOM      5  C   UNL     1       9.159   0.136  23.212  0.00  0.00    +0.112 A 
ATOM      6  C   UNL     1       7.963   0.501  23.844  0.00  0.00    +0.029 A 
ATOM      7  C   UNL     1       7.768   1.815  24.300  0.00  0.00    +0.014 A 
ATOM      8  C   UNL     1       8.804   2.752  24.128  0.00  0.00    +0.031 A 
ATOM      9  C   UNL     1       9.032   4.111  24.520  0.00  0.00    +0.071 A 
ENDROOT
BRANCH   5  10
ATOM     10  S   UNL     1       9.381  -1.563  22.714  0.00  0.00    +0.072 S 
ATOM     11  O   UNL     1      10.552  -1.598  21.861  0.00  0.00    -0.150 OA
ATOM     12  O   UNL     1       8.105  -2.070  22.262  0.00  0.00    -0.150 OA
BRANCH  10  13
ATOM     13  N   UNL     1       9.827  -2.327  24.162  0.00  0.00    -0.216 N 
ATOM     14  H   UNL     1      10.407  -1.723  24.741  0.00  0.00    +0.174 HD
BRANCH  13  15
ATOM     15  C   UNL     1       8.832  -3.099  24.820  0.00  0.00    +0.048 A 
ATOM     16  C   UNL     1       8.630  -4.435  24.467  0.00  0.00    +0.026 A 
ATOM     17  C   UNL     1       7.770  -5.230  25.226  0.00  0.00    +0.030 A 
ATOM     18  C   UNL     1       7.092  -4.669  26.313  0.00  0.00    +0.105 A 
ATOM     19  C   UNL     1       7.271  -3.324  26.651  0.00  0.00    +0.030 A 
ATOM     20  C   UNL     1       8.152  -2.542  25.904  0.00  0.00    +0.026 A 
BRANCH  18  21
ATOM     21  S   UNL     1       6.064  -5.688  27.329  0.00  0.00    +0.056 S 
ATOM     22  O   UNL     1       5.530  -6.767  26.533  0.00  0.00    -0.153 OA
ATOM     23  O   UNL     1       5.233  -4.846  28.157  0.00  0.00    -0.153 OA
BRANCH  21  24
ATOM     24  N   UNL     1       7.190  -6.382  28.360  0.00  0.00    -0.204 NA
ATOM     25  H   UNL     1       6.962  -6.146  29.327  0.00  0.00    +0.144 HD
ATOM     26  H   UNL     1       8.130  -6.105  28.079  0.00  0.00    +0.144 HD
ENDBRANCH  21  24
ENDBRANCH  18  21
ENDBRANCH  13  15
ENDBRANCH  10  13
ENDBRANCH   5  10
BRANCH   1  28
ATOM     27  C   UNL     1      12.445   5.653  23.715  0.00  0.00    +0.012 C 
ATOM     28  C   UNL     1      10.928   5.790  23.736  0.00  0.00    +0.072 C 
ENDBRANCH   1  28
BRANCH   9  29
ATOM     29  C   UNL     1       8.229   4.983  25.367  0.00  0.00    +0.197 C 
ATOM     30  O   UNL     1       8.689   5.488  26.389  0.00  0.00    -0.287 OA
BRANCH  29  31
ATOM     31  C   UNL     1       6.788   5.236  25.045  0.00  0.00    +0.025 A 
ATOM     32  C   UNL     1       6.378   5.952  23.910  0.00  0.00    +0.030 A 
ATOM     33  C   UNL     1       5.016   6.082  23.610  0.00  0.00    +0.061 A 
ATOM     34 BR   UNL     1       4.528   7.108  22.090  0.00  0.00    -0.046 Br
ATOM     35  C   UNL     1       4.055   5.454  24.404  0.00  0.00    +0.145 A 
ATOM     36  C   UNL     1       4.460   4.743  25.536  0.00  0.00    +0.061 A 
ATOM     37 BR   UNL     1       3.186   3.869  26.635  0.00  0.00    -0.046 Br
ATOM     38  C   UNL     1       5.814   4.645  25.865  0.00  0.00    +0.030 A 
BRANCH  35  39
ATOM     39  O   UNL     1       2.735   5.525  24.047  0.00  0.00    -0.505 OA
ATOM     40  H   UNL     1       2.521   4.738  23.513  0.00  0.00    +0.292 HD
ENDBRANCH  35  39
ENDBRANCH  29  31
ENDBRANCH   9  29
TORSDOF 9
ENDMDL
MODEL 5
REMARK VINA RESULT:      -7.5      4.591      9.956
REMARK  Name = 
REMARK  10 active torsions:
REMARK  status: ('A' for Active; 'I' for Inactive)
REMARK    1  A    between atoms: C_1  and  C_2
REMARK    2  A    between atoms: C_2  and  C_3
REMARK    3  A    between atoms: C_4  and  C_5
REMARK    4  A    between atoms: C_5  and  C_7
REMARK    5  A    between atoms: C_11  and  O_12
REMARK    6  A    between atoms: C_20  and  S_23
REMARK    7  A    between atoms: S_23  and  N_26
REMARK    8  A    between atoms: N_26  and  C_27
REMARK    9  A    between atoms: C_30  and  S_33
REMARK   10  A    between atoms: S_33  and  N_34
REMARK                            x       y       z     vdW  Elec       q    Type
REMARK                         _______ _______ _______ _____ _____    ______ ____
ROOT
ATOM      1  C   UNL     1       9.453   4.660  23.709  0.00  0.00    +0.117 A 
ATOM      2  O   UNL     1      10.199   3.572  24.049  0.00  0.00    -0.459 OA
ATOM      3  C   UNL     1       9.604   2.479  23.511  0.00  0.00    +0.138 A 
ATOM      4  C   UNL     1      10.045   1.167  23.666  0.00  0.00    +0.075 A 
ATOM      5  C   UNL     1       9.326   0.198  22.957  0.00  0.00    +0.112 A 
ATOM      6  C   UNL     1       8.237   0.537  22.142  0.00  0.00    +0.029 A 
ATOM      7  C   UNL     1       7.816   1.873  22.030  0.00  0.00    +0.014 A 
ATOM      8  C   UNL     1       8.496   2.860  22.768  0.00  0.00    +0.031 A 
ATOM      9  C   UNL     1       8.327   4.264  22.997  0.00  0.00    +0.071 A 
ENDROOT
BRANCH   5  10
ATOM     10  S   UNL     1       9.774  -1.522  23.115  0.00  0.00    +0.072 S 
ATOM     11  O   UNL     1       9.944  -1.779  24.531  0.00  0.00    -0.150 OA
ATOM     12  O   UNL     1      10.829  -1.801  22.167  0.00  0.00    -0.150 OA
BRANCH  10  13
ATOM     13  N   UNL     1       8.354  -2.327  22.655  0.00  0.00    -0.216 N 
ATOM     14  H   UNL     1       8.423  -2.698  21.709  0.00  0.00    +0.174 HD
BRANCH  13  15
ATOM     15  C   UNL     1       7.729  -3.148  23.633  0.00  0.00    +0.048 A 
ATOM     16  C   UNL     1       8.139  -4.472  23.805  0.00  0.00    +0.026 A 
ATOM     17  C   UNL     1       7.638  -5.219  24.873  0.00  0.00    +0.030 A 
ATOM     18  C   UNL     1       6.704  -4.642  25.739  0.00  0.00    +0.105 A 
ATOM     19  C   UNL     1       6.271  -3.326  25.551  0.00  0.00    +0.030 A 
ATOM     20  C   UNL     1       6.795  -2.577  24.497  0.00  0.00    +0.026 A 
BRANCH  18  21
ATOM     21  S   UNL     1       6.126  -5.552  27.141  0.00  0.00    +0.056 S 
ATOM     22  O   UNL     1       5.492  -6.767  26.691  0.00  0.00    -0.153 OA
ATOM     23  O   UNL     1       5.495  -4.642  28.068  0.00  0.00    -0.153 OA
BRANCH  21  24
ATOM     24  N   UNL     1       7.568  -6.017  27.860  0.00  0.00    -0.204 NA
ATOM     25  H   UNL     1       7.863  -5.306  28.531  0.00  0.00    +0.144 HD
ATOM     26  H   UNL     1       8.262  -6.217  27.140  0.00  0.00    +0.144 HD
ENDBRANCH  21  24
ENDBRANCH  18  21
ENDBRANCH  13  15
ENDBRANCH  10  13
ENDBRANCH   5  10
BRANCH   1  28
ATOM     27  C   UNL     1       9.437   6.466  25.478  0.00  0.00    +0.012 C 
ATOM     28  C   UNL     1       9.985   5.990  24.139  0.00  0.00    +0.072 C 
ENDBRANCH   1  28
BRANCH   9  29
ATOM     29  C   UNL     1       7.257   5.155  22.572  0.00  0.00    +0.197 C 
ATOM     30  O   UNL     1       7.446   6.033  21.731  0.00  0.00    -0.287 OA
BRANCH  29  31
ATOM     31  C   UNL     1       5.901   5.067  23.203  0.00  0.00    +0.025 A 
ATOM     32  C   UNL     1       4.830   4.381  22.610  0.00  0.00    +0.030 A 
ATOM     33  C   UNL     1       3.611   4.254  23.286  0.00  0.00    +0.061 A 
ATOM     34 BR   UNL     1       2.187   3.360  22.406  0.00  0.00    -0.046 Br
ATOM     35  C   UNL     1       3.464   4.760  24.579  0.00  0.00    +0.145 A 
ATOM     36  C   UNL     1       4.527   5.446  25.171  0.00  0.00    +0.061 A 
ATOM     37 BR   UNL     1       4.371   6.139  26.929  0.00  0.00    -0.046 Br
ATOM     38  C   UNL     1       5.733   5.613  24.485  0.00  0.00    +0.030 A 
BRANCH  35  39
ATOM     39  O   UNL     1       2.291   4.554  25.255  0.00  0.00    -0.505 OA
ATOM     40  H   UNL     1       1.756   5.367  25.195  0.00  0.00    +0.292 HD
ENDBRANCH  35  39
ENDBRANCH  29  31
ENDBRANCH   9  29
TORSDOF 9
ENDMDL
MODEL 6
REMARK VINA RESULT:      -7.5      4.713     10.377
REMARK  Name = 
REMARK  10 active torsions:
REMARK  status: ('A' for Active; 'I' for Inactive)
REMARK    1  A    between atoms: C_1  and  C_2
REMARK    2  A    between atoms: C_2  and  C_3
REMARK    3  A    between atoms: C_4  and  C_5
REMARK    4  A    between atoms: C_5  and  C_7
REMARK    5  A    between atoms: C_11  and  O_12
REMARK    6  A    between atoms: C_20  and  S_23
REMARK    7  A    between atoms: S_23  and  N_26
REMARK    8  A    between atoms: N_26  and  C_27
REMARK    9  A    between atoms: C_30  and  S_33
REMARK   10  A    between atoms: S_33  and  N_34
REMARK                            x       y       z     vdW  Elec       q    Type
REMARK                         _______ _______ _______ _____ _____    ______ ____
ROOT
ATOM      1  C   UNL     1      10.263   4.398  23.610  0.00  0.00    +0.117 A 
ATOM      2  O   UNL     1      10.929   3.214  23.711  0.00  0.00    -0.459 OA
ATOM      3  C   UNL     1      10.049   2.221  23.433  0.00  0.00    +0.138 A 
ATOM      4  C   UNL     1      10.339   0.859  23.468  0.00  0.00    +0.075 A 
ATOM      5  C   UNL     1       9.301   0.008  23.067  0.00  0.00    +0.112 A 
ATOM      6  C   UNL     1       8.057   0.505  22.654  0.00  0.00    +0.029 A 
ATOM      7  C   UNL     1       7.804   1.887  22.653  0.00  0.00    +0.014 A 
ATOM      8  C   UNL     1       8.816   2.760  23.093  0.00  0.00    +0.031 A 
ATOM      9  C   UNL     1       8.922   4.170  23.327  0.00  0.00    +0.071 A 
ENDROOT
BRANCH   5  10
ATOM     10  S   UNL     1       9.545  -1.759  23.113  0.00  0.00    +0.072 S 
ATOM     11  O   UNL     1       9.155  -2.198  24.438  0.00  0.00    -0.150 OA
ATOM     12  O   UNL     1      10.858  -2.046  22.581  0.00  0.00    -0.150 OA
BRANCH  10  13
ATOM     13  N   UNL     1       8.351  -2.333  22.053  0.00  0.00    -0.216 N 
ATOM     14  H   UNL     1       8.753  -2.651  21.173  0.00  0.00    +0.174 HD
BRANCH  13  15
ATOM     15  C   UNL     1       7.310  -3.121  22.616  0.00  0.00    +0.048 A 
ATOM     16  C   UNL     1       6.080  -2.540  22.930  0.00  0.00    +0.026 A 
ATOM     17  C   UNL     1       5.013  -3.348  23.326  0.00  0.00    +0.030 A 
ATOM     18  C   UNL     1       5.200  -4.730  23.438  0.00  0.00    +0.105 A 
ATOM     19  C   UNL     1       6.439  -5.310  23.151  0.00  0.00    +0.030 A 
ATOM     20  C   UNL     1       7.493  -4.500  22.731  0.00  0.00    +0.026 A 
BRANCH  18  21
ATOM     21  S   UNL     1       3.832  -5.769  23.859  0.00  0.00    +0.056 S 
ATOM     22  O   UNL     1       2.837  -5.690  22.817  0.00  0.00    -0.153 OA
ATOM     23  O   UNL     1       3.513  -5.589  25.255  0.00  0.00    -0.153 OA
BRANCH  21  24
ATOM     24  N   UNL     1       4.516  -7.295  23.735  0.00  0.00    -0.204 NA
ATOM     25  H   UNL     1       4.653  -7.532  22.751  0.00  0.00    +0.144 HD
ATOM     26  H   UNL     1       3.946  -7.970  24.245  0.00  0.00    +0.144 HD
ENDBRANCH  21  24
ENDBRANCH  18  21
ENDBRANCH  13  15
ENDBRANCH  10  13
ENDBRANCH   5  10
BRANCH   1  28
ATOM     27  C   UNL     1      12.531   5.488  23.362  0.00  0.00    +0.012 C 
ATOM     28  C   UNL     1      11.079   5.636  23.801  0.00  0.00    +0.072 C 
ENDBRANCH   1  28
BRANCH   9  29
ATOM     29  C   UNL     1       7.899   5.204  23.260  0.00  0.00    +0.197 C 
ATOM     30  O   UNL     1       7.867   6.019  22.339  0.00  0.00    -0.287 OA
BRANCH  29  31
ATOM     31  C   UNL     1       6.889   5.344  24.358  0.00  0.00    +0.025 A 
ATOM     32  C   UNL     1       7.181   5.053  25.699  0.00  0.00    +0.030 A 
ATOM     33  C   UNL     1       6.227   5.287  26.697  0.00  0.00    +0.061 A 
ATOM     34 BR   UNL     1       6.667   4.824  28.484  0.00  0.00    -0.046 Br
ATOM     35  C   UNL     1       4.996   5.862  26.377  0.00  0.00    +0.145 A 
ATOM     36  C   UNL     1       4.701   6.149  25.041  0.00  0.00    +0.061 A 
ATOM     37 BR   UNL     1       3.044   6.939  24.566  0.00  0.00    -0.046 Br
ATOM     38  C   UNL     1       5.633   5.879  24.036  0.00  0.00    +0.030 A 
BRANCH  35  39
ATOM     39  O   UNL     1       4.109   6.159  27.376  0.00  0.00    -0.505 OA
ATOM     40  H   UNL     1       4.430   6.952  27.844  0.00  0.00    +0.292 HD
ENDBRANCH  35  39
ENDBRANCH  29  31
ENDBRANCH   9  29
TORSDOF 9
ENDMDL
MODEL 7
REMARK VINA RESULT:      -7.3      2.810      4.759
REMARK  Name = 
REMARK  10 active torsions:
REMARK  status: ('A' for Active; 'I' for Inactive)
REMARK    1  A    between atoms: C_1  and  C_2
REMARK    2  A    between atoms: C_2  and  C_3
REMARK    3  A    between atoms: C_4  and  C_5
REMARK    4  A    between atoms: C_5  and  C_7
REMARK    5  A    between atoms: C_11  and  O_12
REMARK    6  A    between atoms: C_20  and  S_23
REMARK    7  A    between atoms: S_23  and  N_26
REMARK    8  A    between atoms: N_26  and  C_27
REMARK    9  A    between atoms: C_30  and  S_33
REMARK   10  A    between atoms: S_33  and  N_34
REMARK                            x       y       z     vdW  Elec       q    Type
REMARK                         _______ _______ _______ _____ _____    ______ ____
ROOT
ATOM      1  C   UNL     1       7.641  -4.406  22.995  0.00  0.00    +0.117 A 
ATOM      2  O   UNL     1       7.935  -3.342  22.196  0.00  0.00    -0.459 OA
ATOM      3  C   UNL     1       8.411  -2.350  22.989  0.00  0.00    +0.138 A 
ATOM      4  C   UNL     1       8.788  -1.084  22.551  0.00  0.00    +0.075 A 
ATOM      5  C   UNL     1       9.327  -0.239  23.529  0.00  0.00    +0.112 A 
ATOM      6  C   UNL     1       9.478  -0.654  24.859  0.00  0.00    +0.029 A 
ATOM      7  C   UNL     1       9.066  -1.935  25.260  0.00  0.00    +0.014 A 
ATOM      8  C   UNL     1       8.480  -2.787  24.305  0.00  0.00    +0.031 A 
ATOM      9  C   UNL     1       7.866  -4.081  24.327  0.00  0.00    +0.071 A 
ENDROOT
BRANCH   5  10
ATOM     10  S   UNL     1       9.804   1.423  23.090  0.00  0.00    +0.072 S 
ATOM     11  O   UNL     1      10.193   1.390  21.694  0.00  0.00    -0.150 OA
ATOM     12  O   UNL     1      10.701   1.918  24.110  0.00  0.00    -0.150 OA
BRANCH  10  13
ATOM     13  N   UNL     1       8.334   2.267  23.151  0.00  0.00    -0.216 N 
ATOM     14  H   UNL     1       7.912   2.353  22.229  0.00  0.00    +0.174 HD
BRANCH  13  15
ATOM     15  C   UNL     1       7.466   1.979  24.240  0.00  0.00    +0.048 A 
ATOM     16  C   UNL     1       7.726   2.508  25.505  0.00  0.00    +0.026 A 
ATOM     17  C   UNL     1       6.785   2.357  26.526  0.00  0.00    +0.030 A 
ATOM     18  C   UNL     1       5.607   1.645  26.277  0.00  0.00    +0.105 A 
ATOM     19  C   UNL     1       5.359   1.091  25.018  0.00  0.00    +0.030 A 
ATOM     20  C   UNL     1       6.291   1.268  23.996  0.00  0.00    +0.026 A 
BRANCH  18  21
ATOM     21  S   UNL     1       4.374   1.520  27.539  0.00  0.00    +0.056 S 
ATOM     22  O   UNL     1       3.856   2.835  27.829  0.00  0.00    -0.153 OA
ATOM     23  O   UNL     1       4.841   0.623  28.569  0.00  0.00    -0.153 OA
BRANCH  21  24
ATOM     24  N   UNL     1       3.150   0.703  26.736  0.00  0.00    -0.204 NA
ATOM     25  H   UNL     1       2.748  -0.006  27.351  0.00  0.00    +0.144 HD
ATOM     26  H   UNL     1       3.505   0.330  25.855  0.00  0.00    +0.144 HD
ENDBRANCH  21  24
ENDBRANCH  18  21
ENDBRANCH  13  15
ENDBRANCH  10  13
ENDBRANCH   5  10
BRANCH   1  28
ATOM     27  C   UNL     1       5.711  -5.600  21.879  0.00  0.00    +0.012 C 
ATOM     28  C   UNL     1       7.174  -5.646  22.302  0.00  0.00    +0.072 C 
ENDBRANCH   1  28
BRANCH   9  29
ATOM     29  C   UNL     1       7.552  -4.944  25.457  0.00  0.00    +0.197 C 
ATOM     30  O   UNL     1       8.404  -5.667  25.971  0.00  0.00    -0.287 OA
BRANCH  29  31
ATOM     31  C   UNL     1       6.152  -5.022  25.985  0.00  0.00    +0.025 A 
ATOM     32  C   UNL     1       5.601  -4.043  26.825  0.00  0.00    +0.030 A 
ATOM     33  C   UNL     1       4.259  -4.120  27.217  0.00  0.00    +0.061 A 
ATOM     34 BR   UNL     1       3.591  -2.791  28.396  0.00  0.00    -0.046 Br
ATOM     35  C   UNL     1       3.440  -5.141  26.732  0.00  0.00    +0.145 A 
ATOM     36  C   UNL     1       3.986  -6.120  25.898  0.00  0.00    +0.061 A 
ATOM     37 BR   UNL     1       2.904  -7.517  25.211  0.00  0.00    -0.046 Br
ATOM     38  C   UNL     1       5.335  -6.072  25.538  0.00  0.00    +0.030 A 
BRANCH  35  39
ATOM     39  O   UNL     1       2.111  -5.152  27.060  0.00  0.00    -0.505 OA
ATOM     40  H   UNL     1       1.751  -4.259  26.909  0.00  0.00    +0.292 HD
ENDBRANCH  35  39
ENDBRANCH  29  31
ENDBRANCH   9  29
TORSDOF 9
ENDMDL
MODEL 8
REMARK VINA RESULT:      -7.3      4.825     10.635
REMARK  Name = 
REMARK  10 active torsions:
REMARK  status: ('A' for Active; 'I' for Inactive)
REMARK    1  A    between atoms: C_1  and  C_2
REMARK    2  A    between atoms: C_2  and  C_3
REMARK    3  A    between atoms: C_4  and  C_5
REMARK    4  A    between atoms: C_5  and  C_7
REMARK    5  A    between atoms: C_11  and  O_12
REMARK    6  A    between atoms: C_20  and  S_23
REMARK    7  A    between atoms: S_23  and  N_26
REMARK    8  A    between atoms: N_26  and  C_27
REMARK    9  A    between atoms: C_30  and  S_33
REMARK   10  A    between atoms: S_33  and  N_34
REMARK                            x       y       z     vdW  Elec       q    Type
REMARK                         _______ _______ _______ _____ _____    ______ ____
ROOT
ATOM      1  C   UNL     1       9.574   1.147  22.688  0.00  0.00    +0.117 A 
ATOM      2  O   UNL     1      10.131  -0.085  22.855  0.00  0.00    -0.459 OA
ATOM      3  C   UNL     1       9.143  -0.937  23.223  0.00  0.00    +0.138 A 
ATOM      4  C   UNL     1       9.317  -2.286  23.526  0.00  0.00    +0.075 A 
ATOM      5  C   UNL     1       8.146  -3.000  23.806  0.00  0.00    +0.112 A 
ATOM      6  C   UNL     1       6.885  -2.390  23.776  0.00  0.00    +0.029 A 
ATOM      7  C   UNL     1       6.759  -1.022  23.484  0.00  0.00    +0.014 A 
ATOM      8  C   UNL     1       7.925  -0.272  23.242  0.00  0.00    +0.031 A 
ATOM      9  C   UNL     1       8.224   1.110  23.012  0.00  0.00    +0.071 A 
ENDROOT
BRANCH   5  10
ATOM     10  S   UNL     1       8.254  -4.725  24.249  0.00  0.00    +0.072 S 
ATOM     11  O   UNL     1       9.533  -4.908  24.905  0.00  0.00    -0.150 OA
ATOM     12  O   UNL     1       7.880  -5.511  23.095  0.00  0.00    -0.150 OA
BRANCH  10  13
ATOM     13  N   UNL     1       7.075  -4.878  25.460  0.00  0.00    -0.216 N 
ATOM     14  H   UNL     1       6.892  -3.988  25.920  0.00  0.00    +0.174 HD
BRANCH  13  15
ATOM     15  C   UNL     1       5.956  -5.706  25.173  0.00  0.00    +0.048 A 
ATOM     16  C   UNL     1       5.404  -6.513  26.170  0.00  0.00    +0.026 A 
ATOM     17  C   UNL     1       4.210  -7.194  25.928  0.00  0.00    +0.030 A 
ATOM     18  C   UNL     1       3.597  -7.087  24.675  0.00  0.00    +0.105 A 
ATOM     19  C   UNL     1       4.164  -6.302  23.667  0.00  0.00    +0.030 A 
ATOM     20  C   UNL     1       5.343  -5.603  23.924  0.00  0.00    +0.026 A 
BRANCH  18  21
ATOM     21  S   UNL     1       2.043  -7.880  24.387  0.00  0.00    +0.056 S 
ATOM     22  O   UNL     1       0.976  -6.974  24.735  0.00  0.00    -0.153 OA
ATOM     23  O   UNL     1       2.104  -9.236  24.880  0.00  0.00    -0.153 OA
BRANCH  21  24
ATOM     24  N   UNL     1       2.028  -7.998  22.714  0.00  0.00    -0.204 NA
ATOM     25  H   UNL     1       2.612  -8.782  22.420  0.00  0.00    +0.144 HD
ATOM     26  H   UNL     1       2.299  -7.105  22.304  0.00  0.00    +0.144 HD
ENDBRANCH  21  24
ENDBRANCH  18  21
ENDBRANCH  13  15
ENDBRANCH  10  13
ENDBRANCH   5  10
BRANCH   1  28
ATOM     27  C   UNL     1      11.102   3.062  23.312  0.00  0.00    +0.012 C 
ATOM     28  C   UNL     1      10.487   2.226  22.198  0.00  0.00    +0.072 C 
ENDBRANCH   1  28
BRANCH   9  29
ATOM     29  C   UNL     1       7.347   2.272  23.052  0.00  0.00    +0.197 C 
ATOM     30  O   UNL     1       6.568   2.523  22.134  0.00  0.00    -0.287 OA
BRANCH  29  31
ATOM     31  C   UNL     1       7.419   3.237  24.196  0.00  0.00    +0.025 A 
ATOM     32  C   UNL     1       7.085   2.882  25.512  0.00  0.00    +0.030 A 
ATOM     33  C   UNL     1       7.257   3.799  26.557  0.00  0.00    +0.061 A 
ATOM     34 BR   UNL     1       6.737   3.272  28.304  0.00  0.00    -0.046 Br
ATOM     35  C   UNL     1       7.813   5.055  26.310  0.00  0.00    +0.145 A 
ATOM     36  C   UNL     1       8.143   5.413  25.000  0.00  0.00    +0.061 A 
ATOM     37 BR   UNL     1       8.909   7.106  24.625  0.00  0.00    -0.046 Br
ATOM     38  C   UNL     1       7.935   4.518  23.947  0.00  0.00    +0.030 A 
BRANCH  35  39
ATOM     39  O   UNL     1       8.049   5.905  27.356  0.00  0.00    -0.505 OA
ATOM     40  H   UNL     1       7.219   6.373  27.564  0.00  0.00    +0.292 HD
ENDBRANCH  35  39
ENDBRANCH  29  31
ENDBRANCH   9  29
TORSDOF 9
ENDMDL
MODEL 9
REMARK VINA RESULT:      -7.3      5.071      9.153
REMARK  Name = 
REMARK  10 active torsions:
REMARK  status: ('A' for Active; 'I' for Inactive)
REMARK    1  A    between atoms: C_1  and  C_2
REMARK    2  A    between atoms: C_2  and  C_3
REMARK    3  A    between atoms: C_4  and  C_5
REMARK    4  A    between atoms: C_5  and  C_7
REMARK    5  A    between atoms: C_11  and  O_12
REMARK    6  A    between atoms: C_20  and  S_23
REMARK    7  A    between atoms: S_23  and  N_26
REMARK    8  A    between atoms: N_26  and  C_27
REMARK    9  A    between atoms: C_30  and  S_33
REMARK   10  A    between atoms: S_33  and  N_34
REMARK                            x       y       z     vdW  Elec       q    Type
REMARK                         _______ _______ _______ _____ _____    ______ ____
ROOT
ATOM      1  C   UNL     1       8.082  -0.356  23.085  0.00  0.00    +0.117 A 
ATOM      2  O   UNL     1       6.919  -1.066  23.122  0.00  0.00    -0.459 OA
ATOM      3  C   UNL     1       6.424  -0.979  24.381  0.00  0.00    +0.138 A 
ATOM      4  C   UNL     1       5.264  -1.605  24.831  0.00  0.00    +0.075 A 
ATOM      5  C   UNL     1       4.891  -1.315  26.149  0.00  0.00    +0.112 A 
ATOM      6  C   UNL     1       5.642  -0.446  26.954  0.00  0.00    +0.029 A 
ATOM      7  C   UNL     1       6.816   0.148  26.463  0.00  0.00    +0.014 A 
ATOM      8  C   UNL     1       7.235  -0.162  25.155  0.00  0.00    +0.031 A 
ATOM      9  C   UNL     1       8.377   0.145  24.347  0.00  0.00    +0.071 A 
ENDROOT
BRANCH   5  10
ATOM     10  S   UNL     1       3.446  -2.095  26.847  0.00  0.00    +0.072 S 
ATOM     11  O   UNL     1       2.558  -2.391  25.741  0.00  0.00    -0.150 OA
ATOM     12  O   UNL     1       3.007  -1.304  27.974  0.00  0.00    -0.150 OA
BRANCH  10  13
ATOM     13  N   UNL     1       4.044  -3.588  27.385  0.00  0.00    -0.216 N 
ATOM     14  H   UNL     1       3.293  -4.254  27.555  0.00  0.00    +0.174 HD
BRANCH  13  15
ATOM     15  C   UNL     1       5.221  -4.079  26.756  0.00  0.00    +0.048 A 
ATOM     16  C   UNL     1       5.138  -4.739  25.528  0.00  0.00    +0.026 A 
ATOM     17  C   UNL     1       6.306  -5.071  24.839  0.00  0.00    +0.030 A 
ATOM     18  C   UNL     1       7.549  -4.769  25.405  0.00  0.00    +0.105 A 
ATOM     19  C   UNL     1       7.633  -4.133  26.648  0.00  0.00    +0.030 A 
ATOM     20  C   UNL     1       6.462  -3.781  27.318  0.00  0.00    +0.026 A 
BRANCH  18  21
ATOM     21  S   UNL     1       9.031  -5.110  24.504  0.00  0.00    +0.056 S 
ATOM     22  O   UNL     1       9.744  -3.877  24.275  0.00  0.00    -0.153 OA
ATOM     23  O   UNL     1       8.735  -6.045  23.444  0.00  0.00    -0.153 OA
BRANCH  21  24
ATOM     24  N   UNL     1       9.927  -5.964  25.635  0.00  0.00    -0.204 NA
ATOM     25  H   UNL     1       9.336  -6.664  26.084  0.00  0.00    +0.144 HD
ATOM     26  H   UNL     1      10.365  -5.314  26.288  0.00  0.00    +0.144 HD
ENDBRANCH  21  24
ENDBRANCH  18  21
ENDBRANCH  13  15
ENDBRANCH  10  13
ENDBRANCH   5  10
BRANCH   1  28
ATOM     27  C   UNL     1       8.717   1.144  21.151  0.00  0.00    +0.012 C 
ATOM     28  C   UNL     1       8.754  -0.255  21.753  0.00  0.00    +0.072 C 
ENDBRANCH   1  28
BRANCH   9  29
ATOM     29  C   UNL     1       9.599   0.857  24.693  0.00  0.00    +0.197 C 
ATOM     30  O   UNL     1      10.524   0.300  25.282  0.00  0.00    -0.287 OA
BRANCH  29  31
ATOM     31  C   UNL     1       9.735   2.319  24.395  0.00  0.00    +0.025 A 
ATOM     32  C   UNL     1      10.921   2.887  23.907  0.00  0.00    +0.030 A 
ATOM     33  C   UNL     1      10.965   4.244  23.561  0.00  0.00    +0.061 A 
ATOM     34 BR   UNL     1      12.614   4.961  22.956  0.00  0.00    -0.046 Br
ATOM     35  C   UNL     1       9.816   5.032  23.646  0.00  0.00    +0.145 A 
ATOM     36  C   UNL     1       8.634   4.470  24.136  0.00  0.00    +0.061 A 
ATOM     37 BR   UNL     1       7.050   5.504  24.259  0.00  0.00    -0.046 Br
ATOM     38  C   UNL     1       8.595   3.127  24.523  0.00  0.00    +0.030 A 
BRANCH  35  39
ATOM     39  O   UNL     1       9.859   6.334  23.226  0.00  0.00    -0.505 OA
ATOM     40  H   UNL     1      10.789   6.626  23.231  0.00  0.00    +0.292 HD
ENDBRANCH  35  39
ENDBRANCH  29  31
ENDBRANCH   9  29
TORSDOF 9
ENDMDL
