MODEL 1
REMARK VINA RESULT:      -5.7      0.000      0.000
REMARK  Name = 
REMARK  11 active torsions:
REMARK  status: ('A' for Active; 'I' for Inactive)
REMARK    1  A    between atoms: C_1  and  C_2
REMARK    2  A    between atoms: C_2  and  C_3
REMARK    3  A    between atoms: C_2  and  C_4
REMARK    4  A    between atoms: C_2  and  N_5
REMARK    5  A    between atoms: N_5  and  C_6
REMARK    6  A    between atoms: C_6  and  C_7
REMARK    7  A    between atoms: C_7  and  O_8
REMARK    8  A    between atoms: C_7  and  C_9
REMARK    9  A    between atoms: C_11  and  C_12
REMARK   10  A    between atoms: C_12  and  O_13
REMARK   11  A    between atoms: C_14  and  O_15
REMARK                            x       y       z     vdW  Elec       q    Type
REMARK                         _______ _______ _______ _____ _____    ______ ____
ROOT
ATOM      1  C   UNL     1       8.387  -4.300  24.204  0.00  0.00    -0.017 A 
ATOM      2  C   UNL     1       7.934  -2.984  24.064  0.00  0.00    +0.010 A 
ATOM      3  C   UNL     1       6.979  -2.656  23.100  0.00  0.00    +0.046 A 
ATOM      4  C   UNL     1       6.463  -3.644  22.267  0.00  0.00    +0.122 A 
ATOM      5  C   UNL     1       6.880  -4.979  22.382  0.00  0.00    +0.020 A 
ATOM      6  C   UNL     1       7.849  -5.288  23.355  0.00  0.00    +0.015 A 
ENDROOT
BRANCH   4   7
ATOM      7  O   UNL     1       5.543  -3.248  21.335  0.00  0.00    -0.506 OA
ATOM      8  H   UNL     1       6.036  -2.975  20.533  0.00  0.00    +0.292 HD
ENDBRANCH   4   7
BRANCH   1   9
ATOM      9  C   UNL     1       9.425  -4.643  25.265  0.00  0.00    +0.158 C 
BRANCH   9  10
ATOM     10  O   UNL     1       9.896  -5.989  25.100  0.00  0.00    -0.386 OA
ATOM     11  H   UNL     1       9.637  -6.500  25.883  0.00  0.00    +0.210 HD
ENDBRANCH   9  10
BRANCH   9  12
ATOM     12  C   UNL     1       8.838  -4.496  26.692  0.00  0.00    +0.117 C 
BRANCH  12  13
ATOM     13  N   UNL     1       8.034  -5.662  27.097  0.00  0.00    -0.309 NA
ATOM     14  H   UNL     1       8.185  -6.397  26.400  0.00  0.00    +0.123 HD
BRANCH  13  16
ATOM     15  C   UNL     1       5.735  -6.080  26.188  0.00  0.00    +0.027 C 
ATOM     16  C   UNL     1       6.592  -5.403  27.273  0.00  0.00    +0.011 C 
ATOM     17  C   UNL     1       6.183  -5.994  28.636  0.00  0.00    +0.027 C 
ATOM     18  C   UNL     1       6.311  -3.891  27.302  0.00  0.00    +0.027 C 
ENDBRANCH  13  16
ENDBRANCH  12  13
ENDBRANCH   9  12
ENDBRANCH   1   9
BRANCH   5  19
ATOM     19  C   UNL     1       6.388  -6.073  21.473  0.00  0.00    +0.194 C 
BRANCH  19  20
ATOM     20  O   UNL     1       4.987  -6.276  21.640  0.00  0.00    -0.390 OA
ATOM     21  H   UNL     1       4.565  -5.418  21.446  0.00  0.00    +0.210 HD
ENDBRANCH  19  20
ENDBRANCH   5  19
TORSDOF 8
ENDMDL
MODEL 2
REMARK VINA RESULT:      -5.3      3.792      5.905
REMARK  Name = 
REMARK  11 active torsions:
REMARK  status: ('A' for Active; 'I' for Inactive)
REMARK    1  A    between atoms: C_1  and  C_2
REMARK    2  A    between atoms: C_2  and  C_3
REMARK    3  A    between atoms: C_2  and  C_4
REMARK    4  A    between atoms: C_2  and  N_5
REMARK    5  A    between atoms: N_5  and  C_6
REMARK    6  A    between atoms: C_6  and  C_7
REMARK    7  A    between atoms: C_7  and  O_8
REMARK    8  A    between atoms: C_7  and  C_9
REMARK    9  A    between atoms: C_11  and  C_12
REMARK   10  A    between atoms: C_12  and  O_13
REMARK   11  A    between atoms: C_14  and  O_15
REMARK                            x       y       z     vdW  Elec       q    Type
REMARK                         _______ _______ _______ _____ _____    ______ ____
ROOT
ATOM      1  C   UNL     1       8.408  -2.533  22.752  0.00  0.00    -0.017 A 
ATOM      2  C   UNL     1       7.108  -3.003  22.536  0.00  0.00    +0.010 A 
ATOM      3  C   UNL     1       6.560  -3.990  23.357  0.00  0.00    +0.046 A 
ATOM      4  C   UNL     1       7.308  -4.515  24.407  0.00  0.00    +0.122 A 
ATOM      5  C   UNL     1       8.610  -4.064  24.666  0.00  0.00    +0.020 A 
ATOM      6  C   UNL     1       9.148  -3.074  23.823  0.00  0.00    +0.015 A 
ENDROOT
BRANCH   4   7
ATOM      7  O   UNL     1       6.713  -5.491  25.160  0.00  0.00    -0.506 OA
ATOM      8  H   UNL     1       7.105  -6.349  24.892  0.00  0.00    +0.292 HD
ENDBRANCH   4   7
BRANCH   1   9
ATOM      9  C   UNL     1       8.990  -1.450  21.851  0.00  0.00    +0.158 C 
BRANCH   9  10
ATOM     10  O   UNL     1      10.416  -1.581  21.754  0.00  0.00    -0.386 OA
ATOM     11  H   UNL     1      10.614  -2.353  21.200  0.00  0.00    +0.210 HD
ENDBRANCH   9  10
BRANCH   9  12
ATOM     12  C   UNL     1       8.659  -0.036  22.389  0.00  0.00    +0.117 C 
BRANCH  12  13
ATOM     13  N   UNL     1       9.835   0.853  22.407  0.00  0.00    -0.309 NA
ATOM     14  H   UNL     1      10.650   0.290  22.148  0.00  0.00    +0.123 HD
BRANCH  13  16
ATOM     15  C   UNL     1       8.784   1.746  24.501  0.00  0.00    +0.027 C 
ATOM     16  C   UNL     1      10.074   1.554  23.683  0.00  0.00    +0.011 C 
ATOM     17  C   UNL     1      11.035   0.681  24.513  0.00  0.00    +0.027 C 
ATOM     18  C   UNL     1      10.752   2.914  23.439  0.00  0.00    +0.027 C 
ENDBRANCH  13  16
ENDBRANCH  12  13
ENDBRANCH   9  12
ENDBRANCH   1   9
BRANCH   5  19
ATOM     19  C   UNL     1       9.474  -4.636  25.758  0.00  0.00    +0.194 C 
BRANCH  19  20
ATOM     20  O   UNL     1       9.734  -6.018  25.525  0.00  0.00    -0.390 OA
ATOM     21  H   UNL     1       9.724  -6.446  26.402  0.00  0.00    +0.210 HD
ENDBRANCH  19  20
ENDBRANCH   5  19
TORSDOF 8
ENDMDL
MODEL 3
REMARK VINA RESULT:      -5.3      3.814      5.643
REMARK  Name = 
REMARK  11 active torsions:
REMARK  status: ('A' for Active; 'I' for Inactive)
REMARK    1  A    between atoms: C_1  and  C_2
REMARK    2  A    between atoms: C_2  and  C_3
REMARK    3  A    between atoms: C_2  and  C_4
REMARK    4  A    between atoms: C_2  and  N_5
REMARK    5  A    between atoms: N_5  and  C_6
REMARK    6  A    between atoms: C_6  and  C_7
REMARK    7  A    between atoms: C_7  and  O_8
REMARK    8  A    between atoms: C_7  and  C_9
REMARK    9  A    between atoms: C_11  and  C_12
REMARK   10  A    between atoms: C_12  and  O_13
REMARK   11  A    between atoms: C_14  and  O_15
REMARK                            x       y       z     vdW  Elec       q    Type
REMARK                         _______ _______ _______ _____ _____    ______ ____
ROOT
ATOM      1  C   UNL     1       9.353  -1.312  23.729  0.00  0.00    -0.017 A 
ATOM      2  C   UNL     1       9.526  -1.381  22.343  0.00  0.00    +0.010 A 
ATOM      3  C   UNL     1       9.710  -0.220  21.588  0.00  0.00    +0.046 A 
ATOM      4  C   UNL     1       9.726   1.022  22.215  0.00  0.00    +0.122 A 
ATOM      5  C   UNL     1       9.569   1.135  23.604  0.00  0.00    +0.020 A 
ATOM      6  C   UNL     1       9.377  -0.045  24.347  0.00  0.00    +0.015 A 
ENDROOT
BRANCH   4   7
ATOM      7  O   UNL     1       9.894   2.116  21.410  0.00  0.00    -0.506 OA
ATOM      8  H   UNL     1       9.120   2.162  20.811  0.00  0.00    +0.292 HD
ENDBRANCH   4   7
BRANCH   1   9
ATOM      9  C   UNL     1       9.160  -2.587  24.541  0.00  0.00    +0.158 C 
BRANCH   9  10
ATOM     10  O   UNL     1      10.117  -3.585  24.156  0.00  0.00    -0.386 OA
ATOM     11  H   UNL     1      10.346  -4.106  24.942  0.00  0.00    +0.210 HD
ENDBRANCH   9  10
BRANCH   9  12
ATOM     12  C   UNL     1       7.736  -3.166  24.346  0.00  0.00    +0.117 C 
BRANCH  12  13
ATOM     13  N   UNL     1       7.742  -4.454  23.629  0.00  0.00    -0.309 NA
ATOM     14  H   UNL     1       8.639  -4.531  23.141  0.00  0.00    +0.123 HD
BRANCH  13  16
ATOM     15  C   UNL     1       6.225  -3.360  21.958  0.00  0.00    +0.027 C 
ATOM     16  C   UNL     1       6.622  -4.656  22.688  0.00  0.00    +0.011 C 
ATOM     17  C   UNL     1       7.091  -5.671  21.629  0.00  0.00    +0.027 C 
ATOM     18  C   UNL     1       5.402  -5.249  23.414  0.00  0.00    +0.027 C 
ENDBRANCH  13  16
ENDBRANCH  12  13
ENDBRANCH   9  12
ENDBRANCH   1   9
BRANCH   5  19
ATOM     19  C   UNL     1       9.530   2.458  24.320  0.00  0.00    +0.194 C 
BRANCH  19  20
ATOM     20  O   UNL     1       8.714   3.391  23.615  0.00  0.00    -0.390 OA
ATOM     21  H   UNL     1       8.058   3.717  24.260  0.00  0.00    +0.210 HD
ENDBRANCH  19  20
ENDBRANCH   5  19
TORSDOF 8
ENDMDL
MODEL 4
REMARK VINA RESULT:      -5.1      2.894      4.619
REMARK  Name = 
REMARK  11 active torsions:
REMARK  status: ('A' for Active; 'I' for Inactive)
REMARK    1  A    between atoms: C_1  and  C_2
REMARK    2  A    between atoms: C_2  and  C_3
REMARK    3  A    between atoms: C_2  and  C_4
REMARK    4  A    between atoms: C_2  and  N_5
REMARK    5  A    between atoms: N_5  and  C_6
REMARK    6  A    between atoms: C_6  and  C_7
REMARK    7  A    between atoms: C_7  and  O_8
REMARK    8  A    between atoms: C_7  and  C_9
REMARK    9  A    between atoms: C_11  and  C_12
REMARK   10  A    between atoms: C_12  and  O_13
REMARK   11  A    between atoms: C_14  and  O_15
REMARK                            x       y       z     vdW  Elec       q    Type
REMARK                         _______ _______ _______ _____ _____    ______ ____
ROOT
ATOM      1  C   UNL     1       9.020  -3.285  25.056  0.00  0.00    -0.017 A 
ATOM      2  C   UNL     1       8.653  -2.538  26.180  0.00  0.00    +0.010 A 
ATOM      3  C   UNL     1       8.804  -1.149  26.196  0.00  0.00    +0.046 A 
ATOM      4  C   UNL     1       9.321  -0.493  25.083  0.00  0.00    +0.122 A 
ATOM      5  C   UNL     1       9.691  -1.202  23.930  0.00  0.00    +0.020 A 
ATOM      6  C   UNL     1       9.538  -2.602  23.936  0.00  0.00    +0.015 A 
ENDROOT
BRANCH   4   7
ATOM      7  O   UNL     1       9.457   0.865  25.175  0.00  0.00    -0.506 OA
ATOM      8  H   UNL     1       8.749   1.191  25.770  0.00  0.00    +0.292 HD
ENDBRANCH   4   7
BRANCH   1   9
ATOM      9  C   UNL     1       8.844  -4.798  25.051  0.00  0.00    +0.158 C 
BRANCH   9  10
ATOM     10  O   UNL     1      10.114  -5.459  24.956  0.00  0.00    -0.386 OA
ATOM     11  H   UNL     1       9.968  -6.350  24.602  0.00  0.00    +0.210 HD
ENDBRANCH   9  10
BRANCH   9  12
ATOM     12  C   UNL     1       7.958  -5.255  23.865  0.00  0.00    +0.117 C 
BRANCH  12  13
ATOM     13  N   UNL     1       6.523  -5.017  24.104  0.00  0.00    -0.309 NA
ATOM     14  H   UNL     1       6.140  -5.858  24.544  0.00  0.00    +0.123 HD
BRANCH  13  16
ATOM     15  C   UNL     1       4.234  -4.935  23.085  0.00  0.00    +0.027 C 
ATOM     16  C   UNL     1       5.737  -4.654  22.909  0.00  0.00    +0.011 C 
ATOM     17  C   UNL     1       5.912  -3.139  22.688  0.00  0.00    +0.027 C 
ATOM     18  C   UNL     1       6.270  -5.385  21.664  0.00  0.00    +0.027 C 
ENDBRANCH  13  16
ENDBRANCH  12  13
ENDBRANCH   9  12
ENDBRANCH   1   9
BRANCH   5  19
ATOM     19  C   UNL     1      10.300  -0.544  22.722  0.00  0.00    +0.194 C 
BRANCH  19  20
ATOM     20  O   UNL     1      10.312  -1.437  21.612  0.00  0.00    -0.390 OA
ATOM     21  H   UNL     1      11.211  -1.387  21.234  0.00  0.00    +0.210 HD
ENDBRANCH  19  20
ENDBRANCH   5  19
TORSDOF 8
ENDMDL
MODEL 5
REMARK VINA RESULT:      -5.1      4.345      5.971
REMARK  Name = 
REMARK  11 active torsions:
REMARK  status: ('A' for Active; 'I' for Inactive)
REMARK    1  A    between atoms: C_1  and  C_2
REMARK    2  A    between atoms: C_2  and  C_3
REMARK    3  A    between atoms: C_2  and  C_4
REMARK    4  A    between atoms: C_2  and  N_5
REMARK    5  A    between atoms: N_5  and  C_6
REMARK    6  A    between atoms: C_6  and  C_7
REMARK    7  A    between atoms: C_7  and  O_8
REMARK    8  A    between atoms: C_7  and  C_9
REMARK    9  A    between atoms: C_11  and  C_12
REMARK   10  A    between atoms: C_12  and  O_13
REMARK   11  A    between atoms: C_14  and  O_15
REMARK                            x       y       z     vdW  Elec       q    Type
REMARK                         _______ _______ _______ _____ _____    ______ ____
ROOT
ATOM      1  C   UNL     1       8.875   0.173  25.217  0.00  0.00    -0.017 A 
ATOM      2  C   UNL     1      10.226   0.119  24.858  0.00  0.00    +0.010 A 
ATOM      3  C   UNL     1      10.695   0.808  23.737  0.00  0.00    +0.046 A 
ATOM      4  C   UNL     1       9.816   1.563  22.967  0.00  0.00    +0.122 A 
ATOM      5  C   UNL     1       8.456   1.655  23.299  0.00  0.00    +0.020 A 
ATOM      6  C   UNL     1       8.001   0.947  24.427  0.00  0.00    +0.015 A 
ENDROOT
BRANCH   4   7
ATOM      7  O   UNL     1      10.342   2.198  21.875  0.00  0.00    -0.506 OA
ATOM      8  H   UNL     1      11.028   1.610  21.495  0.00  0.00    +0.292 HD
ENDBRANCH   4   7
BRANCH   1   9
ATOM      9  C   UNL     1       8.379  -0.579  26.446  0.00  0.00    +0.158 C 
BRANCH   9  10
ATOM     10  O   UNL     1       9.239  -0.341  27.570  0.00  0.00    -0.386 OA
ATOM     11  H   UNL     1       9.600   0.556  27.493  0.00  0.00    +0.210 HD
ENDBRANCH   9  10
BRANCH   9  12
ATOM     12  C   UNL     1       8.318  -2.104  26.183  0.00  0.00    +0.117 C 
BRANCH  12  13
ATOM     13  N   UNL     1       7.504  -2.443  25.002  0.00  0.00    -0.309 NA
ATOM     14  H   UNL     1       6.670  -2.936  25.334  0.00  0.00    +0.123 HD
BRANCH  13  16
ATOM     15  C   UNL     1       7.490  -4.574  23.680  0.00  0.00    +0.027 C 
ATOM     16  C   UNL     1       8.195  -3.235  23.966  0.00  0.00    +0.011 C 
ATOM     17  C   UNL     1       8.180  -2.405  22.669  0.00  0.00    +0.027 C 
ATOM     18  C   UNL     1       9.662  -3.484  24.360  0.00  0.00    +0.027 C 
ENDBRANCH  13  16
ENDBRANCH  12  13
ENDBRANCH   9  12
ENDBRANCH   1   9
BRANCH   5  19
ATOM     19  C   UNL     1       7.459   2.418  22.469  0.00  0.00    +0.194 C 
BRANCH  19  20
ATOM     20  O   UNL     1       7.977   3.695  22.104  0.00  0.00    -0.390 OA
ATOM     21  H   UNL     1       7.506   4.346  22.657  0.00  0.00    +0.210 HD
ENDBRANCH  19  20
ENDBRANCH   5  19
TORSDOF 8
ENDMDL
MODEL 6
REMARK VINA RESULT:      -5.1      3.812      5.476
REMARK  Name = 
REMARK  11 active torsions:
REMARK  status: ('A' for Active; 'I' for Inactive)
REMARK    1  A    between atoms: C_1  and  C_2
REMARK    2  A    between atoms: C_2  and  C_3
REMARK    3  A    between atoms: C_2  and  C_4
REMARK    4  A    between atoms: C_2  and  N_5
REMARK    5  A    between atoms: N_5  and  C_6
REMARK    6  A    between atoms: C_6  and  C_7
REMARK    7  A    between atoms: C_7  and  O_8
REMARK    8  A    between atoms: C_7  and  C_9
REMARK    9  A    between atoms: C_11  and  C_12
REMARK   10  A    between atoms: C_12  and  O_13
REMARK   11  A    between atoms: C_14  and  O_15
REMARK                            x       y       z     vdW  Elec       q    Type
REMARK                         _______ _______ _______ _____ _____    ______ ____
ROOT
ATOM      1  C   UNL     1       9.338  -1.545  23.536  0.00  0.00    -0.017 A 
ATOM      2  C   UNL     1       9.382  -1.523  22.138  0.00  0.00    +0.010 A 
ATOM      3  C   UNL     1       9.535  -0.320  21.446  0.00  0.00    +0.046 A 
ATOM      4  C   UNL     1       9.651   0.876  22.149  0.00  0.00    +0.122 A 
ATOM      5  C   UNL     1       9.624   0.899  23.551  0.00  0.00    +0.020 A 
ATOM      6  C   UNL     1       9.462  -0.323  24.230  0.00  0.00    +0.015 A 
ENDROOT
BRANCH   4   7
ATOM      7  O   UNL     1       9.782   2.018  21.405  0.00  0.00    -0.506 OA
ATOM      8  H   UNL     1       8.880   2.346  21.210  0.00  0.00    +0.292 HD
ENDBRANCH   4   7
BRANCH   1   9
ATOM      9  C   UNL     1       9.177  -2.866  24.277  0.00  0.00    +0.158 C 
BRANCH   9  10
ATOM     10  O   UNL     1      10.370  -3.656  24.175  0.00  0.00    -0.386 OA
ATOM     11  H   UNL     1      10.584  -3.766  23.235  0.00  0.00    +0.210 HD
ENDBRANCH   9  10
BRANCH   9  12
ATOM     12  C   UNL     1       7.991  -3.686  23.709  0.00  0.00    +0.117 C 
BRANCH  12  13
ATOM     13  N   UNL     1       6.799  -3.629  24.575  0.00  0.00    -0.309 NA
ATOM     14  H   UNL     1       6.492  -4.592  24.739  0.00  0.00    +0.123 HD
BRANCH  13  16
ATOM     15  C   UNL     1       5.755  -1.349  24.533  0.00  0.00    +0.027 C 
ATOM     16  C   UNL     1       5.683  -2.813  24.058  0.00  0.00    +0.011 C 
ATOM     17  C   UNL     1       5.786  -2.817  22.520  0.00  0.00    +0.027 C 
ATOM     18  C   UNL     1       4.329  -3.429  24.449  0.00  0.00    +0.027 C 
ENDBRANCH  13  16
ENDBRANCH  12  13
ENDBRANCH   9  12
ENDBRANCH   1   9
BRANCH   5  19
ATOM     19  C   UNL     1       9.696   2.171  24.352  0.00  0.00    +0.194 C 
BRANCH  19  20
ATOM     20  O   UNL     1       8.734   3.115  23.888  0.00  0.00    -0.390 OA
ATOM     21  H   UNL     1       8.550   2.879  22.959  0.00  0.00    +0.210 HD
ENDBRANCH  19  20
ENDBRANCH   5  19
TORSDOF 8
ENDMDL
MODEL 7
REMARK VINA RESULT:      -5.1      3.666      6.170
REMARK  Name = 
REMARK  11 active torsions:
REMARK  status: ('A' for Active; 'I' for Inactive)
REMARK    1  A    between atoms: C_1  and  C_2
REMARK    2  A    between atoms: C_2  and  C_3
REMARK    3  A    between atoms: C_2  and  C_4
REMARK    4  A    between atoms: C_2  and  N_5
REMARK    5  A    between atoms: N_5  and  C_6
REMARK    6  A    between atoms: C_6  and  C_7
REMARK    7  A    between atoms: C_7  and  O_8
REMARK    8  A    between atoms: C_7  and  C_9
REMARK    9  A    between atoms: C_11  and  C_12
REMARK   10  A    between atoms: C_12  and  O_13
REMARK   11  A    between atoms: C_14  and  O_15
REMARK                            x       y       z     vdW  Elec       q    Type
REMARK                         _______ _______ _______ _____ _____    ______ ____
ROOT
ATOM      1  C   UNL     1       7.747  -1.915  24.707  0.00  0.00    -0.017 A 
ATOM      2  C   UNL     1       9.006  -2.081  24.119  0.00  0.00    +0.010 A 
ATOM      3  C   UNL     1       9.680  -3.302  24.205  0.00  0.00    +0.046 A 
ATOM      4  C   UNL     1       9.097  -4.372  24.878  0.00  0.00    +0.122 A 
ATOM      5  C   UNL     1       7.831  -4.252  25.471  0.00  0.00    +0.020 A 
ATOM      6  C   UNL     1       7.171  -3.012  25.380  0.00  0.00    +0.015 A 
ENDROOT
BRANCH   4   7
ATOM      7  O   UNL     1       9.821  -5.532  24.937  0.00  0.00    -0.506 OA
ATOM      8  H   UNL     1      10.271  -5.641  24.073  0.00  0.00    +0.292 HD
ENDBRANCH   4   7
BRANCH   1   9
ATOM      9  C   UNL     1       7.022  -0.580  24.599  0.00  0.00    +0.158 C 
BRANCH   9  10
ATOM     10  O   UNL     1       6.548  -0.364  23.262  0.00  0.00    -0.386 OA
ATOM     11  H   UNL     1       5.918  -1.070  23.045  0.00  0.00    +0.210 HD
ENDBRANCH   9  10
BRANCH   9  12
ATOM     12  C   UNL     1       7.952   0.596  24.990  0.00  0.00    +0.117 C 
BRANCH  12  13
ATOM     13  N   UNL     1       8.220   1.506  23.861  0.00  0.00    -0.309 NA
ATOM     14  H   UNL     1       7.654   1.188  23.069  0.00  0.00    +0.123 HD
BRANCH  13  16
ATOM     15  C   UNL     1       9.925   0.997  22.094  0.00  0.00    +0.027 C 
ATOM     16  C   UNL     1       9.638   1.624  23.471  0.00  0.00    +0.011 C 
ATOM     17  C   UNL     1       9.965   3.128  23.384  0.00  0.00    +0.027 C 
ATOM     18  C   UNL     1      10.551   0.996  24.538  0.00  0.00    +0.027 C 
ENDBRANCH  13  16
ENDBRANCH  12  13
ENDBRANCH   9  12
ENDBRANCH   1   9
BRANCH   5  19
ATOM     19  C   UNL     1       7.182  -5.364  26.250  0.00  0.00    +0.194 C 
BRANCH  19  20
ATOM     20  O   UNL     1       8.013  -5.774  27.333  0.00  0.00    -0.390 OA
ATOM     21  H   UNL     1       7.723  -6.675  27.570  0.00  0.00    +0.210 HD
ENDBRANCH  19  20
ENDBRANCH   5  19
TORSDOF 8
ENDMDL
MODEL 8
REMARK VINA RESULT:      -5.0      5.022      6.604
REMARK  Name = 
REMARK  11 active torsions:
REMARK  status: ('A' for Active; 'I' for Inactive)
REMARK    1  A    between atoms: C_1  and  C_2
REMARK    2  A    between atoms: C_2  and  C_3
REMARK    3  A    between atoms: C_2  and  C_4
REMARK    4  A    between atoms: C_2  and  N_5
REMARK    5  A    between atoms: N_5  and  C_6
REMARK    6  A    between atoms: C_6  and  C_7
REMARK    7  A    between atoms: C_7  and  O_8
REMARK    8  A    between atoms: C_7  and  C_9
REMARK    9  A    between atoms: C_11  and  C_12
REMARK   10  A    between atoms: C_12  and  O_13
REMARK   11  A    between atoms: C_14  and  O_15
REMARK                            x       y       z     vdW  Elec       q    Type
REMARK                         _______ _______ _______ _____ _____    ______ ____
ROOT
ATOM      1  C   UNL     1       9.675   0.416  22.580  0.00  0.00    -0.017 A 
ATOM      2  C   UNL     1       8.505   0.575  21.829  0.00  0.00    +0.010 A 
ATOM      3  C   UNL     1       7.918   1.833  21.680  0.00  0.00    +0.046 A 
ATOM      4  C   UNL     1       8.499   2.947  22.277  0.00  0.00    +0.122 A 
ATOM      5  C   UNL     1       9.679   2.835  23.027  0.00  0.00    +0.020 A 
ATOM      6  C   UNL     1      10.252   1.558  23.173  0.00  0.00    +0.015 A 
ENDROOT
BRANCH   4   7
ATOM      7  O   UNL     1       7.860   4.145  22.101  0.00  0.00    -0.506 OA
ATOM      8  H   UNL     1       8.254   4.783  22.732  0.00  0.00    +0.292 HD
ENDBRANCH   4   7
BRANCH   1   9
ATOM      9  C   UNL     1      10.308  -0.962  22.729  0.00  0.00    +0.158 C 
BRANCH   9  10
ATOM     10  O   UNL     1       9.993  -1.792  21.601  0.00  0.00    -0.386 OA
ATOM     11  H   UNL     1      10.343  -1.367  20.803  0.00  0.00    +0.210 HD
ENDBRANCH   9  10
BRANCH   9  12
ATOM     12  C   UNL     1       9.816  -1.669  24.017  0.00  0.00    +0.117 C 
BRANCH  12  13
ATOM     13  N   UNL     1       9.994  -3.131  23.963  0.00  0.00    -0.309 NA
ATOM     14  H   UNL     1       9.942  -3.412  22.980  0.00  0.00    +0.123 HD
BRANCH  13  16
ATOM     15  C   UNL     1       8.329  -3.051  25.838  0.00  0.00    +0.027 C 
ATOM     16  C   UNL     1       9.040  -3.911  24.776  0.00  0.00    +0.011 C 
ATOM     17  C   UNL     1       7.966  -4.463  23.818  0.00  0.00    +0.027 C 
ATOM     18  C   UNL     1       9.743  -5.104  25.446  0.00  0.00    +0.027 C 
ENDBRANCH  13  16
ENDBRANCH  12  13
ENDBRANCH   9  12
ENDBRANCH   1   9
BRANCH   5  19
ATOM     19  C   UNL     1      10.317   4.002  23.732  0.00  0.00    +0.194 C 
BRANCH  19  20
ATOM     20  O   UNL     1      11.477   4.443  23.030  0.00  0.00    -0.390 OA
ATOM     21  H   UNL     1      12.165   4.585  23.707  0.00  0.00    +0.210 HD
ENDBRANCH  19  20
ENDBRANCH   5  19
TORSDOF 8
ENDMDL
MODEL 9
REMARK VINA RESULT:      -4.9      3.834      5.500
REMARK  Name = 
REMARK  11 active torsions:
REMARK  status: ('A' for Active; 'I' for Inactive)
REMARK    1  A    between atoms: C_1  and  C_2
REMARK    2  A    between atoms: C_2  and  C_3
REMARK    3  A    between atoms: C_2  and  C_4
REMARK    4  A    between atoms: C_2  and  N_5
REMARK    5  A    between atoms: N_5  and  C_6
REMARK    6  A    between atoms: C_6  and  C_7
REMARK    7  A    between atoms: C_7  and  O_8
REMARK    8  A    between atoms: C_7  and  C_9
REMARK    9  A    between atoms: C_11  and  C_12
REMARK   10  A    between atoms: C_12  and  O_13
REMARK   11  A    between atoms: C_14  and  O_15
REMARK                            x       y       z     vdW  Elec       q    Type
REMARK                         _______ _______ _______ _____ _____    ______ ____
ROOT
ATOM      1  C   UNL     1       8.322  -2.506  22.674  0.00  0.00    -0.017 A 
ATOM      2  C   UNL     1       8.597  -2.604  24.042  0.00  0.00    +0.010 A 
ATOM      3  C   UNL     1       7.956  -3.559  24.834  0.00  0.00    +0.046 A 
ATOM      4  C   UNL     1       7.033  -4.430  24.262  0.00  0.00    +0.122 A 
ATOM      5  C   UNL     1       6.736  -4.374  22.892  0.00  0.00    +0.020 A 
ATOM      6  C   UNL     1       7.388  -3.400  22.113  0.00  0.00    +0.015 A 
ENDROOT
BRANCH   4   7
ATOM      7  O   UNL     1       6.431  -5.328  25.101  0.00  0.00    -0.506 OA
ATOM      8  H   UNL     1       6.632  -6.226  24.763  0.00  0.00    +0.292 HD
ENDBRANCH   4   7
BRANCH   1   9
ATOM      9  C   UNL     1       9.034  -1.463  21.822  0.00  0.00    +0.158 C 
BRANCH   9  10
ATOM     10  O   UNL     1      10.457  -1.645  21.879  0.00  0.00    -0.386 OA
ATOM     11  H   UNL     1      10.736  -1.580  22.805  0.00  0.00    +0.210 HD
ENDBRANCH   9  10
BRANCH   9  12
ATOM     12  C   UNL     1       8.700  -0.027  22.298  0.00  0.00    +0.117 C 
BRANCH  12  13
ATOM     13  N   UNL     1       9.896   0.829  22.398  0.00  0.00    -0.309 NA
ATOM     14  H   UNL     1      10.711   0.244  22.196  0.00  0.00    +0.123 HD
BRANCH  13  16
ATOM     15  C   UNL     1       8.731   1.723  24.431  0.00  0.00    +0.027 C 
ATOM     16  C   UNL     1      10.066   1.525  23.689  0.00  0.00    +0.011 C 
ATOM     17  C   UNL     1      10.970   0.642  24.570  0.00  0.00    +0.027 C 
ATOM     18  C   UNL     1      10.766   2.880  23.488  0.00  0.00    +0.027 C 
ENDBRANCH  13  16
ENDBRANCH  12  13
ENDBRANCH   9  12
ENDBRANCH   1   9
BRANCH   5  19
ATOM     19  C   UNL     1       5.711  -5.261  22.239  0.00  0.00    +0.194 C 
BRANCH  19  20
ATOM     20  O   UNL     1       4.395  -4.901  22.651  0.00  0.00    -0.390 OA
ATOM     21  H   UNL     1       4.412  -4.888  23.627  0.00  0.00    +0.210 HD
ENDBRANCH  19  20
ENDBRANCH   5  19
TORSDOF 8
ENDMDL
