MODEL 1
REMARK VINA RESULT:      -4.3      0.000      0.000
REMARK  Name = 
REMARK  1 active torsions:
REMARK  status: ('A' for Active; 'I' for Inactive)
REMARK    1  A    between atoms: O_1  and  C_2
REMARK                            x       y       z     vdW  Elec       q    Type
REMARK                         _______ _______ _______ _____ _____    ______ ____
ROOT
ATOM      1  C   UNL     1       9.851  -0.081  22.058  0.00  0.00    +0.135 A 
ATOM      2  C   UNL     1      10.154  -0.623  23.311  0.00  0.00    +0.082 A 
ATOM      3 CL   UNL     1      10.119  -2.325  23.590  0.00  0.00    -0.080 Cl
ATOM      4  C   UNL     1      10.494   0.221  24.370  0.00  0.00    +0.023 A 
ATOM      5  C   UNL     1      10.531   1.603  24.176  0.00  0.00    +0.002 A 
ATOM      6  C   UNL     1      10.227   2.141  22.926  0.00  0.00    +0.004 A 
ATOM      7  C   UNL     1       9.887   1.300  21.863  0.00  0.00    +0.047 A 
ENDROOT
BRANCH   1   8
ATOM      8  O   UNL     1       9.520  -0.905  21.017  0.00  0.00    -0.505 OA
ATOM      9  H   UNL     1       8.577  -1.130  21.073  0.00  0.00    +0.292 HD
ENDBRANCH   1   8
TORSDOF 1
ENDMDL
MODEL 2
REMARK VINA RESULT:      -4.1      2.198      2.822
REMARK  Name = 
REMARK  1 active torsions:
REMARK  status: ('A' for Active; 'I' for Inactive)
REMARK    1  A    between atoms: O_1  and  C_2
REMARK                            x       y       z     vdW  Elec       q    Type
REMARK                         _______ _______ _______ _____ _____    ______ ____
ROOT
ATOM      1  C   UNL     1       9.728   0.941  22.137  0.00  0.00    +0.135 A 
ATOM      2  C   UNL     1       9.828   1.119  23.521  0.00  0.00    +0.082 A 
ATOM      3 CL   UNL     1       9.794   2.691  24.233  0.00  0.00    -0.080 Cl
ATOM      4  C   UNL     1       9.956   0.009  24.358  0.00  0.00    +0.023 A 
ATOM      5  C   UNL     1       9.987  -1.276  23.812  0.00  0.00    +0.002 A 
ATOM      6  C   UNL     1       9.890  -1.451  22.432  0.00  0.00    +0.004 A 
ATOM      7  C   UNL     1       9.760  -0.342  21.590  0.00  0.00    +0.047 A 
ENDROOT
BRANCH   1   8
ATOM      8  O   UNL     1       9.599   2.027  21.315  0.00  0.00    -0.505 OA
ATOM      9  H   UNL     1       9.027   2.685  21.740  0.00  0.00    +0.292 HD
ENDBRANCH   1   8
TORSDOF 1
ENDMDL
MODEL 3
REMARK VINA RESULT:      -4.0      2.588      3.521
REMARK  Name = 
REMARK  1 active torsions:
REMARK  status: ('A' for Active; 'I' for Inactive)
REMARK    1  A    between atoms: O_1  and  C_2
REMARK                            x       y       z     vdW  Elec       q    Type
REMARK                         _______ _______ _______ _____ _____    ______ ____
ROOT
ATOM      1  C   UNL     1      10.291   0.305  24.028  0.00  0.00    +0.135 A 
ATOM      2  C   UNL     1      10.141   1.368  23.131  0.00  0.00    +0.082 A 
ATOM      3 CL   UNL     1      10.440   2.999  23.606  0.00  0.00    -0.080 Cl
ATOM      4  C   UNL     1       9.741   1.117  21.817  0.00  0.00    +0.023 A 
ATOM      5  C   UNL     1       9.490  -0.192  21.402  0.00  0.00    +0.002 A 
ATOM      6  C   UNL     1       9.639  -1.250  22.300  0.00  0.00    +0.004 A 
ATOM      7  C   UNL     1      10.040  -1.004  23.616  0.00  0.00    +0.047 A 
ENDROOT
BRANCH   1   8
ATOM      8  O   UNL     1      10.685   0.548  25.316  0.00  0.00    -0.505 OA
ATOM      9  H   UNL     1      11.622   0.801  25.323  0.00  0.00    +0.292 HD
ENDBRANCH   1   8
TORSDOF 1
ENDMDL
MODEL 4
REMARK VINA RESULT:      -4.0      1.773      2.444
REMARK  Name = 
REMARK  1 active torsions:
REMARK  status: ('A' for Active; 'I' for Inactive)
REMARK    1  A    between atoms: O_1  and  C_2
REMARK                            x       y       z     vdW  Elec       q    Type
REMARK                         _______ _______ _______ _____ _____    ______ ____
ROOT
ATOM      1  C   UNL     1      10.236   0.486  24.135  0.00  0.00    +0.135 A 
ATOM      2  C   UNL     1       9.861  -0.660  23.426  0.00  0.00    +0.082 A 
ATOM      3 CL   UNL     1       9.842  -2.216  24.170  0.00  0.00    -0.080 Cl
ATOM      4  C   UNL     1       9.489  -0.556  22.085  0.00  0.00    +0.023 A 
ATOM      5  C   UNL     1       9.494   0.690  21.453  0.00  0.00    +0.002 A 
ATOM      6  C   UNL     1       9.871   1.830  22.162  0.00  0.00    +0.004 A 
ATOM      7  C   UNL     1      10.243   1.731  23.506  0.00  0.00    +0.047 A 
ENDROOT
BRANCH   1   8
ATOM      8  O   UNL     1      10.599   0.388  25.451  0.00  0.00    -0.505 OA
ATOM      9  H   UNL     1      11.523   0.667  25.551  0.00  0.00    +0.292 HD
ENDBRANCH   1   8
TORSDOF 1
ENDMDL
MODEL 5
REMARK VINA RESULT:      -3.8      1.943      2.725
REMARK  Name = 
REMARK  1 active torsions:
REMARK  status: ('A' for Active; 'I' for Inactive)
REMARK    1  A    between atoms: O_1  and  C_2
REMARK                            x       y       z     vdW  Elec       q    Type
REMARK                         _______ _______ _______ _____ _____    ______ ____
ROOT
ATOM      1  C   UNL     1       9.786  -0.803  22.480  0.00  0.00    +0.135 A 
ATOM      2  C   UNL     1       9.900   0.499  22.979  0.00  0.00    +0.082 A 
ATOM      3 CL   UNL     1      10.166   1.845  21.933  0.00  0.00    -0.080 Cl
ATOM      4  C   UNL     1       9.798   0.729  24.352  0.00  0.00    +0.023 A 
ATOM      5  C   UNL     1       9.584  -0.340  25.224  0.00  0.00    +0.002 A 
ATOM      6  C   UNL     1       9.473  -1.638  24.724  0.00  0.00    +0.004 A 
ATOM      7  C   UNL     1       9.574  -1.872  23.350  0.00  0.00    +0.047 A 
ENDROOT
BRANCH   1   8
ATOM      8  O   UNL     1       9.884  -1.032  21.134  0.00  0.00    -0.505 OA
ATOM      9  H   UNL     1       9.466  -1.881  20.922  0.00  0.00    +0.292 HD
ENDBRANCH   1   8
TORSDOF 1
ENDMDL
MODEL 6
REMARK VINA RESULT:      -3.7      2.088      2.373
REMARK  Name = 
REMARK  1 active torsions:
REMARK  status: ('A' for Active; 'I' for Inactive)
REMARK    1  A    between atoms: O_1  and  C_2
REMARK                            x       y       z     vdW  Elec       q    Type
REMARK                         _______ _______ _______ _____ _____    ______ ____
ROOT
ATOM      1  C   UNL     1       9.262  -0.736  21.828  0.00  0.00    +0.135 A 
ATOM      2  C   UNL     1       8.171  -1.192  22.575  0.00  0.00    +0.082 A 
ATOM      3 CL   UNL     1       8.036  -2.843  23.059  0.00  0.00    -0.080 Cl
ATOM      4  C   UNL     1       7.162  -0.302  22.946  0.00  0.00    +0.023 A 
ATOM      5  C   UNL     1       7.242   1.040  22.569  0.00  0.00    +0.002 A 
ATOM      6  C   UNL     1       8.329   1.492  21.822  0.00  0.00    +0.004 A 
ATOM      7  C   UNL     1       9.343   0.604  21.450  0.00  0.00    +0.047 A 
ENDROOT
BRANCH   1   8
ATOM      8  O   UNL     1      10.254  -1.606  21.465  0.00  0.00    -0.505 OA
ATOM      9  H   UNL     1      10.206  -1.767  20.509  0.00  0.00    +0.292 HD
ENDBRANCH   1   8
TORSDOF 1
ENDMDL
MODEL 7
REMARK VINA RESULT:      -3.7      6.008      6.876
REMARK  Name = 
REMARK  1 active torsions:
REMARK  status: ('A' for Active; 'I' for Inactive)
REMARK    1  A    between atoms: O_1  and  C_2
REMARK                            x       y       z     vdW  Elec       q    Type
REMARK                         _______ _______ _______ _____ _____    ______ ____
ROOT
ATOM      1  C   UNL     1       7.912  -5.331  26.487  0.00  0.00    +0.135 A 
ATOM      2  C   UNL     1       6.893  -5.379  25.530  0.00  0.00    +0.082 A 
ATOM      3 CL   UNL     1       5.391  -6.166  25.851  0.00  0.00    -0.080 Cl
ATOM      4  C   UNL     1       7.081  -4.781  24.284  0.00  0.00    +0.023 A 
ATOM      5  C   UNL     1       8.285  -4.137  23.993  0.00  0.00    +0.002 A 
ATOM      6  C   UNL     1       9.301  -4.091  24.948  0.00  0.00    +0.004 A 
ATOM      7  C   UNL     1       9.117  -4.688  26.198  0.00  0.00    +0.047 A 
ENDROOT
BRANCH   1   8
ATOM      8  O   UNL     1       7.730  -5.914  27.711  0.00  0.00    -0.505 OA
ATOM      9  H   UNL     1       7.758  -6.880  27.614  0.00  0.00    +0.292 HD
ENDBRANCH   1   8
TORSDOF 1
ENDMDL
MODEL 8
REMARK VINA RESULT:      -3.6      2.067      2.376
REMARK  Name = 
REMARK  1 active torsions:
REMARK  status: ('A' for Active; 'I' for Inactive)
REMARK    1  A    between atoms: O_1  and  C_2
REMARK                            x       y       z     vdW  Elec       q    Type
REMARK                         _______ _______ _______ _____ _____    ______ ____
ROOT
ATOM      1  C   UNL     1       9.732   1.969  22.675  0.00  0.00    +0.135 A 
ATOM      2  C   UNL     1       9.427   0.619  22.879  0.00  0.00    +0.082 A 
ATOM      3 CL   UNL     1       9.806  -0.580  21.698  0.00  0.00    -0.080 Cl
ATOM      4  C   UNL     1       8.802   0.219  24.061  0.00  0.00    +0.023 A 
ATOM      5  C   UNL     1       8.482   1.166  25.036  0.00  0.00    +0.002 A 
ATOM      6  C   UNL     1       8.786   2.511  24.829  0.00  0.00    +0.004 A 
ATOM      7  C   UNL     1       9.412   2.917  23.648  0.00  0.00    +0.047 A 
ENDROOT
BRANCH   1   8
ATOM      8  O   UNL     1      10.346   2.364  21.518  0.00  0.00    -0.505 OA
ATOM      9  H   UNL     1      10.450   1.598  20.931  0.00  0.00    +0.292 HD
ENDBRANCH   1   8
TORSDOF 1
ENDMDL
MODEL 9
REMARK VINA RESULT:      -3.6      2.689      2.909
REMARK  Name = 
REMARK  1 active torsions:
REMARK  status: ('A' for Active; 'I' for Inactive)
REMARK    1  A    between atoms: O_1  and  C_2
REMARK                            x       y       z     vdW  Elec       q    Type
REMARK                         _______ _______ _______ _____ _____    ______ ____
ROOT
ATOM      1  C   UNL     1       9.238   1.856  22.275  0.00  0.00    +0.135 A 
ATOM      2  C   UNL     1       9.376   1.279  23.542  0.00  0.00    +0.082 A 
ATOM      3 CL   UNL     1      10.921   1.114  24.293  0.00  0.00    -0.080 Cl
ATOM      4  C   UNL     1       8.248   0.824  24.225  0.00  0.00    +0.023 A 
ATOM      5  C   UNL     1       6.984   0.943  23.644  0.00  0.00    +0.002 A 
ATOM      6  C   UNL     1       6.849   1.517  22.380  0.00  0.00    +0.004 A 
ATOM      7  C   UNL     1       7.976   1.976  21.692  0.00  0.00    +0.047 A 
ENDROOT
BRANCH   1   8
ATOM      8  O   UNL     1      10.341   2.306  21.603  0.00  0.00    -0.505 OA
ATOM      9  H   UNL     1      10.710   1.584  21.071  0.00  0.00    +0.292 HD
ENDBRANCH   1   8
TORSDOF 1
ENDMDL
