MODEL 1
REMARK VINA RESULT:      -7.1      0.000      0.000
REMARK  Name = 
REMARK  5 active torsions:
REMARK  status: ('A' for Active; 'I' for Inactive)
REMARK    1  A    between atoms: C_1  and  O_2
REMARK    2  A    between atoms: O_2  and  C_3
REMARK    3  A    between atoms: C_6  and  O_7
REMARK    4  A    between atoms: C_8  and  C_10
REMARK    5  A    between atoms: C_17  and  C_19
REMARK                            x       y       z     vdW  Elec       q    Type
REMARK                         _______ _______ _______ _____ _____    ______ ____
ROOT
ATOM      1  C   UNL     1       9.119   0.470  23.856  0.00  0.00    +0.143 A 
ATOM      2  N   UNL     1       8.368   1.547  24.264  0.00  0.00    -0.338 N 
ATOM      3  H   UNL     1       7.412   1.469  24.587  0.00  0.00    +0.167 HD
ATOM      4  C   UNL     1       9.113   2.687  24.120  0.00  0.00    +0.067 A 
ATOM      5  C   UNL     1       8.840   4.029  24.363  0.00  0.00    +0.028 A 
ATOM      6  C   UNL     1       9.877   4.935  24.094  0.00  0.00    +0.018 A 
ATOM      7  C   UNL     1      11.129   4.525  23.588  0.00  0.00    +0.063 A 
ATOM      8  C   UNL     1      11.348   3.153  23.353  0.00  0.00    +0.045 A 
ATOM      9  C   UNL     1      10.327   2.234  23.632  0.00  0.00    +0.090 A 
ATOM     10  N   UNL     1      10.323   0.875  23.480  0.00  0.00    -0.228 NA
ENDROOT
BRANCH   7  11
ATOM     11  C   UNL     1      12.193   5.508  23.303  0.00  0.00    +0.266 C 
ATOM     12  N   UNL     1      12.755   5.546  22.113  0.00  0.00    -0.288 N 
ATOM     13  H   UNL     1      13.482   6.207  21.876  0.00  0.00    +0.301 HD
ATOM     14  H   UNL     1      12.487   4.883  21.395  0.00  0.00    +0.301 HD
ATOM     15  N   UNL     1      12.587   6.345  24.241  0.00  0.00    -0.250 N 
ATOM     16  H   UNL     1      13.326   7.020  24.094  0.00  0.00    +0.288 HD
ATOM     17  H   UNL     1      12.141   6.346  25.153  0.00  0.00    +0.288 HD
ENDBRANCH   7  11
BRANCH   1  20
ATOM     18  C   UNL     1       9.091  -3.272  24.179  0.00  0.00    +0.121 A 
ATOM     19  C   UNL     1       9.479  -1.934  24.233  0.00  0.00    +0.060 A 
ATOM     20  C   UNL     1       8.615  -0.906  23.825  0.00  0.00    +0.062 A 
ATOM     21  C   UNL     1       7.327  -1.256  23.385  0.00  0.00    +0.128 A 
ATOM     22  C   UNL     1       6.914  -2.590  23.366  0.00  0.00    +0.050 A 
ATOM     23  C   UNL     1       7.797  -3.596  23.768  0.00  0.00    +0.049 A 
BRANCH  18  25
ATOM     24  C   UNL     1       9.482  -5.015  25.710  0.00  0.00    +0.277 C 
ATOM     25  O   UNL     1       9.889  -4.326  24.530  0.00  0.00    -0.495 OA
ENDBRANCH  18  25
BRANCH  21  26
ATOM     26  O   UNL     1       6.459  -0.283  22.954  0.00  0.00    -0.506 OA
ATOM     27  H   UNL     1       6.636  -0.119  22.008  0.00  0.00    +0.292 HD
ENDBRANCH  21  26
ENDBRANCH   1  20
TORSDOF 4
ENDMDL
MODEL 2
REMARK VINA RESULT:      -7.0      3.228      4.952
REMARK  Name = 
REMARK  5 active torsions:
REMARK  status: ('A' for Active; 'I' for Inactive)
REMARK    1  A    between atoms: C_1  and  O_2
REMARK    2  A    between atoms: O_2  and  C_3
REMARK    3  A    between atoms: C_6  and  O_7
REMARK    4  A    between atoms: C_8  and  C_10
REMARK    5  A    between atoms: C_17  and  C_19
REMARK                            x       y       z     vdW  Elec       q    Type
REMARK                         _______ _______ _______ _____ _____    ______ ____
ROOT
ATOM      1  C   UNL     1       6.985  -3.467  23.673  0.00  0.00    +0.143 A 
ATOM      2  N   UNL     1       8.358  -3.520  23.623  0.00  0.00    -0.338 N 
ATOM      3  H   UNL     1       8.895  -4.335  23.892  0.00  0.00    +0.167 HD
ATOM      4  C   UNL     1       8.832  -2.308  23.198  0.00  0.00    +0.067 A 
ATOM      5  C   UNL     1      10.118  -1.818  22.991  0.00  0.00    +0.028 A 
ATOM      6  C   UNL     1      10.216  -0.495  22.536  0.00  0.00    +0.018 A 
ATOM      7  C   UNL     1       9.081   0.315  22.313  0.00  0.00    +0.063 A 
ATOM      8  C   UNL     1       7.804  -0.230  22.546  0.00  0.00    +0.045 A 
ATOM      9  C   UNL     1       7.689  -1.556  22.986  0.00  0.00    +0.090 A 
ATOM     10  N   UNL     1       6.563  -2.277  23.273  0.00  0.00    -0.228 NA
ENDROOT
BRANCH   7  11
ATOM     11  C   UNL     1       9.222   1.709  21.846  0.00  0.00    +0.266 C 
ATOM     12  N   UNL     1       8.163   2.380  21.446  0.00  0.00    -0.288 N 
ATOM     13  H   UNL     1       8.216   3.338  21.126  0.00  0.00    +0.301 HD
ATOM     14  H   UNL     1       7.251   1.939  21.424  0.00  0.00    +0.301 HD
ATOM     15  N   UNL     1      10.408   2.281  21.823  0.00  0.00    -0.250 N 
ATOM     16  H   UNL     1      10.551   3.226  21.492  0.00  0.00    +0.288 HD
ATOM     17  H   UNL     1      11.228   1.784  22.157  0.00  0.00    +0.288 HD
ENDBRANCH   7  11
BRANCH   1  20
ATOM     18  C   UNL     1       5.624  -6.138  25.937  0.00  0.00    +0.121 A 
ATOM     19  C   UNL     1       6.344  -5.051  25.444  0.00  0.00    +0.060 A 
ATOM     20  C   UNL     1       6.146  -4.577  24.137  0.00  0.00    +0.062 A 
ATOM     21  C   UNL     1       5.176  -5.209  23.341  0.00  0.00    +0.128 A 
ATOM     22  C   UNL     1       4.421  -6.272  23.840  0.00  0.00    +0.050 A 
ATOM     23  C   UNL     1       4.644  -6.732  25.141  0.00  0.00    +0.049 A 
BRANCH  18  25
ATOM     24  C   UNL     1       6.340  -5.779  28.149  0.00  0.00    +0.277 C 
ATOM     25  O   UNL     1       5.787  -6.673  27.185  0.00  0.00    -0.495 OA
ENDBRANCH  18  25
BRANCH  21  26
ATOM     26  O   UNL     1       4.968  -4.791  22.049  0.00  0.00    -0.506 OA
ATOM     27  H   UNL     1       5.152  -5.544  21.456  0.00  0.00    +0.292 HD
ENDBRANCH  21  26
ENDBRANCH   1  20
TORSDOF 4
ENDMDL
MODEL 3
REMARK VINA RESULT:      -6.9      2.487      3.664
REMARK  Name = 
REMARK  5 active torsions:
REMARK  status: ('A' for Active; 'I' for Inactive)
REMARK    1  A    between atoms: C_1  and  O_2
REMARK    2  A    between atoms: O_2  and  C_3
REMARK    3  A    between atoms: C_6  and  O_7
REMARK    4  A    between atoms: C_8  and  C_10
REMARK    5  A    between atoms: C_17  and  C_19
REMARK                            x       y       z     vdW  Elec       q    Type
REMARK                         _______ _______ _______ _____ _____    ______ ____
ROOT
ATOM      1  C   UNL     1       7.310  -2.228  23.335  0.00  0.00    +0.143 A 
ATOM      2  N   UNL     1       8.089  -2.016  22.222  0.00  0.00    -0.338 N 
ATOM      3  H   UNL     1       8.212  -2.702  21.488  0.00  0.00    +0.167 HD
ATOM      4  C   UNL     1       8.665  -0.777  22.315  0.00  0.00    +0.067 A 
ATOM      5  C   UNL     1       9.541  -0.079  21.489  0.00  0.00    +0.028 A 
ATOM      6  C   UNL     1       9.919   1.201  21.921  0.00  0.00    +0.018 A 
ATOM      7  C   UNL     1       9.459   1.758  23.133  0.00  0.00    +0.063 A 
ATOM      8  C   UNL     1       8.580   1.004  23.934  0.00  0.00    +0.045 A 
ATOM      9  C   UNL     1       8.180  -0.271  23.509  0.00  0.00    +0.090 A 
ATOM     10  N   UNL     1       7.346  -1.164  24.122  0.00  0.00    -0.228 NA
ENDROOT
BRANCH   7  11
ATOM     11  C   UNL     1       9.890   3.104  23.563  0.00  0.00    +0.266 C 
ATOM     12  N   UNL     1      11.019   3.609  23.113  0.00  0.00    -0.288 N 
ATOM     13  H   UNL     1      11.345   4.529  23.377  0.00  0.00    +0.301 HD
ATOM     14  H   UNL     1      11.616   3.071  22.496  0.00  0.00    +0.301 HD
ATOM     15  N   UNL     1       9.149   3.798  24.403  0.00  0.00    -0.250 N 
ATOM     16  H   UNL     1       9.417   4.713  24.737  0.00  0.00    +0.288 HD
ATOM     17  H   UNL     1       8.262   3.431  24.733  0.00  0.00    +0.288 HD
ENDBRANCH   7  11
BRANCH   1  20
ATOM     18  C   UNL     1       6.214  -5.358  25.099  0.00  0.00    +0.121 A 
ATOM     19  C   UNL     1       6.822  -4.139  24.808  0.00  0.00    +0.060 A 
ATOM     20  C   UNL     1       6.585  -3.477  23.592  0.00  0.00    +0.062 A 
ATOM     21  C   UNL     1       5.689  -4.061  22.681  0.00  0.00    +0.128 A 
ATOM     22  C   UNL     1       5.042  -5.261  22.982  0.00  0.00    +0.050 A 
ATOM     23  C   UNL     1       5.303  -5.906  24.195  0.00  0.00    +0.049 A 
BRANCH  18  25
ATOM     24  C   UNL     1       7.112  -5.364  27.273  0.00  0.00    +0.277 C 
ATOM     25  O   UNL     1       6.422  -6.073  26.246  0.00  0.00    -0.495 OA
ENDBRANCH  18  25
BRANCH  21  26
ATOM     26  O   UNL     1       5.447  -3.458  21.471  0.00  0.00    -0.506 OA
ATOM     27  H   UNL     1       4.677  -3.897  21.064  0.00  0.00    +0.292 HD
ENDBRANCH  21  26
ENDBRANCH   1  20
TORSDOF 4
ENDMDL
MODEL 4
REMARK VINA RESULT:      -6.8      2.366      3.533
REMARK  Name = 
REMARK  5 active torsions:
REMARK  status: ('A' for Active; 'I' for Inactive)
REMARK    1  A    between atoms: C_1  and  O_2
REMARK    2  A    between atoms: O_2  and  C_3
REMARK    3  A    between atoms: C_6  and  O_7
REMARK    4  A    between atoms: C_8  and  C_10
REMARK    5  A    between atoms: C_17  and  C_19
REMARK                            x       y       z     vdW  Elec       q    Type
REMARK                         _______ _______ _______ _____ _____    ______ ____
ROOT
ATOM      1  C   UNL     1       8.770  -1.672  24.762  0.00  0.00    +0.143 A 
ATOM      2  N   UNL     1       8.963  -1.561  23.405  0.00  0.00    -0.338 N 
ATOM      3  H   UNL     1       8.845  -2.332  22.760  0.00  0.00    +0.167 HD
ATOM      4  C   UNL     1       9.361  -0.283  23.118  0.00  0.00    +0.067 A 
ATOM      5  C   UNL     1       9.702   0.354  21.929  0.00  0.00    +0.028 A 
ATOM      6  C   UNL     1      10.065   1.706  22.027  0.00  0.00    +0.018 A 
ATOM      7  C   UNL     1      10.103   2.392  23.260  0.00  0.00    +0.063 A 
ATOM      8  C   UNL     1       9.755   1.696  24.434  0.00  0.00    +0.045 A 
ATOM      9  C   UNL     1       9.376   0.348  24.350  0.00  0.00    +0.090 A 
ATOM     10  N   UNL     1       9.006  -0.508  25.349  0.00  0.00    -0.228 NA
ENDROOT
BRANCH   7  11
ATOM     11  C   UNL     1      10.502   3.812  23.327  0.00  0.00    +0.266 C 
ATOM     12  N   UNL     1      11.771   4.146  23.219  0.00  0.00    -0.288 N 
ATOM     13  H   UNL     1      12.085   5.106  23.253  0.00  0.00    +0.301 HD
ATOM     14  H   UNL     1      12.485   3.434  23.121  0.00  0.00    +0.301 HD
ATOM     15  N   UNL     1       9.591   4.747  23.503  0.00  0.00    -0.250 N 
ATOM     16  H   UNL     1       9.824   5.728  23.575  0.00  0.00    +0.288 HD
ATOM     17  H   UNL     1       8.607   4.505  23.558  0.00  0.00    +0.288 HD
ENDBRANCH   7  11
BRANCH   1  20
ATOM     18  C   UNL     1       6.911  -4.027  27.022  0.00  0.00    +0.121 A 
ATOM     19  C   UNL     1       7.298  -2.893  26.310  0.00  0.00    +0.060 A 
ATOM     20  C   UNL     1       8.390  -2.922  25.429  0.00  0.00    +0.062 A 
ATOM     21  C   UNL     1       9.072  -4.138  25.255  0.00  0.00    +0.128 A 
ATOM     22  C   UNL     1       8.668  -5.290  25.932  0.00  0.00    +0.050 A 
ATOM     23  C   UNL     1       7.583  -5.233  26.812  0.00  0.00    +0.049 A 
BRANCH  18  25
ATOM     24  C   UNL     1       5.572  -5.364  28.420  0.00  0.00    +0.277 C 
ATOM     25  O   UNL     1       5.880  -4.065  27.920  0.00  0.00    -0.495 OA
ENDBRANCH  18  25
BRANCH  21  26
ATOM     26  O   UNL     1      10.161  -4.203  24.420  0.00  0.00    -0.506 OA
ATOM     27  H   UNL     1       9.876  -3.921  23.531  0.00  0.00    +0.292 HD
ENDBRANCH  21  26
ENDBRANCH   1  20
TORSDOF 4
ENDMDL
MODEL 5
REMARK VINA RESULT:      -6.8      4.015      8.570
REMARK  Name = 
REMARK  5 active torsions:
REMARK  status: ('A' for Active; 'I' for Inactive)
REMARK    1  A    between atoms: C_1  and  O_2
REMARK    2  A    between atoms: O_2  and  C_3
REMARK    3  A    between atoms: C_6  and  O_7
REMARK    4  A    between atoms: C_8  and  C_10
REMARK    5  A    between atoms: C_17  and  C_19
REMARK                            x       y       z     vdW  Elec       q    Type
REMARK                         _______ _______ _______ _____ _____    ______ ____
ROOT
ATOM      1  C   UNL     1       7.623  -1.597  22.884  0.00  0.00    +0.143 A 
ATOM      2  N   UNL     1       8.098  -2.781  22.370  0.00  0.00    -0.338 N 
ATOM      3  H   UNL     1       9.023  -2.884  21.972  0.00  0.00    +0.167 HD
ATOM      4  C   UNL     1       7.116  -3.730  22.461  0.00  0.00    +0.067 A 
ATOM      5  C   UNL     1       7.057  -5.067  22.081  0.00  0.00    +0.028 A 
ATOM      6  C   UNL     1       5.854  -5.739  22.345  0.00  0.00    +0.018 A 
ATOM      7  C   UNL     1       4.747  -5.101  22.947  0.00  0.00    +0.063 A 
ATOM      8  C   UNL     1       4.860  -3.744  23.305  0.00  0.00    +0.045 A 
ATOM      9  C   UNL     1       6.061  -3.063  23.061  0.00  0.00    +0.090 A 
ATOM     10  N   UNL     1       6.384  -1.761  23.323  0.00  0.00    -0.228 NA
ENDROOT
BRANCH   7  11
ATOM     11  C   UNL     1       3.491  -5.836  23.198  0.00  0.00    +0.266 C 
ATOM     12  N   UNL     1       2.349  -5.186  23.264  0.00  0.00    -0.288 N 
ATOM     13  H   UNL     1       1.467  -5.652  23.427  0.00  0.00    +0.301 HD
ATOM     14  H   UNL     1       2.324  -4.176  23.175  0.00  0.00    +0.301 HD
ATOM     15  N   UNL     1       3.512  -7.143  23.364  0.00  0.00    -0.250 N 
ATOM     16  H   UNL     1       2.678  -7.681  23.558  0.00  0.00    +0.288 HD
ATOM     17  H   UNL     1       4.382  -7.660  23.286  0.00  0.00    +0.288 HD
ENDBRANCH   7  11
BRANCH   1  20
ATOM     18  C   UNL     1       8.862   1.758  24.032  0.00  0.00    +0.121 A 
ATOM     19  C   UNL     1       8.207   0.529  23.976  0.00  0.00    +0.060 A 
ATOM     20  C   UNL     1       8.394  -0.351  22.898  0.00  0.00    +0.062 A 
ATOM     21  C   UNL     1       9.289   0.026  21.882  0.00  0.00    +0.128 A 
ATOM     22  C   UNL     1       9.982   1.236  21.948  0.00  0.00    +0.050 A 
ATOM     23  C   UNL     1       9.769   2.099  23.028  0.00  0.00    +0.049 A 
BRANCH  18  25
ATOM     24  C   UNL     1       8.707   4.035  24.601  0.00  0.00    +0.277 C 
ATOM     25  O   UNL     1       8.703   2.676  25.033  0.00  0.00    -0.495 OA
ENDBRANCH  18  25
BRANCH  21  26
ATOM     26  O   UNL     1       9.482  -0.795  20.797  0.00  0.00    -0.506 OA
ATOM     27  H   UNL     1       9.549  -0.233  20.003  0.00  0.00    +0.292 HD
ENDBRANCH  21  26
ENDBRANCH   1  20
TORSDOF 4
ENDMDL
MODEL 6
REMARK VINA RESULT:      -6.6      3.042      7.411
REMARK  Name = 
REMARK  5 active torsions:
REMARK  status: ('A' for Active; 'I' for Inactive)
REMARK    1  A    between atoms: C_1  and  O_2
REMARK    2  A    between atoms: O_2  and  C_3
REMARK    3  A    between atoms: C_6  and  O_7
REMARK    4  A    between atoms: C_8  and  C_10
REMARK    5  A    between atoms: C_17  and  C_19
REMARK                            x       y       z     vdW  Elec       q    Type
REMARK                         _______ _______ _______ _____ _____    ______ ____
ROOT
ATOM      1  C   UNL     1       8.284   0.353  23.597  0.00  0.00    +0.143 A 
ATOM      2  N   UNL     1       7.720  -0.577  22.755  0.00  0.00    -0.338 N 
ATOM      3  H   UNL     1       7.216  -0.332  21.912  0.00  0.00    +0.167 HD
ATOM      4  C   UNL     1       7.930  -1.827  23.271  0.00  0.00    +0.067 A 
ATOM      5  C   UNL     1       7.563  -3.099  22.843  0.00  0.00    +0.028 A 
ATOM      6  C   UNL     1       7.970  -4.171  23.651  0.00  0.00    +0.018 A 
ATOM      7  C   UNL     1       8.697  -3.985  24.846  0.00  0.00    +0.063 A 
ATOM      8  C   UNL     1       9.035  -2.675  25.237  0.00  0.00    +0.045 A 
ATOM      9  C   UNL     1       8.649  -1.594  24.432  0.00  0.00    +0.090 A 
ATOM     10  N   UNL     1       8.867  -0.257  24.618  0.00  0.00    -0.228 NA
ENDROOT
BRANCH   7  11
ATOM     11  C   UNL     1       9.097  -5.137  25.679  0.00  0.00    +0.266 C 
ATOM     12  N   UNL     1      10.325  -5.606  25.610  0.00  0.00    -0.288 N 
ATOM     13  H   UNL     1      10.640  -6.388  26.168  0.00  0.00    +0.301 HD
ATOM     14  H   UNL     1      10.995  -5.204  24.965  0.00  0.00    +0.301 HD
ATOM     15  N   UNL     1       8.224  -5.703  26.488  0.00  0.00    -0.250 N 
ATOM     16  H   UNL     1       8.451  -6.505  27.059  0.00  0.00    +0.288 HD
ATOM     17  H   UNL     1       7.283  -5.332  26.572  0.00  0.00    +0.288 HD
ENDBRANCH   7  11
BRANCH   1  20
ATOM     18  C   UNL     1       9.256   3.980  23.676  0.00  0.00    +0.121 A 
ATOM     19  C   UNL     1       9.284   2.592  23.799  0.00  0.00    +0.060 A 
ATOM     20  C   UNL     1       8.204   1.800  23.379  0.00  0.00    +0.062 A 
ATOM     21  C   UNL     1       7.096   2.442  22.798  0.00  0.00    +0.128 A 
ATOM     22  C   UNL     1       7.076   3.828  22.632  0.00  0.00    +0.050 A 
ATOM     23  C   UNL     1       8.160   4.595  23.069  0.00  0.00    +0.049 A 
BRANCH  18  25
ATOM     24  C   UNL     1      11.501   4.634  23.420  0.00  0.00    +0.277 C 
ATOM     25  O   UNL     1      10.257   4.815  24.092  0.00  0.00    -0.495 OA
ENDBRANCH  18  25
BRANCH  21  26
ATOM     26  O   UNL     1       6.008   1.706  22.395  0.00  0.00    -0.506 OA
ATOM     27  H   UNL     1       5.287   1.861  23.034  0.00  0.00    +0.292 HD
ENDBRANCH  21  26
ENDBRANCH   1  20
TORSDOF 4
ENDMDL
MODEL 7
REMARK VINA RESULT:      -6.6      3.002      7.556
REMARK  Name = 
REMARK  5 active torsions:
REMARK  status: ('A' for Active; 'I' for Inactive)
REMARK    1  A    between atoms: C_1  and  O_2
REMARK    2  A    between atoms: O_2  and  C_3
REMARK    3  A    between atoms: C_6  and  O_7
REMARK    4  A    between atoms: C_8  and  C_10
REMARK    5  A    between atoms: C_17  and  C_19
REMARK                            x       y       z     vdW  Elec       q    Type
REMARK                         _______ _______ _______ _____ _____    ______ ____
ROOT
ATOM      1  C   UNL     1       9.548   1.761  23.554  0.00  0.00    +0.143 A 
ATOM      2  N   UNL     1      10.298   0.689  23.977  0.00  0.00    -0.338 N 
ATOM      3  H   UNL     1      11.228   0.779  24.367  0.00  0.00    +0.167 HD
ATOM      4  C   UNL     1       9.595  -0.462  23.746  0.00  0.00    +0.067 A 
ATOM      5  C   UNL     1       9.886  -1.806  23.962  0.00  0.00    +0.028 A 
ATOM      6  C   UNL     1       8.894  -2.727  23.593  0.00  0.00    +0.018 A 
ATOM      7  C   UNL     1       7.669  -2.329  23.017  0.00  0.00    +0.063 A 
ATOM      8  C   UNL     1       7.429  -0.956  22.814  0.00  0.00    +0.045 A 
ATOM      9  C   UNL     1       8.405  -0.023  23.190  0.00  0.00    +0.090 A 
ATOM     10  N   UNL     1       8.383   1.340  23.084  0.00  0.00    -0.228 NA
ENDROOT
BRANCH   7  11
ATOM     11  C   UNL     1       6.652  -3.328  22.629  0.00  0.00    +0.266 C 
ATOM     12  N   UNL     1       7.019  -4.448  22.042  0.00  0.00    -0.288 N 
ATOM     13  H   UNL     1       6.356  -5.160  21.767  0.00  0.00    +0.301 HD
ATOM     14  H   UNL     1       7.994  -4.621  21.824  0.00  0.00    +0.301 HD
ATOM     15  N   UNL     1       5.376  -3.097  22.861  0.00  0.00    -0.250 N 
ATOM     16  H   UNL     1       4.648  -3.744  22.593  0.00  0.00    +0.288 HD
ATOM     17  H   UNL     1       5.084  -2.251  23.340  0.00  0.00    +0.288 HD
ENDBRANCH   7  11
BRANCH   1  20
ATOM     18  C   UNL     1      11.900   4.685  23.402  0.00  0.00    +0.121 A 
ATOM     19  C   UNL     1      11.368   3.399  23.321  0.00  0.00    +0.060 A 
ATOM     20  C   UNL     1      10.016   3.149  23.602  0.00  0.00    +0.062 A 
ATOM     21  C   UNL     1       9.195   4.239  23.939  0.00  0.00    +0.128 A 
ATOM     22  C   UNL     1       9.708   5.537  23.982  0.00  0.00    +0.050 A 
ATOM     23  C   UNL     1      11.061   5.758  23.708  0.00  0.00    +0.049 A 
BRANCH  18  25
ATOM     24  C   UNL     1      13.449   5.739  21.979  0.00  0.00    +0.277 C 
ATOM     25  O   UNL     1      13.212   4.997  23.173  0.00  0.00    -0.495 OA
ENDBRANCH  18  25
BRANCH  21  26
ATOM     26  O   UNL     1       7.871   4.035  24.245  0.00  0.00    -0.506 OA
ATOM     27  H   UNL     1       7.816   3.769  25.182  0.00  0.00    +0.292 HD
ENDBRANCH  21  26
ENDBRANCH   1  20
TORSDOF 4
ENDMDL
MODEL 8
REMARK VINA RESULT:      -6.6      2.382      3.488
REMARK  Name = 
REMARK  5 active torsions:
REMARK  status: ('A' for Active; 'I' for Inactive)
REMARK    1  A    between atoms: C_1  and  O_2
REMARK    2  A    between atoms: O_2  and  C_3
REMARK    3  A    between atoms: C_6  and  O_7
REMARK    4  A    between atoms: C_8  and  C_10
REMARK    5  A    between atoms: C_17  and  C_19
REMARK                            x       y       z     vdW  Elec       q    Type
REMARK                         _______ _______ _______ _____ _____    ______ ____
ROOT
ATOM      1  C   UNL     1       7.979  -1.848  23.875  0.00  0.00    +0.143 A 
ATOM      2  N   UNL     1       8.451  -1.590  22.609  0.00  0.00    -0.338 N 
ATOM      3  H   UNL     1       8.424  -2.266  21.855  0.00  0.00    +0.167 HD
ATOM      4  C   UNL     1       8.970  -0.324  22.580  0.00  0.00    +0.067 A 
ATOM      5  C   UNL     1       9.582   0.423  21.578  0.00  0.00    +0.028 A 
ATOM      6  C   UNL     1       9.992   1.718  21.926  0.00  0.00    +0.018 A 
ATOM      7  C   UNL     1       9.816   2.245  23.224  0.00  0.00    +0.063 A 
ATOM      8  C   UNL     1       9.197   1.443  24.202  0.00  0.00    +0.045 A 
ATOM      9  C   UNL     1       8.769   0.151  23.865  0.00  0.00    +0.090 A 
ATOM     10  N   UNL     1       8.154  -0.787  24.648  0.00  0.00    -0.228 NA
ENDROOT
BRANCH   7  11
ATOM     11  C   UNL     1      10.271   3.609  23.559  0.00  0.00    +0.266 C 
ATOM     12  N   UNL     1      11.461   4.020  23.172  0.00  0.00    -0.288 N 
ATOM     13  H   UNL     1      11.808   4.948  23.375  0.00  0.00    +0.301 HD
ATOM     14  H   UNL     1      12.085   3.397  22.672  0.00  0.00    +0.301 HD
ATOM     15  N   UNL     1       9.493   4.415  24.251  0.00  0.00    -0.250 N 
ATOM     16  H   UNL     1       9.774   5.348  24.518  0.00  0.00    +0.288 HD
ATOM     17  H   UNL     1       8.561   4.120  24.528  0.00  0.00    +0.288 HD
ENDBRANCH   7  11
BRANCH   1  20
ATOM     18  C   UNL     1       6.418  -5.251  23.574  0.00  0.00    +0.121 A 
ATOM     19  C   UNL     1       7.024  -4.034  23.270  0.00  0.00    +0.060 A 
ATOM     20  C   UNL     1       7.402  -3.134  24.279  0.00  0.00    +0.062 A 
ATOM     21  C   UNL     1       7.181  -3.504  25.617  0.00  0.00    +0.128 A 
ATOM     22  C   UNL     1       6.612  -4.739  25.934  0.00  0.00    +0.050 A 
ATOM     23  C   UNL     1       6.235  -5.613  24.910  0.00  0.00    +0.049 A 
BRANCH  18  25
ATOM     24  C   UNL     1       6.226  -5.778  21.290  0.00  0.00    +0.277 C 
ATOM     25  O   UNL     1       5.995  -6.160  22.644  0.00  0.00    -0.495 OA
ENDBRANCH  18  25
BRANCH  21  26
ATOM     26  O   UNL     1       7.514  -2.642  26.633  0.00  0.00    -0.506 OA
ATOM     27  H   UNL     1       8.483  -2.662  26.739  0.00  0.00    +0.292 HD
ENDBRANCH  21  26
ENDBRANCH   1  20
TORSDOF 4
ENDMDL
MODEL 9
REMARK VINA RESULT:      -6.5      3.932      8.458
REMARK  Name = 
REMARK  5 active torsions:
REMARK  status: ('A' for Active; 'I' for Inactive)
REMARK    1  A    between atoms: C_1  and  O_2
REMARK    2  A    between atoms: O_2  and  C_3
REMARK    3  A    between atoms: C_6  and  O_7
REMARK    4  A    between atoms: C_8  and  C_10
REMARK    5  A    between atoms: C_17  and  C_19
REMARK                            x       y       z     vdW  Elec       q    Type
REMARK                         _______ _______ _______ _____ _____    ______ ____
ROOT
ATOM      1  C   UNL     1       8.107  -1.772  24.120  0.00  0.00    +0.143 A 
ATOM      2  N   UNL     1       8.915  -2.428  25.019  0.00  0.00    -0.338 N 
ATOM      3  H   UNL     1       9.860  -2.138  25.235  0.00  0.00    +0.167 HD
ATOM      4  C   UNL     1       8.240  -3.514  25.510  0.00  0.00    +0.067 A 
ATOM      5  C   UNL     1       8.587  -4.510  26.416  0.00  0.00    +0.028 A 
ATOM      6  C   UNL     1       7.609  -5.480  26.684  0.00  0.00    +0.018 A 
ATOM      7  C   UNL     1       6.342  -5.469  26.061  0.00  0.00    +0.063 A 
ATOM      8  C   UNL     1       6.046  -4.440  25.146  0.00  0.00    +0.045 A 
ATOM      9  C   UNL     1       7.008  -3.456  24.880  0.00  0.00    +0.090 A 
ATOM     10  N   UNL     1       6.934  -2.382  24.037  0.00  0.00    -0.228 NA
ENDROOT
BRANCH   7  11
ATOM     11  C   UNL     1       5.342  -6.514  26.357  0.00  0.00    +0.266 C 
ATOM     12  N   UNL     1       5.325  -7.096  27.538  0.00  0.00    -0.288 N 
ATOM     13  H   UNL     1       4.653  -7.810  27.782  0.00  0.00    +0.301 HD
ATOM     14  H   UNL     1       6.015  -6.856  28.241  0.00  0.00    +0.301 HD
ATOM     15  N   UNL     1       4.468  -6.872  25.438  0.00  0.00    -0.250 N 
ATOM     16  H   UNL     1       3.781  -7.596  25.592  0.00  0.00    +0.288 HD
ATOM     17  H   UNL     1       4.452  -6.409  24.534  0.00  0.00    +0.288 HD
ENDBRANCH   7  11
BRANCH   1  20
ATOM     18  C   UNL     1       8.243   1.797  22.956  0.00  0.00    +0.121 A 
ATOM     19  C   UNL     1       7.933   0.641  23.671  0.00  0.00    +0.060 A 
ATOM     20  C   UNL     1       8.530  -0.591  23.361  0.00  0.00    +0.062 A 
ATOM     21  C   UNL     1       9.478  -0.628  22.324  0.00  0.00    +0.128 A 
ATOM     22  C   UNL     1       9.826   0.532  21.630  0.00  0.00    +0.050 A 
ATOM     23  C   UNL     1       9.210   1.745  21.951  0.00  0.00    +0.049 A 
BRANCH  18  25
ATOM     24  C   UNL     1       6.866   3.508  22.115  0.00  0.00    +0.277 C 
ATOM     25  O   UNL     1       7.678   3.022  23.182  0.00  0.00    -0.495 OA
ENDBRANCH  18  25
BRANCH  21  26
ATOM     26  O   UNL     1      10.068  -1.818  21.973  0.00  0.00    -0.506 OA
ATOM     27  H   UNL     1      11.023  -1.658  21.857  0.00  0.00    +0.292 HD
ENDBRANCH  21  26
ENDBRANCH   1  20
TORSDOF 4
ENDMDL
