MODEL 1
REMARK VINA RESULT:      -7.1      0.000      0.000
REMARK  Name = 
REMARK  17 active torsions:
REMARK  status: ('A' for Active; 'I' for Inactive)
REMARK    1  A    between atoms: N_1  and  C_2
REMARK    2  A    between atoms: C_2  and  C_3
REMARK    3  A    between atoms: N_7  and  C_9
REMARK    4  A    between atoms: C_12  and  C_14
REMARK    5  A    between atoms: C_14  and  O_15
REMARK    6  A    between atoms: O_15  and  P_16
REMARK    7  A    between atoms: P_16  and  O_19
REMARK    8  A    between atoms: O_19  and  P_20
REMARK    9  A    between atoms: P_20  and  O_21
REMARK   10  A    between atoms: P_20  and  O_23
REMARK   11  A    between atoms: O_23  and  C_24
REMARK   12  A    between atoms: C_24  and  C_25
REMARK   13  A    between atoms: C_28  and  N_36
REMARK   14  A    between atoms: C_30  and  O_32
REMARK   15  A    between atoms: C_33  and  O_35
REMARK   16  A    between atoms: C_46  and  O_48
REMARK   17  A    between atoms: C_49  and  O_51
REMARK                            x       y       z     vdW  Elec       q    Type
REMARK                         _______ _______ _______ _____ _____    ______ ____
ROOT
ATOM      1  P   UNL     1       6.698  -5.099  27.465  0.00  0.00    +0.480 P 
ATOM      2  O   UNL     1       5.690  -5.645  26.448  0.00  0.00    -0.227 OA
ENDROOT
BRANCH   1   3
ATOM      3  O   UNL     1       6.853  -6.305  28.552  0.00  0.00    -0.302 OA
ATOM      4  H   UNL     1       7.582  -6.891  28.269  0.00  0.00    +0.222 HD
ENDBRANCH   1   3
BRANCH   1   5
ATOM      5  O   UNL     1       5.513  -4.317  28.457  0.00  0.00    -0.229 OA
BRANCH   5   6
ATOM      6  P   UNL     1       4.167  -3.842  27.480  0.00  0.00    +0.222 P 
ATOM      7  O   UNL     1       2.820  -3.367  26.504  0.00  0.00    -0.437 OA
ATOM      8  O   UNL     1       3.342  -3.930  28.783  0.00  0.00    -0.517 OA
BRANCH   6   9
ATOM      9  O   UNL     1       4.811  -2.282  27.495  0.00  0.00    -0.324 OA
BRANCH   9  10
ATOM     10  C   UNL     1       4.033  -1.282  26.853  0.00  0.00    +0.202 C 
BRANCH  10  14
ATOM     11  C   UNL     1       7.116   0.444  26.073  0.00  0.00    +0.439 C 
ATOM     12  C   UNL     1       6.765   1.145  27.394  0.00  0.00    +0.244 C 
ATOM     13  C   UNL     1       5.309   0.767  27.667  0.00  0.00    +0.183 C 
ATOM     14  C   UNL     1       4.926  -0.121  26.484  0.00  0.00    +0.182 C 
ATOM     15  O   UNL     1       6.159  -0.603  25.919  0.00  0.00    -0.309 OA
BRANCH  11  18
ATOM     16  C   UNL     1       7.617   3.481  23.914  0.00  0.00    +0.030 A 
ATOM     17  C   UNL     1       7.688   2.574  24.977  0.00  0.00    +0.316 A 
ATOM     18  N   UNL     1       7.072   1.368  24.899  0.00  0.00    -0.174 N 
ATOM     19  C   UNL     1       6.465   0.992  23.747  0.00  0.00    +0.311 A 
ATOM     20  C   UNL     1       6.350   1.860  22.676  0.00  0.00    +0.070 A 
ATOM     21  C   UNL     1       6.919   3.120  22.762  0.00  0.00    +0.016 A 
BRANCH  16  22
ATOM     22  C   UNL     1       8.291   4.822  24.019  0.00  0.00    +0.119 C 
BRANCH  22  23
ATOM     23  N   UNL     1       9.609   4.773  23.405  0.00  0.00    -0.326 NA
ATOM     24  H   UNL     1       9.896   5.718  23.139  0.00  0.00    +0.119 HD
ATOM     25  H   UNL     1      10.291   4.488  24.114  0.00  0.00    +0.119 HD
ENDBRANCH  22  23
ENDBRANCH  16  22
ENDBRANCH  11  18
BRANCH  12  26
ATOM     26  O   UNL     1       7.636   0.683  28.440  0.00  0.00    -0.380 OA
ATOM     27  H   UNL     1       7.106   0.445  29.227  0.00  0.00    +0.210 HD
ENDBRANCH  12  26
BRANCH  13  28
ATOM     28  O   UNL     1       4.505   1.948  27.675  0.00  0.00    -0.386 OA
ATOM     29  H   UNL     1       4.463   2.212  28.619  0.00  0.00    +0.210 HD
ENDBRANCH  13  28
ENDBRANCH  10  14
ENDBRANCH   9  10
ENDBRANCH   6   9
ENDBRANCH   5   6
ENDBRANCH   1   5
BRANCH   1  30
ATOM     30  O   UNL     1       7.880  -5.880  26.475  0.00  0.00    -0.284 OA
BRANCH  30  31
ATOM     31  C   UNL     1       9.042  -5.134  26.156  0.00  0.00    +0.206 C 
BRANCH  31  32
ATOM     32  C   UNL     1       9.180  -5.028  24.631  0.00  0.00    +0.178 C 
ATOM     33  C   UNL     1       7.837  -5.096  23.905  0.00  0.00    +0.178 C 
ATOM     34  C   UNL     1       7.440  -3.642  23.657  0.00  0.00    +0.195 C 
ATOM     35  C   UNL     1       8.646  -2.826  24.151  0.00  0.00    +0.253 C 
ATOM     36  O   UNL     1       9.751  -3.753  24.247  0.00  0.00    -0.346 OA
BRANCH  35  37
ATOM     37  N   UNL     1       8.978  -1.737  23.250  0.00  0.00    -0.286 N 
ATOM     38  C   UNL     1       9.688  -0.627  23.625  0.00  0.00    +0.167 A 
ATOM     39  N   UNL     1      10.205  -0.358  24.837  0.00  0.00    -0.216 NA
ATOM     40  C   UNL     1      10.822   0.843  24.831  0.00  0.00    +0.225 A 
ATOM     41  N   UNL     1      10.931   1.725  23.814  0.00  0.00    -0.219 NA
ATOM     42  C   UNL     1      10.364   1.414  22.625  0.00  0.00    +0.147 A 
ATOM     43  N   UNL     1      10.459   2.338  21.593  0.00  0.00    -0.341 N 
ATOM     44  H   UNL     1      10.354   1.924  20.674  0.00  0.00    +0.144 HD
ATOM     45  H   UNL     1      11.226   2.982  21.733  0.00  0.00    +0.144 HD
ATOM     46  C   UNL     1       9.723   0.170  22.493  0.00  0.00    +0.147 A 
ATOM     47  N   UNL     1       9.091  -0.455  21.437  0.00  0.00    -0.231 NA
ATOM     48  C   UNL     1       8.672  -1.607  21.924  0.00  0.00    +0.203 A 
ENDBRANCH  35  37
BRANCH  34  49
ATOM     49  O   UNL     1       6.234  -3.310  24.346  0.00  0.00    -0.385 OA
ATOM     50  H   UNL     1       5.497  -3.699  23.830  0.00  0.00    +0.210 HD
ENDBRANCH  34  49
BRANCH  33  51
ATOM     51  O   UNL     1       8.017  -5.775  22.652  0.00  0.00    -0.386 OA
ATOM     52  H   UNL     1       8.564  -5.209  22.071  0.00  0.00    +0.210 HD
ENDBRANCH  33  51
ENDBRANCH  31  32
ENDBRANCH  30  31
ENDBRANCH   1  30
TORSDOF 17
ENDMDL
MODEL 2
REMARK VINA RESULT:      -7.0      3.689      6.965
REMARK  Name = 
REMARK  17 active torsions:
REMARK  status: ('A' for Active; 'I' for Inactive)
REMARK    1  A    between atoms: N_1  and  C_2
REMARK    2  A    between atoms: C_2  and  C_3
REMARK    3  A    between atoms: N_7  and  C_9
REMARK    4  A    between atoms: C_12  and  C_14
REMARK    5  A    between atoms: C_14  and  O_15
REMARK    6  A    between atoms: O_15  and  P_16
REMARK    7  A    between atoms: P_16  and  O_19
REMARK    8  A    between atoms: O_19  and  P_20
REMARK    9  A    between atoms: P_20  and  O_21
REMARK   10  A    between atoms: P_20  and  O_23
REMARK   11  A    between atoms: O_23  and  C_24
REMARK   12  A    between atoms: C_24  and  C_25
REMARK   13  A    between atoms: C_28  and  N_36
REMARK   14  A    between atoms: C_30  and  O_32
REMARK   15  A    between atoms: C_33  and  O_35
REMARK   16  A    between atoms: C_46  and  O_48
REMARK   17  A    between atoms: C_49  and  O_51
REMARK                            x       y       z     vdW  Elec       q    Type
REMARK                         _______ _______ _______ _____ _____    ______ ____
ROOT
ATOM      1  P   UNL     1       8.211  -4.596  24.599  0.00  0.00    +0.480 P 
ATOM      2  O   UNL     1       9.668  -5.047  24.751  0.00  0.00    -0.227 OA
ENDROOT
BRANCH   1   3
ATOM      3  O   UNL     1       7.377  -5.638  25.537  0.00  0.00    -0.302 OA
ATOM      4  H   UNL     1       7.982  -6.343  25.838  0.00  0.00    +0.222 HD
ENDBRANCH   1   3
BRANCH   1   5
ATOM      5  O   UNL     1       7.894  -5.558  23.195  0.00  0.00    -0.229 OA
BRANCH   5   6
ATOM      6  P   UNL     1       6.919  -4.656  22.087  0.00  0.00    +0.222 P 
ATOM      7  O   UNL     1       5.945  -3.755  20.978  0.00  0.00    -0.437 OA
ATOM      8  O   UNL     1       6.439  -6.032  21.574  0.00  0.00    -0.517 OA
BRANCH   6   9
ATOM      9  O   UNL     1       5.901  -4.314  23.388  0.00  0.00    -0.324 OA
BRANCH   9  10
ATOM     10  C   UNL     1       4.507  -4.372  23.119  0.00  0.00    +0.202 C 
BRANCH  10  14
ATOM     11  C   UNL     1       3.797  -7.328  25.080  0.00  0.00    +0.439 C 
ATOM     12  C   UNL     1       2.454  -7.186  24.348  0.00  0.00    +0.244 C 
ATOM     13  C   UNL     1       2.480  -5.782  23.745  0.00  0.00    +0.183 C 
ATOM     14  C   UNL     1       3.833  -5.216  24.175  0.00  0.00    +0.182 C 
ATOM     15  O   UNL     1       4.660  -6.345  24.510  0.00  0.00    -0.309 OA
BRANCH  11  18
ATOM     16  C   UNL     1       4.711  -6.717  28.675  0.00  0.00    +0.030 A 
ATOM     17  C   UNL     1       4.787  -6.859  27.286  0.00  0.00    +0.316 A 
ATOM     18  N   UNL     1       3.675  -7.124  26.555  0.00  0.00    -0.174 N 
ATOM     19  C   UNL     1       2.461  -7.152  27.159  0.00  0.00    +0.311 A 
ATOM     20  C   UNL     1       2.336  -7.039  28.532  0.00  0.00    +0.070 A 
ATOM     21  C   UNL     1       3.469  -6.832  29.300  0.00  0.00    +0.016 A 
BRANCH  16  22
ATOM     22  C   UNL     1       5.954  -6.440  29.476  0.00  0.00    +0.119 C 
BRANCH  22  23
ATOM     23  N   UNL     1       7.120  -6.411  28.606  0.00  0.00    -0.326 NA
ATOM     24  H   UNL     1       7.429  -5.445  28.482  0.00  0.00    +0.119 HD
ATOM     25  H   UNL     1       7.899  -6.871  29.085  0.00  0.00    +0.119 HD
ENDBRANCH  22  23
ENDBRANCH  16  22
ENDBRANCH  11  18
BRANCH  12  26
ATOM     26  O   UNL     1       2.341  -8.196  23.331  0.00  0.00    -0.380 OA
ATOM     27  H   UNL     1       2.788  -9.014  23.630  0.00  0.00    +0.210 HD
ENDBRANCH  12  26
BRANCH  13  28
ATOM     28  O   UNL     1       1.422  -5.003  24.307  0.00  0.00    -0.386 OA
ATOM     29  H   UNL     1       1.877  -4.295  24.812  0.00  0.00    +0.210 HD
ENDBRANCH  13  28
ENDBRANCH  10  14
ENDBRANCH   9  10
ENDBRANCH   6   9
ENDBRANCH   5   6
ENDBRANCH   1   5
BRANCH   1  30
ATOM     30  O   UNL     1       8.528  -3.636  26.002  0.00  0.00    -0.284 OA
BRANCH  30  31
ATOM     31  C   UNL     1       7.940  -2.347  26.041  0.00  0.00    +0.206 C 
BRANCH  31  32
ATOM     32  C   UNL     1       7.916  -1.752  24.626  0.00  0.00    +0.178 C 
ATOM     33  C   UNL     1       6.606  -1.035  24.305  0.00  0.00    +0.178 C 
ATOM     34  C   UNL     1       6.877   0.443  24.583  0.00  0.00    +0.195 C 
ATOM     35  C   UNL     1       8.373   0.497  24.934  0.00  0.00    +0.253 C 
ATOM     36  O   UNL     1       8.945  -0.745  24.467  0.00  0.00    -0.346 OA
BRANCH  35  37
ATOM     37  N   UNL     1       9.042   1.626  24.311  0.00  0.00    -0.286 N 
ATOM     38  C   UNL     1       8.840   2.929  24.682  0.00  0.00    +0.167 A 
ATOM     39  N   UNL     1       8.038   3.387  25.660  0.00  0.00    -0.216 NA
ATOM     40  C   UNL     1       8.084   4.735  25.716  0.00  0.00    +0.225 A 
ATOM     41  N   UNL     1       8.782   5.584  24.930  0.00  0.00    -0.219 NA
ATOM     42  C   UNL     1       9.550   5.067  23.942  0.00  0.00    +0.147 A 
ATOM     43  N   UNL     1      10.243   5.949  23.124  0.00  0.00    -0.341 N 
ATOM     44  H   UNL     1      11.046   5.527  22.671  0.00  0.00    +0.144 HD
ATOM     45  H   UNL     1      10.372   6.850  23.564  0.00  0.00    +0.144 HD
ATOM     46  C   UNL     1       9.615   3.671  23.805  0.00  0.00    +0.147 A 
ATOM     47  N   UNL     1      10.311   2.841  22.949  0.00  0.00    -0.231 NA
ATOM     48  C   UNL     1       9.955   1.619  23.295  0.00  0.00    +0.203 A 
ENDBRANCH  35  37
BRANCH  34  49
ATOM     49  O   UNL     1       6.048   0.931  25.639  0.00  0.00    -0.385 OA
ATOM     50  H   UNL     1       5.291   0.314  25.712  0.00  0.00    +0.210 HD
ENDBRANCH  34  49
BRANCH  33  51
ATOM     51  O   UNL     1       6.300  -1.222  22.914  0.00  0.00    -0.386 OA
ATOM     52  H   UNL     1       5.828  -2.072  22.814  0.00  0.00    +0.210 HD
ENDBRANCH  33  51
ENDBRANCH  31  32
ENDBRANCH  30  31
ENDBRANCH   1  30
TORSDOF 17
ENDMDL
MODEL 3
REMARK VINA RESULT:      -6.9      3.406      6.400
REMARK  Name = 
REMARK  17 active torsions:
REMARK  status: ('A' for Active; 'I' for Inactive)
REMARK    1  A    between atoms: N_1  and  C_2
REMARK    2  A    between atoms: C_2  and  C_3
REMARK    3  A    between atoms: N_7  and  C_9
REMARK    4  A    between atoms: C_12  and  C_14
REMARK    5  A    between atoms: C_14  and  O_15
REMARK    6  A    between atoms: O_15  and  P_16
REMARK    7  A    between atoms: P_16  and  O_19
REMARK    8  A    between atoms: O_19  and  P_20
REMARK    9  A    between atoms: P_20  and  O_21
REMARK   10  A    between atoms: P_20  and  O_23
REMARK   11  A    between atoms: O_23  and  C_24
REMARK   12  A    between atoms: C_24  and  C_25
REMARK   13  A    between atoms: C_28  and  N_36
REMARK   14  A    between atoms: C_30  and  O_32
REMARK   15  A    between atoms: C_33  and  O_35
REMARK   16  A    between atoms: C_46  and  O_48
REMARK   17  A    between atoms: C_49  and  O_51
REMARK                            x       y       z     vdW  Elec       q    Type
REMARK                         _______ _______ _______ _____ _____    ______ ____
ROOT
ATOM      1  P   UNL     1       7.015   3.847  26.690  0.00  0.00    +0.480 P 
ATOM      2  O   UNL     1       5.577   3.744  26.170  0.00  0.00    -0.227 OA
ENDROOT
BRANCH   1   3
ATOM      3  O   UNL     1       7.459   2.296  26.932  0.00  0.00    -0.302 OA
ATOM      4  H   UNL     1       7.644   1.885  26.066  0.00  0.00    +0.222 HD
ENDBRANCH   1   3
BRANCH   1   5
ATOM      5  O   UNL     1       6.569   4.011  28.354  0.00  0.00    -0.229 OA
BRANCH   5   6
ATOM      6  P   UNL     1       7.020   2.581  29.215  0.00  0.00    +0.222 P 
ATOM      7  O   UNL     1       7.473   1.151  30.078  0.00  0.00    -0.437 OA
ATOM      8  O   UNL     1       6.916   3.455  30.485  0.00  0.00    -0.517 OA
BRANCH   6   9
ATOM      9  O   UNL     1       5.448   2.026  28.957  0.00  0.00    -0.324 OA
BRANCH   9  10
ATOM     10  C   UNL     1       5.191   0.683  29.341  0.00  0.00    +0.202 C 
BRANCH  10  14
ATOM     11  C   UNL     1       5.997  -0.881  26.179  0.00  0.00    +0.439 C 
ATOM     12  C   UNL     1       4.910   0.095  25.705  0.00  0.00    +0.244 C 
ATOM     13  C   UNL     1       4.229   0.579  26.985  0.00  0.00    +0.183 C 
ATOM     14  C   UNL     1       4.970  -0.153  28.103  0.00  0.00    +0.182 C 
ATOM     15  O   UNL     1       6.233  -0.567  27.552  0.00  0.00    -0.309 OA
BRANCH  11  18
ATOM     16  C   UNL     1       5.843  -4.605  26.678  0.00  0.00    +0.030 A 
ATOM     17  C   UNL     1       6.162  -3.251  26.829  0.00  0.00    +0.316 A 
ATOM     18  N   UNL     1       5.592  -2.312  26.033  0.00  0.00    -0.174 N 
ATOM     19  C   UNL     1       4.629  -2.671  25.149  0.00  0.00    +0.311 A 
ATOM     20  C   UNL     1       4.293  -3.998  24.946  0.00  0.00    +0.070 A 
ATOM     21  C   UNL     1       4.912  -4.975  25.707  0.00  0.00    +0.016 A 
BRANCH  16  22
ATOM     22  C   UNL     1       6.494  -5.638  27.556  0.00  0.00    +0.119 C 
BRANCH  22  23
ATOM     23  N   UNL     1       7.927  -5.683  27.305  0.00  0.00    -0.326 NA
ATOM     24  H   UNL     1       8.387  -4.931  27.822  0.00  0.00    +0.119 HD
ATOM     25  H   UNL     1       8.305  -6.543  27.712  0.00  0.00    +0.119 HD
ENDBRANCH  22  23
ENDBRANCH  16  22
ENDBRANCH  11  18
BRANCH  12  26
ATOM     26  O   UNL     1       5.510   1.182  24.981  0.00  0.00    -0.380 OA
ATOM     27  H   UNL     1       6.343   1.448  25.419  0.00  0.00    +0.210 HD
ENDBRANCH  12  26
BRANCH  13  28
ATOM     28  O   UNL     1       2.854   0.189  26.970  0.00  0.00    -0.386 OA
ATOM     29  H   UNL     1       2.488   0.544  27.808  0.00  0.00    +0.210 HD
ENDBRANCH  13  28
ENDBRANCH  10  14
ENDBRANCH   9  10
ENDBRANCH   6   9
ENDBRANCH   5   6
ENDBRANCH   1   5
BRANCH   1  30
ATOM     30  O   UNL     1       7.460   3.683  25.027  0.00  0.00    -0.284 OA
BRANCH  30  31
ATOM     31  C   UNL     1       8.680   3.016  24.754  0.00  0.00    +0.206 C 
BRANCH  31  32
ATOM     32  C   UNL     1       8.596   2.334  23.381  0.00  0.00    +0.178 C 
ATOM     33  C   UNL     1       9.942   1.795  22.901  0.00  0.00    +0.178 C 
ATOM     34  C   UNL     1       9.944   0.317  23.286  0.00  0.00    +0.195 C 
ATOM     35  C   UNL     1       8.539   0.069  23.860  0.00  0.00    +0.253 C 
ATOM     36  O   UNL     1       7.722   1.179  23.427  0.00  0.00    -0.346 OA
BRANCH  35  37
ATOM     37  N   UNL     1       7.972  -1.185  23.400  0.00  0.00    -0.286 N 
ATOM     38  C   UNL     1       8.387  -2.416  23.839  0.00  0.00    +0.167 A 
ATOM     39  N   UNL     1       9.339  -2.680  24.752  0.00  0.00    -0.216 NA
ATOM     40  C   UNL     1       9.483  -4.013  24.910  0.00  0.00    +0.225 A 
ATOM     41  N   UNL     1       8.832  -5.009  24.271  0.00  0.00    -0.219 NA
ATOM     42  C   UNL     1       7.905  -4.683  23.339  0.00  0.00    +0.147 A 
ATOM     43  N   UNL     1       7.259  -5.714  22.670  0.00  0.00    -0.341 N 
ATOM     44  H   UNL     1       6.365  -5.439  22.280  0.00  0.00    +0.144 HD
ATOM     45  H   UNL     1       7.301  -6.582  23.186  0.00  0.00    +0.144 HD
ATOM     46  C   UNL     1       7.636  -3.323  23.110  0.00  0.00    +0.147 A 
ATOM     47  N   UNL     1       6.750  -2.667  22.279  0.00  0.00    -0.231 NA
ATOM     48  C   UNL     1       6.969  -1.384  22.494  0.00  0.00    +0.203 A 
ENDBRANCH  35  37
BRANCH  34  49
ATOM     49  O   UNL     1      10.980   0.029  24.227  0.00  0.00    -0.385 OA
ATOM     50  H   UNL     1      10.967  -0.939  24.374  0.00  0.00    +0.210 HD
ENDBRANCH  34  49
BRANCH  33  51
ATOM     51  O   UNL     1      10.015   1.927  21.472  0.00  0.00    -0.386 OA
ATOM     52  H   UNL     1      10.560   1.195  21.122  0.00  0.00    +0.210 HD
ENDBRANCH  33  51
ENDBRANCH  31  32
ENDBRANCH  30  31
ENDBRANCH   1  30
TORSDOF 17
ENDMDL
MODEL 4
REMARK VINA RESULT:      -6.8      4.012      6.514
REMARK  Name = 
REMARK  17 active torsions:
REMARK  status: ('A' for Active; 'I' for Inactive)
REMARK    1  A    between atoms: N_1  and  C_2
REMARK    2  A    between atoms: C_2  and  C_3
REMARK    3  A    between atoms: N_7  and  C_9
REMARK    4  A    between atoms: C_12  and  C_14
REMARK    5  A    between atoms: C_14  and  O_15
REMARK    6  A    between atoms: O_15  and  P_16
REMARK    7  A    between atoms: P_16  and  O_19
REMARK    8  A    between atoms: O_19  and  P_20
REMARK    9  A    between atoms: P_20  and  O_21
REMARK   10  A    between atoms: P_20  and  O_23
REMARK   11  A    between atoms: O_23  and  C_24
REMARK   12  A    between atoms: C_24  and  C_25
REMARK   13  A    between atoms: C_28  and  N_36
REMARK   14  A    between atoms: C_30  and  O_32
REMARK   15  A    between atoms: C_33  and  O_35
REMARK   16  A    between atoms: C_46  and  O_48
REMARK   17  A    between atoms: C_49  and  O_51
REMARK                            x       y       z     vdW  Elec       q    Type
REMARK                         _______ _______ _______ _____ _____    ______ ____
ROOT
ATOM      1  P   UNL     1       8.678  -1.545  23.596  0.00  0.00    +0.480 P 
ATOM      2  O   UNL     1       9.785  -2.602  23.673  0.00  0.00    -0.227 OA
ENDROOT
BRANCH   1   3
ATOM      3  O   UNL     1       9.244  -0.461  22.517  0.00  0.00    -0.302 OA
ATOM      4  H   UNL     1       9.879   0.129  22.968  0.00  0.00    +0.222 HD
ENDBRANCH   1   3
BRANCH   1   5
ATOM      5  O   UNL     1       9.277  -0.594  24.912  0.00  0.00    -0.229 OA
BRANCH   5   6
ATOM      6  P   UNL     1       8.046  -0.437  26.117  0.00  0.00    +0.222 P 
ATOM      7  O   UNL     1       6.816  -0.282  27.323  0.00  0.00    -0.437 OA
ATOM      8  O   UNL     1       9.139  -0.870  27.120  0.00  0.00    -0.517 OA
BRANCH   6   9
ATOM      9  O   UNL     1       8.239   1.233  25.981  0.00  0.00    -0.324 OA
BRANCH   9  10
ATOM     10  C   UNL     1       7.434   1.874  25.001  0.00  0.00    +0.202 C 
BRANCH  10  14
ATOM     11  C   UNL     1       8.169   5.260  23.957  0.00  0.00    +0.439 C 
ATOM     12  C   UNL     1       8.029   4.598  22.578  0.00  0.00    +0.244 C 
ATOM     13  C   UNL     1       8.062   3.096  22.855  0.00  0.00    +0.183 C 
ATOM     14  C   UNL     1       8.222   3.000  24.372  0.00  0.00    +0.182 C 
ATOM     15  O   UNL     1       7.794   4.265  24.908  0.00  0.00    -0.309 OA
BRANCH  11  18
ATOM     16  C   UNL     1      11.857   5.886  23.575  0.00  0.00    +0.030 A 
ATOM     17  C   UNL     1      10.538   5.494  23.324  0.00  0.00    +0.316 A 
ATOM     18  N   UNL     1       9.558   5.744  24.227  0.00  0.00    -0.174 N 
ATOM     19  C   UNL     1       9.832   6.468  25.339  0.00  0.00    +0.311 A 
ATOM     20  C   UNL     1      11.124   6.860  25.644  0.00  0.00    +0.070 A 
ATOM     21  C   UNL     1      12.148   6.558  24.762  0.00  0.00    +0.016 A 
BRANCH  16  22
ATOM     22  C   UNL     1      12.938   5.589  22.572  0.00  0.00    +0.119 C 
BRANCH  22  23
ATOM     23  N   UNL     1      14.090   4.994  23.233  0.00  0.00    -0.326 NA
ATOM     24  H   UNL     1      14.530   4.316  22.607  0.00  0.00    +0.119 HD
ATOM     25  H   UNL     1      14.801   5.718  23.370  0.00  0.00    +0.119 HD
ENDBRANCH  22  23
ENDBRANCH  16  22
ENDBRANCH  11  18
BRANCH  12  26
ATOM     26  O   UNL     1       6.789   4.996  21.968  0.00  0.00    -0.380 OA
ATOM     27  H   UNL     1       6.368   4.221  21.545  0.00  0.00    +0.210 HD
ENDBRANCH  12  26
BRANCH  13  28
ATOM     28  O   UNL     1       9.195   2.517  22.205  0.00  0.00    -0.386 OA
ATOM     29  H   UNL     1       9.581   1.911  22.874  0.00  0.00    +0.210 HD
ENDBRANCH  13  28
ENDBRANCH  10  14
ENDBRANCH   9  10
ENDBRANCH   6   9
ENDBRANCH   5   6
ENDBRANCH   1   5
BRANCH   1  30
ATOM     30  O   UNL     1       8.081  -2.496  22.281  0.00  0.00    -0.284 OA
BRANCH  30  31
ATOM     31  C   UNL     1       6.721  -2.312  21.925  0.00  0.00    +0.206 C 
BRANCH  31  32
ATOM     32  C   UNL     1       6.013  -3.674  21.888  0.00  0.00    +0.178 C 
ATOM     33  C   UNL     1       6.986  -4.851  21.892  0.00  0.00    +0.178 C 
ATOM     34  C   UNL     1       7.080  -5.291  23.352  0.00  0.00    +0.195 C 
ATOM     35  C   UNL     1       6.054  -4.410  24.083  0.00  0.00    +0.253 C 
ATOM     36  O   UNL     1       5.188  -3.863  23.064  0.00  0.00    -0.346 OA
BRANCH  35  37
ATOM     37  N   UNL     1       5.280  -5.161  25.054  0.00  0.00    -0.286 N 
ATOM     38  C   UNL     1       5.754  -5.530  26.286  0.00  0.00    +0.167 A 
ATOM     39  N   UNL     1       6.963  -5.261  26.811  0.00  0.00    -0.216 NA
ATOM     40  C   UNL     1       7.075  -5.807  28.041  0.00  0.00    +0.225 A 
ATOM     41  N   UNL     1       6.171  -6.552  28.714  0.00  0.00    -0.219 NA
ATOM     42  C   UNL     1       4.982  -6.816  28.122  0.00  0.00    +0.147 A 
ATOM     43  N   UNL     1       4.069  -7.603  28.812  0.00  0.00    -0.341 N 
ATOM     44  H   UNL     1       3.113  -7.466  28.507  0.00  0.00    +0.144 HD
ATOM     45  H   UNL     1       4.250  -7.607  29.806  0.00  0.00    +0.144 HD
ATOM     46  C   UNL     1       4.729  -6.270  26.853  0.00  0.00    +0.147 A 
ATOM     47  N   UNL     1       3.636  -6.314  26.010  0.00  0.00    -0.231 NA
ATOM     48  C   UNL     1       3.998  -5.621  24.948  0.00  0.00    +0.203 A 
ENDBRANCH  35  37
BRANCH  34  49
ATOM     49  O   UNL     1       8.406  -5.126  23.858  0.00  0.00    -0.385 OA
ATOM     50  H   UNL     1       8.576  -5.882  24.457  0.00  0.00    +0.210 HD
ENDBRANCH  34  49
BRANCH  33  51
ATOM     51  O   UNL     1       6.437  -5.913  21.096  0.00  0.00    -0.386 OA
ATOM     52  H   UNL     1       6.057  -6.584  21.697  0.00  0.00    +0.210 HD
ENDBRANCH  33  51
ENDBRANCH  31  32
ENDBRANCH  30  31
ENDBRANCH   1  30
TORSDOF 17
ENDMDL
MODEL 5
REMARK VINA RESULT:      -6.6      3.814      8.356
REMARK  Name = 
REMARK  17 active torsions:
REMARK  status: ('A' for Active; 'I' for Inactive)
REMARK    1  A    between atoms: N_1  and  C_2
REMARK    2  A    between atoms: C_2  and  C_3
REMARK    3  A    between atoms: N_7  and  C_9
REMARK    4  A    between atoms: C_12  and  C_14
REMARK    5  A    between atoms: C_14  and  O_15
REMARK    6  A    between atoms: O_15  and  P_16
REMARK    7  A    between atoms: P_16  and  O_19
REMARK    8  A    between atoms: O_19  and  P_20
REMARK    9  A    between atoms: P_20  and  O_21
REMARK   10  A    between atoms: P_20  and  O_23
REMARK   11  A    between atoms: O_23  and  C_24
REMARK   12  A    between atoms: C_24  and  C_25
REMARK   13  A    between atoms: C_28  and  N_36
REMARK   14  A    between atoms: C_30  and  O_32
REMARK   15  A    between atoms: C_33  and  O_35
REMARK   16  A    between atoms: C_46  and  O_48
REMARK   17  A    between atoms: C_49  and  O_51
REMARK                            x       y       z     vdW  Elec       q    Type
REMARK                         _______ _______ _______ _____ _____    ______ ____
ROOT
ATOM      1  P   UNL     1       9.030   1.414  22.274  0.00  0.00    +0.480 P 
ATOM      2  O   UNL     1       7.764   1.731  21.473  0.00  0.00    -0.227 OA
ENDROOT
BRANCH   1   3
ATOM      3  O   UNL     1      10.192   2.289  21.536  0.00  0.00    -0.302 OA
ATOM      4  H   UNL     1      10.090   2.194  20.569  0.00  0.00    +0.222 HD
ENDBRANCH   1   3
BRANCH   1   5
ATOM      5  O   UNL     1       9.455   0.013  21.350  0.00  0.00    -0.229 OA
BRANCH   5   6
ATOM      6  P   UNL     1      10.027  -1.226  22.412  0.00  0.00    +0.222 P 
ATOM      7  O   UNL     1      10.601  -2.466  23.474  0.00  0.00    -0.437 OA
ATOM      8  O   UNL     1      10.642  -0.073  23.235  0.00  0.00    -0.517 OA
BRANCH   6   9
ATOM      9  O   UNL     1       8.445  -1.354  22.983  0.00  0.00    -0.324 OA
BRANCH   9  10
ATOM     10  C   UNL     1       7.530  -2.035  22.136  0.00  0.00    +0.202 C 
BRANCH  10  14
ATOM     11  C   UNL     1       7.468  -5.334  23.622  0.00  0.00    +0.439 C 
ATOM     12  C   UNL     1       6.438  -5.545  22.502  0.00  0.00    +0.244 C 
ATOM     13  C   UNL     1       6.100  -4.139  22.006  0.00  0.00    +0.183 C 
ATOM     14  C   UNL     1       6.957  -3.220  22.876  0.00  0.00    +0.182 C 
ATOM     15  O   UNL     1       8.018  -4.034  23.408  0.00  0.00    -0.309 OA
BRANCH  11  18
ATOM     16  C   UNL     1       5.055  -6.100  26.401  0.00  0.00    +0.030 A 
ATOM     17  C   UNL     1       5.669  -6.045  25.145  0.00  0.00    +0.316 A 
ATOM     18  N   UNL     1       6.865  -5.428  24.986  0.00  0.00    -0.174 N 
ATOM     19  C   UNL     1       7.526  -4.945  26.068  0.00  0.00    +0.311 A 
ATOM     20  C   UNL     1       6.953  -4.956  27.327  0.00  0.00    +0.070 A 
ATOM     21  C   UNL     1       5.702  -5.526  27.496  0.00  0.00    +0.016 A 
BRANCH  16  22
ATOM     22  C   UNL     1       3.719  -6.774  26.562  0.00  0.00    +0.119 C 
BRANCH  22  23
ATOM     23  N   UNL     1       3.567  -7.834  25.577  0.00  0.00    -0.326 NA
ATOM     24  H   UNL     1       2.947  -7.518  24.829  0.00  0.00    +0.119 HD
ATOM     25  H   UNL     1       4.469  -7.986  25.117  0.00  0.00    +0.119 HD
ENDBRANCH  22  23
ENDBRANCH  16  22
ENDBRANCH  11  18
BRANCH  12  26
ATOM     26  O   UNL     1       7.009  -6.352  21.457  0.00  0.00    -0.380 OA
ATOM     27  H   UNL     1       6.530  -6.190  20.620  0.00  0.00    +0.210 HD
ENDBRANCH  12  26
BRANCH  13  28
ATOM     28  O   UNL     1       4.714  -3.876  22.231  0.00  0.00    -0.386 OA
ATOM     29  H   UNL     1       4.264  -4.722  22.022  0.00  0.00    +0.210 HD
ENDBRANCH  13  28
ENDBRANCH  10  14
ENDBRANCH   9  10
ENDBRANCH   6   9
ENDBRANCH   5   6
ENDBRANCH   1   5
BRANCH   1  30
ATOM     30  O   UNL     1       8.606   2.813  23.197  0.00  0.00    -0.284 OA
BRANCH  30  31
ATOM     31  C   UNL     1       8.989   2.819  24.562  0.00  0.00    +0.206 C 
BRANCH  31  32
ATOM     32  C   UNL     1       7.780   3.198  25.431  0.00  0.00    +0.178 C 
ATOM     33  C   UNL     1       6.488   3.330  24.627  0.00  0.00    +0.178 C 
ATOM     34  C   UNL     1       5.780   1.985  24.779  0.00  0.00    +0.195 C 
ATOM     35  C   UNL     1       6.659   1.200  25.767  0.00  0.00    +0.253 C 
ATOM     36  O   UNL     1       7.507   2.172  26.417  0.00  0.00    -0.346 OA
BRANCH  35  37
ATOM     37  N   UNL     1       5.870   0.481  26.751  0.00  0.00    -0.286 N 
ATOM     38  C   UNL     1       5.189  -0.678  26.482  0.00  0.00    +0.167 A 
ATOM     39  N   UNL     1       5.142  -1.348  25.317  0.00  0.00    -0.216 NA
ATOM     40  C   UNL     1       4.352  -2.437  25.430  0.00  0.00    +0.225 A 
ATOM     41  N   UNL     1       3.650  -2.856  26.505  0.00  0.00    -0.219 NA
ATOM     42  C   UNL     1       3.711  -2.124  27.643  0.00  0.00    +0.147 A 
ATOM     43  N   UNL     1       2.967  -2.550  28.735  0.00  0.00    -0.341 N 
ATOM     44  H   UNL     1       3.320  -2.203  29.619  0.00  0.00    +0.144 HD
ATOM     45  H   UNL     1       2.735  -3.532  28.674  0.00  0.00    +0.144 HD
ATOM     46  C   UNL     1       4.533  -0.985  27.663  0.00  0.00    +0.147 A 
ATOM     47  N   UNL     1       4.841  -0.064  28.645  0.00  0.00    -0.231 NA
ATOM     48  C   UNL     1       5.661   0.791  28.065  0.00  0.00    +0.203 A 
ENDBRANCH  35  37
BRANCH  34  49
ATOM     49  O   UNL     1       5.646   1.325  23.520  0.00  0.00    -0.385 OA
ATOM     50  H   UNL     1       4.689   1.299  23.314  0.00  0.00    +0.210 HD
ENDBRANCH  34  49
BRANCH  33  51
ATOM     51  O   UNL     1       5.685   4.373  25.202  0.00  0.00    -0.386 OA
ATOM     52  H   UNL     1       5.049   3.965  25.823  0.00  0.00    +0.210 HD
ENDBRANCH  33  51
ENDBRANCH  31  32
ENDBRANCH  30  31
ENDBRANCH   1  30
TORSDOF 17
ENDMDL
MODEL 6
REMARK VINA RESULT:      -6.6      4.165      6.746
REMARK  Name = 
REMARK  17 active torsions:
REMARK  status: ('A' for Active; 'I' for Inactive)
REMARK    1  A    between atoms: N_1  and  C_2
REMARK    2  A    between atoms: C_2  and  C_3
REMARK    3  A    between atoms: N_7  and  C_9
REMARK    4  A    between atoms: C_12  and  C_14
REMARK    5  A    between atoms: C_14  and  O_15
REMARK    6  A    between atoms: O_15  and  P_16
REMARK    7  A    between atoms: P_16  and  O_19
REMARK    8  A    between atoms: O_19  and  P_20
REMARK    9  A    between atoms: P_20  and  O_21
REMARK   10  A    between atoms: P_20  and  O_23
REMARK   11  A    between atoms: O_23  and  C_24
REMARK   12  A    between atoms: C_24  and  C_25
REMARK   13  A    between atoms: C_28  and  N_36
REMARK   14  A    between atoms: C_30  and  O_32
REMARK   15  A    between atoms: C_33  and  O_35
REMARK   16  A    between atoms: C_46  and  O_48
REMARK   17  A    between atoms: C_49  and  O_51
REMARK                            x       y       z     vdW  Elec       q    Type
REMARK                         _______ _______ _______ _____ _____    ______ ____
ROOT
ATOM      1  P   UNL     1       7.557   0.006  23.924  0.00  0.00    +0.480 P 
ATOM      2  O   UNL     1       7.698   0.414  22.455  0.00  0.00    -0.227 OA
ENDROOT
BRANCH   1   3
ATOM      3  O   UNL     1       6.332  -1.071  23.918  0.00  0.00    -0.302 OA
ATOM      4  H   UNL     1       6.155  -1.340  22.996  0.00  0.00    +0.222 HD
ENDBRANCH   1   3
BRANCH   1   5
ATOM      5  O   UNL     1       6.470   1.286  24.341  0.00  0.00    -0.229 OA
BRANCH   5   6
ATOM      6  P   UNL     1       6.331   1.388  26.062  0.00  0.00    +0.222 P 
ATOM      7  O   UNL     1       6.193   1.488  27.784  0.00  0.00    -0.437 OA
ATOM      8  O   UNL     1       7.751   0.779  26.094  0.00  0.00    -0.517 OA
BRANCH   6   9
ATOM      9  O   UNL     1       6.590   3.047  25.904  0.00  0.00    -0.324 OA
BRANCH   9  10
ATOM     10  C   UNL     1       6.216   3.620  24.659  0.00  0.00    +0.202 C 
BRANCH  10  14
ATOM     11  C   UNL     1       8.150   6.470  23.551  0.00  0.00    +0.439 C 
ATOM     12  C   UNL     1       7.939   5.771  22.200  0.00  0.00    +0.244 C 
ATOM     13  C   UNL     1       7.436   4.372  22.553  0.00  0.00    +0.183 C 
ATOM     14  C   UNL     1       7.396   4.364  24.081  0.00  0.00    +0.182 C 
ATOM     15  O   UNL     1       7.365   5.742  24.495  0.00  0.00    -0.309 OA
BRANCH  11  18
ATOM     16  C   UNL     1      11.880   5.998  23.507  0.00  0.00    +0.030 A 
ATOM     17  C   UNL     1      10.536   6.039  23.120  0.00  0.00    +0.316 A 
ATOM     18  N   UNL     1       9.584   6.494  23.972  0.00  0.00    -0.174 N 
ATOM     19  C   UNL     1       9.943   7.009  25.174  0.00  0.00    +0.311 A 
ATOM     20  C   UNL     1      11.255   6.972  25.611  0.00  0.00    +0.070 A 
ATOM     21  C   UNL     1      12.231   6.452  24.778  0.00  0.00    +0.016 A 
BRANCH  16  22
ATOM     22  C   UNL     1      12.924   5.476  22.559  0.00  0.00    +0.119 C 
BRANCH  22  23
ATOM     23  N   UNL     1      14.070   4.970  23.299  0.00  0.00    -0.326 NA
ATOM     24  H   UNL     1      14.350   5.655  24.004  0.00  0.00    +0.119 HD
ATOM     25  H   UNL     1      13.777   4.150  23.838  0.00  0.00    +0.119 HD
ENDBRANCH  22  23
ENDBRANCH  16  22
ENDBRANCH  11  18
BRANCH  12  26
ATOM     26  O   UNL     1       6.975   6.498  21.418  0.00  0.00    -0.380 OA
ATOM     27  H   UNL     1       6.928   6.117  20.518  0.00  0.00    +0.210 HD
ENDBRANCH  12  26
BRANCH  13  28
ATOM     28  O   UNL     1       8.369   3.398  22.082  0.00  0.00    -0.386 OA
ATOM     29  H   UNL     1       9.203   3.898  21.950  0.00  0.00    +0.210 HD
ENDBRANCH  13  28
ENDBRANCH  10  14
ENDBRANCH   9  10
ENDBRANCH   6   9
ENDBRANCH   5   6
ENDBRANCH   1   5
BRANCH   1  30
ATOM     30  O   UNL     1       8.643  -1.274  23.507  0.00  0.00    -0.284 OA
BRANCH  30  31
ATOM     31  C   UNL     1       9.156  -2.051  24.576  0.00  0.00    +0.206 C 
BRANCH  31  32
ATOM     32  C   UNL     1       9.137  -3.536  24.184  0.00  0.00    +0.178 C 
ATOM     33  C   UNL     1       9.461  -4.464  25.354  0.00  0.00    +0.178 C 
ATOM     34  C   UNL     1       8.107  -4.913  25.900  0.00  0.00    +0.195 C 
ATOM     35  C   UNL     1       7.083  -4.306  24.927  0.00  0.00    +0.253 C 
ATOM     36  O   UNL     1       7.819  -3.940  23.739  0.00  0.00    -0.346 OA
BRANCH  35  37
ATOM     37  N   UNL     1       6.021  -5.239  24.596  0.00  0.00    -0.286 N 
ATOM     38  C   UNL     1       5.085  -5.679  25.495  0.00  0.00    +0.167 A 
ATOM     39  N   UNL     1       4.966  -5.329  26.788  0.00  0.00    -0.216 NA
ATOM     40  C   UNL     1       3.933  -5.985  27.361  0.00  0.00    +0.225 A 
ATOM     41  N   UNL     1       3.106  -6.895  26.804  0.00  0.00    -0.219 NA
ATOM     42  C   UNL     1       3.293  -7.231  25.506  0.00  0.00    +0.147 A 
ATOM     43  N   UNL     1       2.452  -8.187  24.950  0.00  0.00    -0.341 N 
ATOM     44  H   UNL     1       2.395  -8.130  23.940  0.00  0.00    +0.144 HD
ATOM     45  H   UNL     1       1.587  -8.274  25.466  0.00  0.00    +0.144 HD
ATOM     46  C   UNL     1       4.314  -6.587  24.788  0.00  0.00    +0.147 A 
ATOM     47  N   UNL     1       4.737  -6.668  23.476  0.00  0.00    -0.231 NA
ATOM     48  C   UNL     1       5.753  -5.831  23.393  0.00  0.00    +0.203 A 
ENDBRANCH  35  37
BRANCH  34  49
ATOM     49  O   UNL     1       7.917  -4.468  27.244  0.00  0.00    -0.385 OA
ATOM     50  H   UNL     1       6.977  -4.203  27.324  0.00  0.00    +0.210 HD
ENDBRANCH  34  49
BRANCH  33  51
ATOM     51  O   UNL     1      10.190  -5.599  24.861  0.00  0.00    -0.386 OA
ATOM     52  H   UNL     1       9.621  -6.390  24.945  0.00  0.00    +0.210 HD
ENDBRANCH  33  51
ENDBRANCH  31  32
ENDBRANCH  30  31
ENDBRANCH   1  30
TORSDOF 17
ENDMDL
MODEL 7
REMARK VINA RESULT:      -6.5      1.850      4.996
REMARK  Name = 
REMARK  17 active torsions:
REMARK  status: ('A' for Active; 'I' for Inactive)
REMARK    1  A    between atoms: N_1  and  C_2
REMARK    2  A    between atoms: C_2  and  C_3
REMARK    3  A    between atoms: N_7  and  C_9
REMARK    4  A    between atoms: C_12  and  C_14
REMARK    5  A    between atoms: C_14  and  O_15
REMARK    6  A    between atoms: O_15  and  P_16
REMARK    7  A    between atoms: P_16  and  O_19
REMARK    8  A    between atoms: O_19  and  P_20
REMARK    9  A    between atoms: P_20  and  O_21
REMARK   10  A    between atoms: P_20  and  O_23
REMARK   11  A    between atoms: O_23  and  C_24
REMARK   12  A    between atoms: C_24  and  C_25
REMARK   13  A    between atoms: C_28  and  N_36
REMARK   14  A    between atoms: C_30  and  O_32
REMARK   15  A    between atoms: C_33  and  O_35
REMARK   16  A    between atoms: C_46  and  O_48
REMARK   17  A    between atoms: C_49  and  O_51
REMARK                            x       y       z     vdW  Elec       q    Type
REMARK                         _______ _______ _______ _____ _____    ______ ____
ROOT
ATOM      1  P   UNL     1       5.304  -5.843  27.777  0.00  0.00    +0.480 P 
ATOM      2  O   UNL     1       6.769  -5.711  28.204  0.00  0.00    -0.227 OA
ENDROOT
BRANCH   1   3
ATOM      3  O   UNL     1       4.785  -7.179  28.555  0.00  0.00    -0.302 OA
ATOM      4  H   UNL     1       5.331  -7.308  29.355  0.00  0.00    +0.222 HD
ENDBRANCH   1   3
BRANCH   1   5
ATOM      5  O   UNL     1       5.637  -6.766  26.351  0.00  0.00    -0.229 OA
BRANCH   5   6
ATOM      6  P   UNL     1       4.659  -6.186  25.048  0.00  0.00    +0.222 P 
ATOM      7  O   UNL     1       3.679  -5.607  23.745  0.00  0.00    -0.437 OA
ATOM      8  O   UNL     1       3.525  -6.102  26.093  0.00  0.00    -0.517 OA
BRANCH   6   9
ATOM      9  O   UNL     1       5.476  -4.717  25.195  0.00  0.00    -0.324 OA
BRANCH   9  10
ATOM     10  C   UNL     1       6.026  -4.188  23.997  0.00  0.00    +0.202 C 
BRANCH  10  14
ATOM     11  C   UNL     1       9.446  -3.051  23.680  0.00  0.00    +0.439 C 
ATOM     12  C   UNL     1       9.544  -3.760  25.038  0.00  0.00    +0.244 C 
ATOM     13  C   UNL     1       8.096  -3.991  25.469  0.00  0.00    +0.183 C 
ATOM     14  C   UNL     1       7.269  -3.396  24.329  0.00  0.00    +0.182 C 
ATOM     15  O   UNL     1       8.138  -3.333  23.184  0.00  0.00    -0.309 OA
BRANCH  11  18
ATOM     16  C   UNL     1       9.722   0.579  22.737  0.00  0.00    +0.030 A 
ATOM     17  C   UNL     1       9.477  -0.798  22.686  0.00  0.00    +0.316 A 
ATOM     18  N   UNL     1       9.660  -1.575  23.782  0.00  0.00    -0.174 N 
ATOM     19  C   UNL     1       9.985  -1.005  24.968  0.00  0.00    +0.311 A 
ATOM     20  C   UNL     1      10.259   0.348  25.067  0.00  0.00    +0.070 A 
ATOM     21  C   UNL     1      10.139   1.146  23.942  0.00  0.00    +0.016 A 
BRANCH  16  22
ATOM     22  C   UNL     1       9.531   1.428  21.510  0.00  0.00    +0.119 C 
BRANCH  22  23
ATOM     23  N   UNL     1       8.768   2.623  21.837  0.00  0.00    -0.326 NA
ATOM     24  H   UNL     1       8.274   2.480  22.721  0.00  0.00    +0.119 HD
ATOM     25  H   UNL     1       9.421   3.387  22.028  0.00  0.00    +0.119 HD
ENDBRANCH  22  23
ENDBRANCH  16  22
ENDBRANCH  11  18
BRANCH  12  26
ATOM     26  O   UNL     1      10.257  -5.001  24.893  0.00  0.00    -0.380 OA
ATOM     27  H   UNL     1      10.880  -4.935  24.142  0.00  0.00    +0.210 HD
ENDBRANCH  12  26
BRANCH  13  28
ATOM     28  O   UNL     1       7.841  -3.281  26.682  0.00  0.00    -0.386 OA
ATOM     29  H   UNL     1       7.495  -2.410  26.391  0.00  0.00    +0.210 HD
ENDBRANCH  13  28
ENDBRANCH  10  14
ENDBRANCH   9  10
ENDBRANCH   6   9
ENDBRANCH   5   6
ENDBRANCH   1   5
BRANCH   1  30
ATOM     30  O   UNL     1       4.971  -4.921  29.202  0.00  0.00    -0.284 OA
BRANCH  30  31
ATOM     31  C   UNL     1       4.181  -3.756  29.040  0.00  0.00    +0.206 C 
BRANCH  31  32
ATOM     32  C   UNL     1       4.401  -3.179  27.634  0.00  0.00    +0.178 C 
ATOM     33  C   UNL     1       3.112  -2.668  26.992  0.00  0.00    +0.178 C 
ATOM     34  C   UNL     1       3.094  -1.165  27.267  0.00  0.00    +0.195 C 
ATOM     35  C   UNL     1       4.443  -0.885  27.949  0.00  0.00    +0.253 C 
ATOM     36  O   UNL     1       5.282  -2.029  27.676  0.00  0.00    -0.346 OA
BRANCH  35  37
ATOM     37  N   UNL     1       5.068   0.328  27.453  0.00  0.00    -0.286 N 
ATOM     38  C   UNL     1       5.520   0.481  26.168  0.00  0.00    +0.167 A 
ATOM     39  N   UNL     1       5.457  -0.414  25.166  0.00  0.00    -0.216 NA
ATOM     40  C   UNL     1       6.025   0.088  24.049  0.00  0.00    +0.225 A 
ATOM     41  N   UNL     1       6.619   1.288  23.876  0.00  0.00    -0.219 NA
ATOM     42  C   UNL     1       6.681   2.137  24.929  0.00  0.00    +0.147 A 
ATOM     43  N   UNL     1       7.316   3.359  24.749  0.00  0.00    -0.341 N 
ATOM     44  H   UNL     1       7.022   4.064  25.414  0.00  0.00    +0.144 HD
ATOM     45  H   UNL     1       7.358   3.621  23.773  0.00  0.00    +0.144 HD
ATOM     46  C   UNL     1       6.089   1.744  26.142  0.00  0.00    +0.147 A 
ATOM     47  N   UNL     1       5.947   2.369  27.365  0.00  0.00    -0.231 NA
ATOM     48  C   UNL     1       5.312   1.494  28.121  0.00  0.00    +0.203 A 
ENDBRANCH  35  37
BRANCH  34  49
ATOM     49  O   UNL     1       1.980  -0.801  28.083  0.00  0.00    -0.385 OA
ATOM     50  H   UNL     1       1.324  -1.524  28.005  0.00  0.00    +0.210 HD
ENDBRANCH  34  49
BRANCH  33  51
ATOM     51  O   UNL     1       3.170  -2.906  25.577  0.00  0.00    -0.386 OA
ATOM     52  H   UNL     1       3.510  -2.098  25.142  0.00  0.00    +0.210 HD
ENDBRANCH  33  51
ENDBRANCH  31  32
ENDBRANCH  30  31
ENDBRANCH   1  30
TORSDOF 17
ENDMDL
MODEL 8
REMARK VINA RESULT:      -6.5      3.299      6.622
REMARK  Name = 
REMARK  17 active torsions:
REMARK  status: ('A' for Active; 'I' for Inactive)
REMARK    1  A    between atoms: N_1  and  C_2
REMARK    2  A    between atoms: C_2  and  C_3
REMARK    3  A    between atoms: N_7  and  C_9
REMARK    4  A    between atoms: C_12  and  C_14
REMARK    5  A    between atoms: C_14  and  O_15
REMARK    6  A    between atoms: O_15  and  P_16
REMARK    7  A    between atoms: P_16  and  O_19
REMARK    8  A    between atoms: O_19  and  P_20
REMARK    9  A    between atoms: P_20  and  O_21
REMARK   10  A    between atoms: P_20  and  O_23
REMARK   11  A    between atoms: O_23  and  C_24
REMARK   12  A    between atoms: C_24  and  C_25
REMARK   13  A    between atoms: C_28  and  N_36
REMARK   14  A    between atoms: C_30  and  O_32
REMARK   15  A    between atoms: C_33  and  O_35
REMARK   16  A    between atoms: C_46  and  O_48
REMARK   17  A    between atoms: C_49  and  O_51
REMARK                            x       y       z     vdW  Elec       q    Type
REMARK                         _______ _______ _______ _____ _____    ______ ____
ROOT
ATOM      1  P   UNL     1       5.250   2.699  24.656  0.00  0.00    +0.480 P 
ATOM      2  O   UNL     1       4.927   1.204  24.754  0.00  0.00    -0.227 OA
ENDROOT
BRANCH   1   3
ATOM      3  O   UNL     1       6.770   2.813  25.236  0.00  0.00    -0.302 OA
ATOM      4  H   UNL     1       7.358   3.116  24.517  0.00  0.00    +0.222 HD
ENDBRANCH   1   3
BRANCH   1   5
ATOM      5  O   UNL     1       4.595   3.103  26.206  0.00  0.00    -0.229 OA
BRANCH   5   6
ATOM      6  P   UNL     1       5.886   3.445  27.305  0.00  0.00    +0.222 P 
ATOM      7  O   UNL     1       7.177   3.788  28.405  0.00  0.00    -0.437 OA
ATOM      8  O   UNL     1       4.891   4.408  27.990  0.00  0.00    -0.517 OA
BRANCH   6   9
ATOM      9  O   UNL     1       5.573   1.945  28.012  0.00  0.00    -0.324 OA
BRANCH   9  10
ATOM     10  C   UNL     1       6.692   1.082  28.161  0.00  0.00    +0.202 C 
BRANCH  10  14
ATOM     11  C   UNL     1       5.668  -1.855  26.312  0.00  0.00    +0.439 C 
ATOM     12  C   UNL     1       4.364  -1.573  27.074  0.00  0.00    +0.244 C 
ATOM     13  C   UNL     1       4.751  -0.568  28.159  0.00  0.00    +0.183 C 
ATOM     14  C   UNL     1       6.248  -0.346  27.946  0.00  0.00    +0.182 C 
ATOM     15  O   UNL     1       6.534  -0.757  26.597  0.00  0.00    -0.309 OA
BRANCH  11  18
ATOM     16  C   UNL     1       8.230  -4.570  26.763  0.00  0.00    +0.030 A 
ATOM     17  C   UNL     1       7.618  -3.354  26.443  0.00  0.00    +0.316 A 
ATOM     18  N   UNL     1       6.308  -3.143  26.720  0.00  0.00    -0.174 N 
ATOM     19  C   UNL     1       5.603  -4.078  27.403  0.00  0.00    +0.311 A 
ATOM     20  C   UNL     1       6.155  -5.306  27.724  0.00  0.00    +0.070 A 
ATOM     21  C   UNL     1       7.475  -5.561  27.392  0.00  0.00    +0.016 A 
BRANCH  16  22
ATOM     22  C   UNL     1       9.680  -4.798  26.436  0.00  0.00    +0.119 C 
BRANCH  22  23
ATOM     23  N   UNL     1       9.806  -5.624  25.246  0.00  0.00    -0.326 NA
ATOM     24  H   UNL     1       8.876  -5.842  24.882  0.00  0.00    +0.119 HD
ATOM     25  H   UNL     1      10.248  -5.071  24.507  0.00  0.00    +0.119 HD
ENDBRANCH  22  23
ENDBRANCH  16  22
ENDBRANCH  11  18
BRANCH  12  26
ATOM     26  O   UNL     1       3.381  -1.030  26.176  0.00  0.00    -0.380 OA
ATOM     27  H   UNL     1       3.312  -1.598  25.383  0.00  0.00    +0.210 HD
ENDBRANCH  12  26
BRANCH  13  28
ATOM     28  O   UNL     1       4.518  -1.144  29.445  0.00  0.00    -0.386 OA
ATOM     29  H   UNL     1       4.990  -2.003  29.421  0.00  0.00    +0.210 HD
ENDBRANCH  13  28
ENDBRANCH  10  14
ENDBRANCH   9  10
ENDBRANCH   6   9
ENDBRANCH   5   6
ENDBRANCH   1   5
BRANCH   1  30
ATOM     30  O   UNL     1       5.904   2.294  23.107  0.00  0.00    -0.284 OA
BRANCH  30  31
ATOM     31  C   UNL     1       6.932   3.132  22.608  0.00  0.00    +0.206 C 
BRANCH  31  32
ATOM     32  C   UNL     1       8.021   2.271  21.952  0.00  0.00    +0.178 C 
ATOM     33  C   UNL     1       9.379   2.406  22.639  0.00  0.00    +0.178 C 
ATOM     34  C   UNL     1       9.463   1.222  23.601  0.00  0.00    +0.195 C 
ATOM     35  C   UNL     1       8.189   0.408  23.318  0.00  0.00    +0.253 C 
ATOM     36  O   UNL     1       7.693   0.863  22.039  0.00  0.00    -0.346 OA
BRANCH  35  37
ATOM     37  N   UNL     1       8.449  -1.020  23.280  0.00  0.00    -0.286 N 
ATOM     38  C   UNL     1       7.489  -1.961  23.014  0.00  0.00    +0.167 A 
ATOM     39  N   UNL     1       6.192  -1.749  22.730  0.00  0.00    -0.216 NA
ATOM     40  C   UNL     1       5.551  -2.924  22.545  0.00  0.00    +0.225 A 
ATOM     41  N   UNL     1       6.050  -4.175  22.639  0.00  0.00    -0.219 NA
ATOM     42  C   UNL     1       7.357  -4.328  22.958  0.00  0.00    +0.147 A 
ATOM     43  N   UNL     1       7.855  -5.619  23.076  0.00  0.00    -0.341 N 
ATOM     44  H   UNL     1       8.859  -5.673  22.952  0.00  0.00    +0.144 HD
ATOM     45  H   UNL     1       7.284  -6.290  22.580  0.00  0.00    +0.144 HD
ATOM     46  C   UNL     1       8.142  -3.177  23.138  0.00  0.00    +0.147 A 
ATOM     47  N   UNL     1       9.478  -2.985  23.427  0.00  0.00    -0.231 NA
ATOM     48  C   UNL     1       9.629  -1.676  23.486  0.00  0.00    +0.203 A 
ENDBRANCH  35  37
BRANCH  34  49
ATOM     49  O   UNL     1       9.542   1.663  24.958  0.00  0.00    -0.385 OA
ATOM     50  H   UNL     1       9.433   2.636  24.945  0.00  0.00    +0.210 HD
ENDBRANCH  34  49
BRANCH  33  51
ATOM     51  O   UNL     1      10.415   2.304  21.648  0.00  0.00    -0.386 OA
ATOM     52  H   UNL     1      10.360   3.087  21.064  0.00  0.00    +0.210 HD
ENDBRANCH  33  51
ENDBRANCH  31  32
ENDBRANCH  30  31
ENDBRANCH   1  30
TORSDOF 17
ENDMDL
MODEL 9
REMARK VINA RESULT:      -6.5      1.523      5.291
REMARK  Name = 
REMARK  17 active torsions:
REMARK  status: ('A' for Active; 'I' for Inactive)
REMARK    1  A    between atoms: N_1  and  C_2
REMARK    2  A    between atoms: C_2  and  C_3
REMARK    3  A    between atoms: N_7  and  C_9
REMARK    4  A    between atoms: C_12  and  C_14
REMARK    5  A    between atoms: C_14  and  O_15
REMARK    6  A    between atoms: O_15  and  P_16
REMARK    7  A    between atoms: P_16  and  O_19
REMARK    8  A    between atoms: O_19  and  P_20
REMARK    9  A    between atoms: P_20  and  O_21
REMARK   10  A    between atoms: P_20  and  O_23
REMARK   11  A    between atoms: O_23  and  C_24
REMARK   12  A    between atoms: C_24  and  C_25
REMARK   13  A    between atoms: C_28  and  N_36
REMARK   14  A    between atoms: C_30  and  O_32
REMARK   15  A    between atoms: C_33  and  O_35
REMARK   16  A    between atoms: C_46  and  O_48
REMARK   17  A    between atoms: C_49  and  O_51
REMARK                            x       y       z     vdW  Elec       q    Type
REMARK                         _______ _______ _______ _____ _____    ______ ____
ROOT
ATOM      1  P   UNL     1       4.116  -3.443  27.893  0.00  0.00    +0.480 P 
ATOM      2  O   UNL     1       2.611  -3.488  28.178  0.00  0.00    -0.227 OA
ENDROOT
BRANCH   1   3
ATOM      3  O   UNL     1       4.209  -2.913  26.353  0.00  0.00    -0.302 OA
ATOM      4  H   UNL     1       4.622  -3.609  25.806  0.00  0.00    +0.222 HD
ENDBRANCH   1   3
BRANCH   1   5
ATOM      5  O   UNL     1       4.226  -5.088  27.366  0.00  0.00    -0.229 OA
BRANCH   5   6
ATOM      6  P   UNL     1       5.628  -5.823  28.062  0.00  0.00    +0.222 P 
ATOM      7  O   UNL     1       7.030  -6.560  28.758  0.00  0.00    -0.437 OA
ATOM      8  O   UNL     1       5.593  -6.769  26.841  0.00  0.00    -0.517 OA
BRANCH   6   9
ATOM      9  O   UNL     1       6.498  -4.480  27.527  0.00  0.00    -0.324 OA
BRANCH   9  10
ATOM     10  C   UNL     1       7.704  -4.757  26.830  0.00  0.00    +0.202 C 
BRANCH  10  14
ATOM     11  C   UNL     1       7.022  -1.776  24.896  0.00  0.00    +0.439 C 
ATOM     12  C   UNL     1       6.731  -2.839  23.827  0.00  0.00    +0.244 C 
ATOM     13  C   UNL     1       7.311  -4.136  24.391  0.00  0.00    +0.183 C 
ATOM     14  C   UNL     1       7.896  -3.726  25.742  0.00  0.00    +0.182 C 
ATOM     15  O   UNL     1       7.252  -2.493  26.109  0.00  0.00    -0.309 OA
BRANCH  11  18
ATOM     16  C   UNL     1       9.442   0.347  22.953  0.00  0.00    +0.030 A 
ATOM     17  C   UNL     1       8.319  -0.405  23.313  0.00  0.00    +0.316 A 
ATOM     18  N   UNL     1       8.206  -0.927  24.560  0.00  0.00    -0.174 N 
ATOM     19  C   UNL     1       9.137  -0.636  25.501  0.00  0.00    +0.311 A 
ATOM     20  C   UNL     1      10.276   0.086  25.190  0.00  0.00    +0.070 A 
ATOM     21  C   UNL     1      10.438   0.572  23.904  0.00  0.00    +0.016 A 
BRANCH  16  22
ATOM     22  C   UNL     1       9.563   0.907  21.562  0.00  0.00    +0.119 C 
BRANCH  22  23
ATOM     23  N   UNL     1      10.096   2.260  21.607  0.00  0.00    -0.326 NA
ATOM     24  H   UNL     1       9.371   2.902  21.935  0.00  0.00    +0.119 HD
ATOM     25  H   UNL     1      10.822   2.303  22.328  0.00  0.00    +0.119 HD
ENDBRANCH  22  23
ENDBRANCH  16  22
ENDBRANCH  11  18
BRANCH  12  26
ATOM     26  O   UNL     1       5.313  -2.943  23.612  0.00  0.00    -0.380 OA
ATOM     27  H   UNL     1       4.854  -2.241  24.115  0.00  0.00    +0.210 HD
ENDBRANCH  12  26
BRANCH  13  28
ATOM     28  O   UNL     1       8.349  -4.608  23.530  0.00  0.00    -0.386 OA
ATOM     29  H   UNL     1       8.982  -5.058  24.130  0.00  0.00    +0.210 HD
ENDBRANCH  13  28
ENDBRANCH  10  14
ENDBRANCH   9  10
ENDBRANCH   6   9
ENDBRANCH   5   6
ENDBRANCH   1   5
BRANCH   1  30
ATOM     30  O   UNL     1       4.005  -1.799  28.419  0.00  0.00    -0.284 OA
BRANCH  30  31
ATOM     31  C   UNL     1       4.979  -0.900  27.918  0.00  0.00    +0.206 C 
BRANCH  31  32
ATOM     32  C   UNL     1       4.298   0.410  27.496  0.00  0.00    +0.178 C 
ATOM     33  C   UNL     1       4.812   1.624  28.268  0.00  0.00    +0.178 C 
ATOM     34  C   UNL     1       5.875   2.252  27.370  0.00  0.00    +0.195 C 
ATOM     35  C   UNL     1       5.820   1.425  26.075  0.00  0.00    +0.253 C 
ATOM     36  O   UNL     1       4.564   0.710  26.104  0.00  0.00    -0.346 OA
BRANCH  35  37
ATOM     37  N   UNL     1       5.900   2.257  24.888  0.00  0.00    -0.286 N 
ATOM     38  C   UNL     1       7.008   2.986  24.543  0.00  0.00    +0.167 A 
ATOM     39  N   UNL     1       8.182   3.049  25.196  0.00  0.00    -0.216 NA
ATOM     40  C   UNL     1       9.029   3.889  24.564  0.00  0.00    +0.225 A 
ATOM     41  N   UNL     1       8.809   4.622  23.451  0.00  0.00    -0.219 NA
ATOM     42  C   UNL     1       7.597   4.541  22.853  0.00  0.00    +0.147 A 
ATOM     43  N   UNL     1       7.372   5.317  21.723  0.00  0.00    -0.341 N 
ATOM     44  H   UNL     1       6.629   4.959  21.134  0.00  0.00    +0.144 HD
ATOM     45  H   UNL     1       8.236   5.592  21.276  0.00  0.00    +0.144 HD
ATOM     46  C   UNL     1       6.639   3.668  23.396  0.00  0.00    +0.147 A 
ATOM     47  N   UNL     1       5.354   3.331  23.020  0.00  0.00    -0.231 NA
ATOM     48  C   UNL     1       4.949   2.467  23.930  0.00  0.00    +0.203 A 
ENDBRANCH  35  37
BRANCH  34  49
ATOM     49  O   UNL     1       7.162   2.218  27.988  0.00  0.00    -0.385 OA
ATOM     50  H   UNL     1       7.772   1.796  27.349  0.00  0.00    +0.210 HD
ENDBRANCH  34  49
BRANCH  33  51
ATOM     51  O   UNL     1       3.728   2.546  28.463  0.00  0.00    -0.386 OA
ATOM     52  H   UNL     1       3.087   2.143  29.081  0.00  0.00    +0.210 HD
ENDBRANCH  33  51
ENDBRANCH  31  32
ENDBRANCH  30  31
ENDBRANCH   1  30
TORSDOF 17
ENDMDL
