MODEL 1
REMARK VINA RESULT:      -4.6      0.000      0.000
REMARK  Name = 
REMARK  7 active torsions:
REMARK  status: ('A' for Active; 'I' for Inactive)
REMARK    1  A    between atoms: N_1  and  C_2
REMARK    2  A    between atoms: C_2  and  C_4
REMARK    3  A    between atoms: C_2  and  C_10
REMARK    4  A    between atoms: C_4  and  S_5
REMARK    5  A    between atoms: S_5  and  C_6
REMARK    6  A    between atoms: C_6  and  C_7
REMARK    7  A    between atoms: C_10  and  O_11
REMARK                            x       y       z     vdW  Elec       q    Type
REMARK                         _______ _______ _______ _____ _____    ______ ____
ROOT
ATOM      1  C   UNK     1      12.177   5.531  23.959  0.00  0.00    +0.171 C 
ENDROOT
BRANCH   1   2
ATOM      2  N   UNK     1      12.724   6.596  24.863  0.00  0.00    -0.318 NA
ATOM      3  H   UNK     1      12.401   6.393  25.816  0.00  0.00    +0.119 HD
ATOM      4  H   UNK     1      13.735   6.422  24.925  0.00  0.00    +0.119 HD
ENDBRANCH   1   2
BRANCH   1   5
ATOM      5  C   UNK     1      13.159   5.349  22.796  0.00  0.00    +0.323 C 
ATOM      6  O   UNK     1      12.886   5.443  21.612  0.00  0.00    -0.249 OA
BRANCH   5   7
ATOM      7  O   UNK     1      14.397   5.026  23.257  0.00  0.00    -0.480 OA
ATOM      8  H   UNK     1      14.995   5.023  22.467  0.00  0.00    +0.295 HD
ENDBRANCH   5   7
ENDBRANCH   1   5
BRANCH   1   9
ATOM      9  C   UNK     1      10.767   5.834  23.434  0.00  0.00    +0.099 C 
BRANCH   9  10
ATOM     10  S   UNK     1       9.522   5.023  24.505  0.00  0.00    -0.149 S 
BRANCH  10  11
ATOM     11  C   UNK     1       8.955   3.720  23.355  0.00  0.00    +0.164 C 
BRANCH  11  12
ATOM     12  C   UNK     1      10.030   2.683  23.052  0.00  0.00    +0.220 C 
ATOM     13  O   UNK     1      10.758   2.221  23.930  0.00  0.00    -0.275 OA
ATOM     14  N   UNK     1      10.168   2.264  21.762  0.00  0.00    -0.329 N 
ATOM     15  H   UNK     1      10.868   1.571  21.542  0.00  0.00    +0.145 HD
ATOM     16  H   UNK     1       9.564   2.624  21.033  0.00  0.00    +0.145 HD
ENDBRANCH  11  12
ENDBRANCH  10  11
ENDBRANCH   9  10
ENDBRANCH   1   9
TORSDOF 7
ENDMDL
MODEL 2
REMARK VINA RESULT:      -4.5      7.125      9.359
REMARK  Name = 
REMARK  7 active torsions:
REMARK  status: ('A' for Active; 'I' for Inactive)
REMARK    1  A    between atoms: N_1  and  C_2
REMARK    2  A    between atoms: C_2  and  C_4
REMARK    3  A    between atoms: C_2  and  C_10
REMARK    4  A    between atoms: C_4  and  S_5
REMARK    5  A    between atoms: S_5  and  C_6
REMARK    6  A    between atoms: C_6  and  C_7
REMARK    7  A    between atoms: C_10  and  O_11
REMARK                            x       y       z     vdW  Elec       q    Type
REMARK                         _______ _______ _______ _____ _____    ______ ____
ROOT
ATOM      1  C   UNK     1       8.055  -4.704  26.059  0.00  0.00    +0.171 C 
ENDROOT
BRANCH   1   2
ATOM      2  N   UNK     1       8.103  -5.693  27.186  0.00  0.00    -0.318 NA
ATOM      3  H   UNK     1       7.155  -6.064  27.317  0.00  0.00    +0.119 HD
ATOM      4  H   UNK     1       8.617  -6.507  26.827  0.00  0.00    +0.119 HD
ENDBRANCH   1   2
BRANCH   1   5
ATOM      5  C   UNK     1       8.914  -5.252  24.914  0.00  0.00    +0.323 C 
ATOM      6  O   UNK     1       8.563  -5.366  23.752  0.00  0.00    -0.249 OA
BRANCH   5   7
ATOM      7  O   UNK     1      10.136  -5.639  25.370  0.00  0.00    -0.480 OA
ATOM      8  H   UNK     1      10.766  -5.510  24.616  0.00  0.00    +0.295 HD
ENDBRANCH   5   7
ENDBRANCH   1   5
BRANCH   1   9
ATOM      9  C   UNK     1       8.517  -3.295  26.456  0.00  0.00    +0.099 C 
BRANCH   9  10
ATOM     10  S   UNK     1       7.883  -2.074  25.246  0.00  0.00    -0.149 S 
BRANCH  10  11
ATOM     11  C   UNK     1       9.465  -1.590  24.468  0.00  0.00    +0.164 C 
BRANCH  11  12
ATOM     12  C   UNK     1       9.552  -1.983  22.998  0.00  0.00    +0.220 C 
ATOM     13  O   UNK     1      10.571  -1.798  22.332  0.00  0.00    -0.275 OA
ATOM     14  N   UNK     1       8.459  -2.560  22.424  0.00  0.00    -0.329 N 
ATOM     15  H   UNK     1       8.500  -2.835  21.454  0.00  0.00    +0.145 HD
ATOM     16  H   UNK     1       7.620  -2.734  22.965  0.00  0.00    +0.145 HD
ENDBRANCH  11  12
ENDBRANCH  10  11
ENDBRANCH   9  10
ENDBRANCH   1   9
TORSDOF 7
ENDMDL
MODEL 3
REMARK VINA RESULT:      -4.4      3.696      4.958
REMARK  Name = 
REMARK  7 active torsions:
REMARK  status: ('A' for Active; 'I' for Inactive)
REMARK    1  A    between atoms: N_1  and  C_2
REMARK    2  A    between atoms: C_2  and  C_4
REMARK    3  A    between atoms: C_2  and  C_10
REMARK    4  A    between atoms: C_4  and  S_5
REMARK    5  A    between atoms: S_5  and  C_6
REMARK    6  A    between atoms: C_6  and  C_7
REMARK    7  A    between atoms: C_10  and  O_11
REMARK                            x       y       z     vdW  Elec       q    Type
REMARK                         _______ _______ _______ _____ _____    ______ ____
ROOT
ATOM      1  C   UNK     1       9.761   1.851  24.101  0.00  0.00    +0.171 C 
ENDROOT
BRANCH   1   2
ATOM      2  N   UNK     1       8.442   1.468  23.497  0.00  0.00    -0.318 NA
ATOM      3  H   UNK     1       8.079   0.665  24.023  0.00  0.00    +0.119 HD
ATOM      4  H   UNK     1       7.787   2.219  23.751  0.00  0.00    +0.119 HD
ENDBRANCH   1   2
BRANCH   1   5
ATOM      5  C   UNK     1      10.541   2.661  23.058  0.00  0.00    +0.323 C 
ATOM      6  O   UNK     1      11.308   3.576  23.297  0.00  0.00    -0.249 OA
BRANCH   5   7
ATOM      7  O   UNK     1      10.237   2.245  21.800  0.00  0.00    -0.480 OA
ATOM      8  H   UNK     1      10.515   2.976  21.191  0.00  0.00    +0.295 HD
ENDBRANCH   5   7
ENDBRANCH   1   5
BRANCH   1   9
ATOM      9  C   UNK     1      10.588   0.652  24.584  0.00  0.00    +0.099 C 
BRANCH   9  10
ATOM     10  S   UNK     1       9.499  -0.806  24.790  0.00  0.00    -0.149 S 
BRANCH  10  11
ATOM     11  C   UNK     1      10.071  -1.798  23.363  0.00  0.00    +0.164 C 
BRANCH  11  12
ATOM     12  C   UNK     1       9.197  -1.625  22.127  0.00  0.00    +0.220 C 
ATOM     13  O   UNK     1       8.192  -2.310  21.937  0.00  0.00    -0.275 OA
ATOM     14  N   UNK     1       9.553  -0.673  21.220  0.00  0.00    -0.329 N 
ATOM     15  H   UNK     1       8.982  -0.536  20.399  0.00  0.00    +0.145 HD
ATOM     16  H   UNK     1      10.368  -0.090  21.373  0.00  0.00    +0.145 HD
ENDBRANCH  11  12
ENDBRANCH  10  11
ENDBRANCH   9  10
ENDBRANCH   1   9
TORSDOF 7
ENDMDL
MODEL 4
REMARK VINA RESULT:      -4.3      7.036      9.546
REMARK  Name = 
REMARK  7 active torsions:
REMARK  status: ('A' for Active; 'I' for Inactive)
REMARK    1  A    between atoms: N_1  and  C_2
REMARK    2  A    between atoms: C_2  and  C_4
REMARK    3  A    between atoms: C_2  and  C_10
REMARK    4  A    between atoms: C_4  and  S_5
REMARK    5  A    between atoms: S_5  and  C_6
REMARK    6  A    between atoms: C_6  and  C_7
REMARK    7  A    between atoms: C_10  and  O_11
REMARK                            x       y       z     vdW  Elec       q    Type
REMARK                         _______ _______ _______ _____ _____    ______ ____
ROOT
ATOM      1  C   UNK     1       8.995  -4.666  25.382  0.00  0.00    +0.171 C 
ENDROOT
BRANCH   1   2
ATOM      2  N   UNK     1      10.034  -5.730  25.580  0.00  0.00    -0.318 NA
ATOM      3  H   UNK     1       9.733  -6.562  25.058  0.00  0.00    +0.119 HD
ATOM      4  H   UNK     1      10.860  -5.419  25.053  0.00  0.00    +0.119 HD
ENDBRANCH   1   2
BRANCH   1   5
ATOM      5  C   UNK     1       8.033  -4.718  26.575  0.00  0.00    +0.323 C 
ATOM      6  O   UNK     1       7.305  -3.812  26.942  0.00  0.00    -0.249 OA
BRANCH   5   7
ATOM      7  O   UNK     1       8.120  -5.916  27.212  0.00  0.00    -0.480 OA
ATOM      8  H   UNK     1       8.964  -6.334  26.903  0.00  0.00    +0.295 HD
ENDBRANCH   5   7
ENDBRANCH   1   5
BRANCH   1   9
ATOM      9  C   UNK     1       8.225  -4.796  24.061  0.00  0.00    +0.099 C 
BRANCH   9  10
ATOM     10  S   UNK     1       8.100  -3.155  23.256  0.00  0.00    -0.149 S 
BRANCH  10  11
ATOM     11  C   UNK     1       9.730  -2.476  23.729  0.00  0.00    +0.164 C 
BRANCH  11  12
ATOM     12  C   UNK     1      10.142  -1.273  22.889  0.00  0.00    +0.220 C 
ATOM     13  O   UNK     1      10.639  -0.266  23.392  0.00  0.00    -0.275 OA
ATOM     14  N   UNK     1       9.950  -1.337  21.542  0.00  0.00    -0.329 N 
ATOM     15  H   UNK     1      10.225  -0.554  20.967  0.00  0.00    +0.145 HD
ATOM     16  H   UNK     1       9.558  -2.167  21.113  0.00  0.00    +0.145 HD
ENDBRANCH  11  12
ENDBRANCH  10  11
ENDBRANCH   9  10
ENDBRANCH   1   9
TORSDOF 7
ENDMDL
MODEL 5
REMARK VINA RESULT:      -4.2      9.380     10.089
REMARK  Name = 
REMARK  7 active torsions:
REMARK  status: ('A' for Active; 'I' for Inactive)
REMARK    1  A    between atoms: N_1  and  C_2
REMARK    2  A    between atoms: C_2  and  C_4
REMARK    3  A    between atoms: C_2  and  C_10
REMARK    4  A    between atoms: C_4  and  S_5
REMARK    5  A    between atoms: S_5  and  C_6
REMARK    6  A    between atoms: C_6  and  C_7
REMARK    7  A    between atoms: C_10  and  O_11
REMARK                            x       y       z     vdW  Elec       q    Type
REMARK                         _______ _______ _______ _____ _____    ______ ____
ROOT
ATOM      1  C   UNK     1       7.904  -5.234  25.750  0.00  0.00    +0.171 C 
ENDROOT
BRANCH   1   2
ATOM      2  N   UNK     1       8.218  -5.659  27.154  0.00  0.00    -0.318 NA
ATOM      3  H   UNK     1       7.392  -5.465  27.732  0.00  0.00    +0.119 HD
ATOM      4  H   UNK     1       8.247  -6.687  27.138  0.00  0.00    +0.119 HD
ENDBRANCH   1   2
BRANCH   1   5
ATOM      5  C   UNK     1       9.225  -4.881  25.057  0.00  0.00    +0.323 C 
ATOM      6  O   UNK     1       9.398  -3.954  24.285  0.00  0.00    -0.249 OA
BRANCH   5   7
ATOM      7  O   UNK     1      10.197  -5.771  25.391  0.00  0.00    -0.480 OA
ATOM      8  H   UNK     1      10.287  -5.727  26.377  0.00  0.00    +0.295 HD
ENDBRANCH   5   7
ENDBRANCH   1   5
BRANCH   1   9
ATOM      9  C   UNK     1       6.919  -4.060  25.668  0.00  0.00    +0.099 C 
BRANCH   9  10
ATOM     10  S   UNK     1       5.490  -4.525  24.621  0.00  0.00    -0.149 S 
BRANCH  10  11
ATOM     11  C   UNK     1       5.395  -3.026  23.578  0.00  0.00    +0.164 C 
BRANCH  11  12
ATOM     12  C   UNK     1       6.133  -3.173  22.253  0.00  0.00    +0.220 C 
ATOM     13  O   UNK     1       5.569  -3.566  21.232  0.00  0.00    -0.275 OA
ATOM     14  N   UNK     1       7.456  -2.850  22.218  0.00  0.00    -0.329 N 
ATOM     15  H   UNK     1       7.961  -2.932  21.348  0.00  0.00    +0.145 HD
ATOM     16  H   UNK     1       7.929  -2.509  23.048  0.00  0.00    +0.145 HD
ENDBRANCH  11  12
ENDBRANCH  10  11
ENDBRANCH   9  10
ENDBRANCH   1   9
TORSDOF 7
ENDMDL
MODEL 6
REMARK VINA RESULT:      -4.1      4.878      6.651
REMARK  Name = 
REMARK  7 active torsions:
REMARK  status: ('A' for Active; 'I' for Inactive)
REMARK    1  A    between atoms: N_1  and  C_2
REMARK    2  A    between atoms: C_2  and  C_4
REMARK    3  A    between atoms: C_2  and  C_10
REMARK    4  A    between atoms: C_4  and  S_5
REMARK    5  A    between atoms: S_5  and  C_6
REMARK    6  A    between atoms: C_6  and  C_7
REMARK    7  A    between atoms: C_10  and  O_11
REMARK                            x       y       z     vdW  Elec       q    Type
REMARK                         _______ _______ _______ _____ _____    ______ ____
ROOT
ATOM      1  C   UNK     1       8.873  -1.385  24.745  0.00  0.00    +0.171 C 
ENDROOT
BRANCH   1   2
ATOM      2  N   UNK     1       8.594  -1.966  26.100  0.00  0.00    -0.318 NA
ATOM      3  H   UNK     1       7.800  -1.455  26.502  0.00  0.00    +0.119 HD
ATOM      4  H   UNK     1       8.199  -2.900  25.930  0.00  0.00    +0.119 HD
ENDBRANCH   1   2
BRANCH   1   5
ATOM      5  C   UNK     1       9.334  -2.524  23.828  0.00  0.00    +0.323 C 
ATOM      6  O   UNK     1      10.095  -3.424  24.138  0.00  0.00    -0.249 OA
BRANCH   5   7
ATOM      7  O   UNK     1       8.803  -2.386  22.584  0.00  0.00    -0.480 OA
ATOM      8  H   UNK     1       8.647  -3.304  22.245  0.00  0.00    +0.295 HD
ENDBRANCH   5   7
ENDBRANCH   1   5
BRANCH   1   9
ATOM      9  C   UNK     1       9.908  -0.252  24.763  0.00  0.00    +0.099 C 
BRANCH   9  10
ATOM     10  S   UNK     1       9.056   1.365  24.652  0.00  0.00    -0.149 S 
BRANCH  10  11
ATOM     11  C   UNK     1       8.311   1.186  22.992  0.00  0.00    +0.164 C 
BRANCH  11  12
ATOM     12  C   UNK     1       9.348   1.083  21.880  0.00  0.00    +0.220 C 
ATOM     13  O   UNK     1       9.491   0.057  21.214  0.00  0.00    -0.275 OA
ATOM     14  N   UNK     1      10.126   2.172  21.628  0.00  0.00    -0.329 N 
ATOM     15  H   UNK     1      10.813   2.127  20.889  0.00  0.00    +0.145 HD
ATOM     16  H   UNK     1      10.007   3.028  22.157  0.00  0.00    +0.145 HD
ENDBRANCH  11  12
ENDBRANCH  10  11
ENDBRANCH   9  10
ENDBRANCH   1   9
TORSDOF 7
ENDMDL
MODEL 7
REMARK VINA RESULT:      -4.1      3.768      6.403
REMARK  Name = 
REMARK  7 active torsions:
REMARK  status: ('A' for Active; 'I' for Inactive)
REMARK    1  A    between atoms: N_1  and  C_2
REMARK    2  A    between atoms: C_2  and  C_4
REMARK    3  A    between atoms: C_2  and  C_10
REMARK    4  A    between atoms: C_4  and  S_5
REMARK    5  A    between atoms: S_5  and  C_6
REMARK    6  A    between atoms: C_6  and  C_7
REMARK    7  A    between atoms: C_10  and  O_11
REMARK                            x       y       z     vdW  Elec       q    Type
REMARK                         _______ _______ _______ _____ _____    ______ ____
ROOT
ATOM      1  C   UNK     1       8.293  -0.575  23.010  0.00  0.00    +0.171 C 
ENDROOT
BRANCH   1   2
ATOM      2  N   UNK     1       6.808  -0.386  22.910  0.00  0.00    -0.318 NA
ATOM      3  H   UNK     1       6.359  -1.225  23.296  0.00  0.00    +0.119 HD
ATOM      4  H   UNK     1       6.569   0.336  23.601  0.00  0.00    +0.119 HD
ENDBRANCH   1   2
BRANCH   1   5
ATOM      5  C   UNK     1       8.666  -1.822  22.200  0.00  0.00    +0.323 C 
ATOM      6  O   UNK     1       8.052  -2.875  22.191  0.00  0.00    -0.249 OA
BRANCH   5   7
ATOM      7  O   UNK     1       9.815  -1.618  21.502  0.00  0.00    -0.480 OA
ATOM      8  H   UNK     1      10.465  -1.235  22.145  0.00  0.00    +0.295 HD
ENDBRANCH   5   7
ENDBRANCH   1   5
BRANCH   1   9
ATOM      9  C   UNK     1       8.803  -0.694  24.453  0.00  0.00    +0.099 C 
BRANCH   9  10
ATOM     10  S   UNK     1      10.320   0.312  24.657  0.00  0.00    -0.149 S 
BRANCH  10  11
ATOM     11  C   UNK     1       9.642   1.951  24.211  0.00  0.00    +0.164 C 
BRANCH  11  12
ATOM     12  C   UNK     1      10.427   2.639  23.101  0.00  0.00    +0.220 C 
ATOM     13  O   UNK     1      11.271   3.503  23.338  0.00  0.00    -0.275 OA
ATOM     14  N   UNK     1      10.174   2.269  21.814  0.00  0.00    -0.329 N 
ATOM     15  H   UNK     1      10.690   2.707  21.065  0.00  0.00    +0.145 HD
ATOM     16  H   UNK     1       9.494   1.547  21.607  0.00  0.00    +0.145 HD
ENDBRANCH  11  12
ENDBRANCH  10  11
ENDBRANCH   9  10
ENDBRANCH   1   9
TORSDOF 7
ENDMDL
MODEL 8
REMARK VINA RESULT:      -4.1      4.700      6.898
REMARK  Name = 
REMARK  7 active torsions:
REMARK  status: ('A' for Active; 'I' for Inactive)
REMARK    1  A    between atoms: N_1  and  C_2
REMARK    2  A    between atoms: C_2  and  C_4
REMARK    3  A    between atoms: C_2  and  C_10
REMARK    4  A    between atoms: C_4  and  S_5
REMARK    5  A    between atoms: S_5  and  C_6
REMARK    6  A    between atoms: C_6  and  C_7
REMARK    7  A    between atoms: C_10  and  O_11
REMARK                            x       y       z     vdW  Elec       q    Type
REMARK                         _______ _______ _______ _____ _____    ______ ____
ROOT
ATOM      1  C   UNK     1       9.550  -2.071  23.053  0.00  0.00    +0.171 C 
ENDROOT
BRANCH   1   2
ATOM      2  N   UNK     1      10.285  -1.548  21.855  0.00  0.00    -0.318 NA
ATOM      3  H   UNK     1       9.754  -0.750  21.486  0.00  0.00    +0.119 HD
ATOM      4  H   UNK     1      11.137  -1.104  22.218  0.00  0.00    +0.119 HD
ENDBRANCH   1   2
BRANCH   1   5
ATOM      5  C   UNK     1       8.103  -2.354  22.634  0.00  0.00    +0.323 C 
ATOM      6  O   UNK     1       7.671  -3.425  22.244  0.00  0.00    -0.249 OA
BRANCH   5   7
ATOM      7  O   UNK     1       7.347  -1.227  22.718  0.00  0.00    -0.480 OA
ATOM      8  H   UNK     1       6.994  -1.061  21.807  0.00  0.00    +0.295 HD
ENDBRANCH   5   7
ENDBRANCH   1   5
BRANCH   1   9
ATOM      9  C   UNK     1       9.588  -1.124  24.261  0.00  0.00    +0.099 C 
BRANCH   9  10
ATOM     10  S   UNK     1      10.591   0.354  23.854  0.00  0.00    -0.149 S 
BRANCH  10  11
ATOM     11  C   UNK     1       9.251   1.593  23.752  0.00  0.00    +0.164 C 
BRANCH  11  12
ATOM     12  C   UNK     1       8.835   1.907  22.320  0.00  0.00    +0.220 C 
ATOM     13  O   UNK     1       8.894   1.065  21.424  0.00  0.00    -0.275 OA
ATOM     14  N   UNK     1       8.383   3.163  22.046  0.00  0.00    -0.329 N 
ATOM     15  H   UNK     1       8.095   3.388  21.105  0.00  0.00    +0.145 HD
ATOM     16  H   UNK     1       8.314   3.860  22.778  0.00  0.00    +0.145 HD
ENDBRANCH  11  12
ENDBRANCH  10  11
ENDBRANCH   9  10
ENDBRANCH   1   9
TORSDOF 7
ENDMDL
MODEL 9
REMARK VINA RESULT:      -4.0      6.974      9.521
REMARK  Name = 
REMARK  7 active torsions:
REMARK  status: ('A' for Active; 'I' for Inactive)
REMARK    1  A    between atoms: N_1  and  C_2
REMARK    2  A    between atoms: C_2  and  C_4
REMARK    3  A    between atoms: C_2  and  C_10
REMARK    4  A    between atoms: C_4  and  S_5
REMARK    5  A    between atoms: S_5  and  C_6
REMARK    6  A    between atoms: C_6  and  C_7
REMARK    7  A    between atoms: C_10  and  O_11
REMARK                            x       y       z     vdW  Elec       q    Type
REMARK                         _______ _______ _______ _____ _____    ______ ____
ROOT
ATOM      1  C   UNK     1       9.193  -4.706  26.015  0.00  0.00    +0.171 C 
ENDROOT
BRANCH   1   2
ATOM      2  N   UNK     1      10.004  -5.787  25.365  0.00  0.00    -0.318 NA
ATOM      3  H   UNK     1      10.188  -6.509  26.071  0.00  0.00    +0.119 HD
ATOM      4  H   UNK     1       9.368  -6.264  24.713  0.00  0.00    +0.119 HD
ENDBRANCH   1   2
BRANCH   1   5
ATOM      5  C   UNK     1       7.868  -5.323  26.478  0.00  0.00    +0.323 C 
ATOM      6  O   UNK     1       7.623  -5.718  27.604  0.00  0.00    -0.249 OA
BRANCH   5   7
ATOM      7  O   UNK     1       6.990  -5.410  25.444  0.00  0.00    -0.480 OA
ATOM      8  H   UNK     1       7.296  -4.756  24.764  0.00  0.00    +0.295 HD
ENDBRANCH   5   7
ENDBRANCH   1   5
BRANCH   1   9
ATOM      9  C   UNK     1       8.939  -3.496  25.105  0.00  0.00    +0.099 C 
BRANCH   9  10
ATOM     10  S   UNK     1       8.372  -2.075  26.112  0.00  0.00    -0.149 S 
BRANCH  10  11
ATOM     11  C   UNK     1       8.410  -0.776  24.827  0.00  0.00    +0.164 C 
BRANCH  11  12
ATOM     12  C   UNK     1       9.822  -0.330  24.469  0.00  0.00    +0.220 C 
ATOM     13  O   UNK     1      10.379  -0.694  23.433  0.00  0.00    -0.275 OA
ATOM     14  N   UNK     1      10.470   0.500  25.334  0.00  0.00    -0.329 N 
ATOM     15  H   UNK     1      11.403   0.813  25.111  0.00  0.00    +0.145 HD
ATOM     16  H   UNK     1      10.017   0.820  26.182  0.00  0.00    +0.145 HD
ENDBRANCH  11  12
ENDBRANCH  10  11
ENDBRANCH   9  10
ENDBRANCH   1   9
TORSDOF 7
ENDMDL
