MODEL 1
REMARK VINA RESULT:      -3.7      0.000      0.000
REMARK  Name = 
REMARK  6 active torsions:
REMARK  status: ('A' for Active; 'I' for Inactive)
REMARK    1  A    between atoms: N_1  and  C_5
REMARK    2  A    between atoms: C_5  and  C_6
REMARK    3  A    between atoms: C_6  and  C_7
REMARK    4  A    between atoms: C_7  and  C_8
REMARK    5  A    between atoms: C_8  and  C_9
REMARK    6  A    between atoms: C_9  and  O_10
REMARK                            x       y       z     vdW  Elec       q    Type
REMARK                         _______ _______ _______ _____ _____    ______ ____
ROOT
ATOM      1  C   UNL     1      10.507   1.720  23.951  0.00  0.00    +0.051 C 
ENDROOT
BRANCH   1   2
ATOM      2  C   UNL     1       9.394   1.865  22.921  0.00  0.00    +0.127 C 
BRANCH   2   3
ATOM      3  N   UNL     1       9.988   2.083  21.581  0.00  0.00    +0.219 N 
ATOM      4  H   UNL     1      10.640   1.324  21.340  0.00  0.00    +0.199 HD
ATOM      5  H   UNL     1      10.516   2.964  21.531  0.00  0.00    +0.199 HD
ATOM      6  H   UNL     1       9.268   2.109  20.846  0.00  0.00    +0.199 HD
ENDBRANCH   2   3
ENDBRANCH   1   2
BRANCH   1   7
ATOM      7  C   UNL     1      10.700   0.273  24.417  0.00  0.00    +0.016 C 
BRANCH   7   8
ATOM      8  C   UNL     1       9.577  -0.669  23.972  0.00  0.00    +0.120 C 
BRANCH   8   9
ATOM      9  C   UNL     1      10.128  -1.883  23.260  0.00  0.00    +0.305 C 
ATOM     10  O   UNL     1      10.207  -2.990  23.766  0.00  0.00    -0.251 OA
BRANCH   9  11
ATOM     11  O   UNL     1      10.461  -1.638  21.976  0.00  0.00    -0.481 OA
ATOM     12  H   UNL     1      11.365  -1.882  21.706  0.00  0.00    +0.295 HD
ENDBRANCH   9  11
ENDBRANCH   8   9
ENDBRANCH   7   8
ENDBRANCH   1   7
TORSDOF 6
ENDMDL
MODEL 2
REMARK VINA RESULT:      -3.7      2.689      3.766
REMARK  Name = 
REMARK  6 active torsions:
REMARK  status: ('A' for Active; 'I' for Inactive)
REMARK    1  A    between atoms: N_1  and  C_5
REMARK    2  A    between atoms: C_5  and  C_6
REMARK    3  A    between atoms: C_6  and  C_7
REMARK    4  A    between atoms: C_7  and  C_8
REMARK    5  A    between atoms: C_8  and  C_9
REMARK    6  A    between atoms: C_9  and  O_10
REMARK                            x       y       z     vdW  Elec       q    Type
REMARK                         _______ _______ _______ _____ _____    ______ ____
ROOT
ATOM      1  C   UNL     1       9.820  -0.824  23.854  0.00  0.00    +0.051 C 
ENDROOT
BRANCH   1   2
ATOM      2  C   UNL     1      10.337  -1.512  22.598  0.00  0.00    +0.127 C 
BRANCH   2   3
ATOM      3  N   UNL     1       9.816  -0.809  21.401  0.00  0.00    +0.219 N 
ATOM      4  H   UNL     1       9.910   0.210  21.504  0.00  0.00    +0.199 HD
ATOM      5  H   UNL     1       8.819  -1.007  21.241  0.00  0.00    +0.199 HD
ATOM      6  H   UNL     1      10.328  -1.077  20.550  0.00  0.00    +0.199 HD
ENDBRANCH   2   3
ENDBRANCH   1   2
BRANCH   1   7
ATOM      7  C   UNL     1      10.636   0.416  24.233  0.00  0.00    +0.016 C 
BRANCH   7   8
ATOM      8  C   UNL     1       9.866   1.730  24.069  0.00  0.00    +0.120 C 
BRANCH   8   9
ATOM      9  C   UNL     1      10.515   2.622  23.037  0.00  0.00    +0.305 C 
ATOM     10  O   UNL     1      11.263   3.546  23.311  0.00  0.00    -0.251 OA
BRANCH   9  11
ATOM     11  O   UNL     1      10.243   2.251  21.769  0.00  0.00    -0.481 OA
ATOM     12  H   UNL     1      10.931   2.435  21.103  0.00  0.00    +0.295 HD
ENDBRANCH   9  11
ENDBRANCH   8   9
ENDBRANCH   7   8
ENDBRANCH   1   7
TORSDOF 6
ENDMDL
MODEL 3
REMARK VINA RESULT:      -3.6      1.667      2.166
REMARK  Name = 
REMARK  6 active torsions:
REMARK  status: ('A' for Active; 'I' for Inactive)
REMARK    1  A    between atoms: N_1  and  C_5
REMARK    2  A    between atoms: C_5  and  C_6
REMARK    3  A    between atoms: C_6  and  C_7
REMARK    4  A    between atoms: C_7  and  C_8
REMARK    5  A    between atoms: C_8  and  C_9
REMARK    6  A    between atoms: C_9  and  O_10
REMARK                            x       y       z     vdW  Elec       q    Type
REMARK                         _______ _______ _______ _____ _____    ______ ____
ROOT
ATOM      1  C   UNL     1       9.215   0.236  21.290  0.00  0.00    +0.051 C 
ENDROOT
BRANCH   1   2
ATOM      2  C   UNL     1       9.801   1.143  22.365  0.00  0.00    +0.127 C 
BRANCH   2   3
ATOM      3  N   UNL     1      10.300   2.390  21.739  0.00  0.00    +0.219 N 
ATOM      4  H   UNL     1       9.540   2.889  21.259  0.00  0.00    +0.199 HD
ATOM      5  H   UNL     1      11.032   2.205  21.040  0.00  0.00    +0.199 HD
ATOM      6  H   UNL     1      10.693   3.035  22.438  0.00  0.00    +0.199 HD
ENDBRANCH   2   3
ENDBRANCH   1   2
BRANCH   1   7
ATOM      7  C   UNL     1       9.233  -1.244  21.686  0.00  0.00    +0.016 C 
BRANCH   7   8
ATOM      8  C   UNL     1      10.369  -1.606  22.648  0.00  0.00    +0.120 C 
BRANCH   8   9
ATOM      9  C   UNL     1       9.844  -2.310  23.879  0.00  0.00    +0.305 C 
ATOM     10  O   UNL     1      10.054  -3.484  24.132  0.00  0.00    -0.251 OA
BRANCH   9  11
ATOM     11  O   UNL     1       9.174  -1.488  24.713  0.00  0.00    -0.481 OA
ATOM     12  H   UNL     1       9.696  -1.058  25.414  0.00  0.00    +0.295 HD
ENDBRANCH   9  11
ENDBRANCH   8   9
ENDBRANCH   7   8
ENDBRANCH   1   7
TORSDOF 6
ENDMDL
MODEL 4
REMARK VINA RESULT:      -3.5      2.427      3.368
REMARK  Name = 
REMARK  6 active torsions:
REMARK  status: ('A' for Active; 'I' for Inactive)
REMARK    1  A    between atoms: N_1  and  C_5
REMARK    2  A    between atoms: C_5  and  C_6
REMARK    3  A    between atoms: C_6  and  C_7
REMARK    4  A    between atoms: C_7  and  C_8
REMARK    5  A    between atoms: C_8  and  C_9
REMARK    6  A    between atoms: C_9  and  O_10
REMARK                            x       y       z     vdW  Elec       q    Type
REMARK                         _______ _______ _______ _____ _____    ______ ____
ROOT
ATOM      1  C   UNL     1       9.507   0.043  25.200  0.00  0.00    +0.051 C 
ENDROOT
BRANCH   1   2
ATOM      2  C   UNL     1       9.146  -1.419  24.971  0.00  0.00    +0.127 C 
BRANCH   2   3
ATOM      3  N   UNL     1       9.957  -1.957  23.853  0.00  0.00    +0.219 N 
ATOM      4  H   UNL     1      10.698  -2.579  24.203  0.00  0.00    +0.199 HD
ATOM      5  H   UNL     1      10.416  -1.211  23.315  0.00  0.00    +0.199 HD
ATOM      6  H   UNL     1       9.384  -2.506  23.199  0.00  0.00    +0.199 HD
ENDBRANCH   2   3
ENDBRANCH   1   2
BRANCH   1   7
ATOM      7  C   UNL     1      10.720   0.492  24.379  0.00  0.00    +0.016 C 
BRANCH   7   8
ATOM      8  C   UNL     1      10.440   1.705  23.486  0.00  0.00    +0.120 C 
BRANCH   8   9
ATOM      9  C   UNL     1       9.951   1.280  22.120  0.00  0.00    +0.305 C 
ATOM     10  O   UNL     1       9.967   0.128  21.720  0.00  0.00    -0.251 OA
BRANCH   9  11
ATOM     11  O   UNL     1       9.423   2.297  21.408  0.00  0.00    -0.481 OA
ATOM     12  H   UNL     1       8.749   2.060  20.745  0.00  0.00    +0.295 HD
ENDBRANCH   9  11
ENDBRANCH   8   9
ENDBRANCH   7   8
ENDBRANCH   1   7
TORSDOF 6
ENDMDL
MODEL 5
REMARK VINA RESULT:      -3.4      2.078      2.421
REMARK  Name = 
REMARK  6 active torsions:
REMARK  status: ('A' for Active; 'I' for Inactive)
REMARK    1  A    between atoms: N_1  and  C_5
REMARK    2  A    between atoms: C_5  and  C_6
REMARK    3  A    between atoms: C_6  and  C_7
REMARK    4  A    between atoms: C_7  and  C_8
REMARK    5  A    between atoms: C_8  and  C_9
REMARK    6  A    between atoms: C_9  and  O_10
REMARK                            x       y       z     vdW  Elec       q    Type
REMARK                         _______ _______ _______ _____ _____    ______ ____
ROOT
ATOM      1  C   UNL     1      10.246   1.665  23.435  0.00  0.00    +0.051 C 
ENDROOT
BRANCH   1   2
ATOM      2  C   UNL     1      10.952   0.732  24.410  0.00  0.00    +0.127 C 
BRANCH   2   3
ATOM      3  N   UNL     1      10.020   0.361  25.501  0.00  0.00    +0.219 N 
ATOM      4  H   UNL     1       9.176   0.950  25.480  0.00  0.00    +0.199 HD
ATOM      5  H   UNL     1      10.447   0.475  26.430  0.00  0.00    +0.199 HD
ATOM      6  H   UNL     1       9.709  -0.617  25.419  0.00  0.00    +0.199 HD
ENDBRANCH   2   3
ENDBRANCH   1   2
BRANCH   1   7
ATOM      7  C   UNL     1       9.977   1.011  22.076  0.00  0.00    +0.016 C 
BRANCH   7   8
ATOM      8  C   UNL     1       8.711   0.147  22.052  0.00  0.00    +0.120 C 
BRANCH   8   9
ATOM      9  C   UNL     1       9.050  -1.321  21.931  0.00  0.00    +0.305 C 
ATOM     10  O   UNL     1       8.246  -2.220  22.106  0.00  0.00    -0.251 OA
BRANCH   9  11
ATOM     11  O   UNL     1      10.322  -1.540  21.539  0.00  0.00    -0.481 OA
ATOM     12  H   UNL     1      10.802  -2.254  21.995  0.00  0.00    +0.295 HD
ENDBRANCH   9  11
ENDBRANCH   8   9
ENDBRANCH   7   8
ENDBRANCH   1   7
TORSDOF 6
ENDMDL
MODEL 6
REMARK VINA RESULT:      -3.3      5.904      6.620
REMARK  Name = 
REMARK  6 active torsions:
REMARK  status: ('A' for Active; 'I' for Inactive)
REMARK    1  A    between atoms: N_1  and  C_5
REMARK    2  A    between atoms: C_5  and  C_6
REMARK    3  A    between atoms: C_6  and  C_7
REMARK    4  A    between atoms: C_7  and  C_8
REMARK    5  A    between atoms: C_8  and  C_9
REMARK    6  A    between atoms: C_9  and  O_10
REMARK                            x       y       z     vdW  Elec       q    Type
REMARK                         _______ _______ _______ _____ _____    ______ ____
ROOT
ATOM      1  C   UNL     1       8.387  -4.583  24.117  0.00  0.00    +0.051 C 
ENDROOT
BRANCH   1   2
ATOM      2  C   UNL     1       8.722  -4.994  25.544  0.00  0.00    +0.127 C 
BRANCH   2   3
ATOM      3  N   UNL     1      10.046  -5.661  25.568  0.00  0.00    +0.219 N 
ATOM      4  H   UNL     1      10.386  -5.767  26.533  0.00  0.00    +0.199 HD
ATOM      5  H   UNL     1      10.757  -5.125  25.052  0.00  0.00    +0.199 HD
ATOM      6  H   UNL     1      10.004  -6.602  25.155  0.00  0.00    +0.199 HD
ENDBRANCH   2   3
ENDBRANCH   1   2
BRANCH   1   7
ATOM      7  C   UNL     1       7.088  -5.214  23.605  0.00  0.00    +0.016 C 
BRANCH   7   8
ATOM      8  C   UNL     1       7.179  -5.717  22.161  0.00  0.00    +0.120 C 
BRANCH   8   9
ATOM      9  C   UNL     1       6.133  -5.066  21.285  0.00  0.00    +0.305 C 
ATOM     10  O   UNL     1       5.537  -4.045  21.583  0.00  0.00    -0.251 OA
BRANCH   9  11
ATOM     11  O   UNL     1       5.972  -5.690  20.100  0.00  0.00    -0.481 OA
ATOM     12  H   UNL     1       5.063  -5.955  19.867  0.00  0.00    +0.295 HD
ENDBRANCH   9  11
ENDBRANCH   8   9
ENDBRANCH   7   8
ENDBRANCH   1   7
TORSDOF 6
ENDMDL
MODEL 7
REMARK VINA RESULT:      -3.3      2.815      3.693
REMARK  Name = 
REMARK  6 active torsions:
REMARK  status: ('A' for Active; 'I' for Inactive)
REMARK    1  A    between atoms: N_1  and  C_5
REMARK    2  A    between atoms: C_5  and  C_6
REMARK    3  A    between atoms: C_6  and  C_7
REMARK    4  A    between atoms: C_7  and  C_8
REMARK    5  A    between atoms: C_8  and  C_9
REMARK    6  A    between atoms: C_9  and  O_10
REMARK                            x       y       z     vdW  Elec       q    Type
REMARK                         _______ _______ _______ _____ _____    ______ ____
ROOT
ATOM      1  C   UNL     1       9.060  -0.684  23.546  0.00  0.00    +0.051 C 
ENDROOT
BRANCH   1   2
ATOM      2  C   UNL     1       9.956  -1.444  22.576  0.00  0.00    +0.127 C 
BRANCH   2   3
ATOM      3  N   UNL     1       9.725  -0.947  21.199  0.00  0.00    +0.219 N 
ATOM      4  H   UNL     1       9.415   0.034  21.210  0.00  0.00    +0.199 HD
ATOM      5  H   UNL     1       9.002  -1.489  20.709  0.00  0.00    +0.199 HD
ATOM      6  H   UNL     1      10.583  -0.987  20.632  0.00  0.00    +0.199 HD
ENDBRANCH   2   3
ENDBRANCH   1   2
BRANCH   1   7
ATOM      7  C   UNL     1       8.257   0.430  22.865  0.00  0.00    +0.016 C 
BRANCH   7   8
ATOM      8  C   UNL     1       8.612   1.834  23.365  0.00  0.00    +0.120 C 
BRANCH   8   9
ATOM      9  C   UNL     1       9.965   2.273  22.856  0.00  0.00    +0.305 C 
ATOM     10  O   UNL     1      10.877   2.640  23.578  0.00  0.00    -0.251 OA
BRANCH   9  11
ATOM     11  O   UNL     1      10.093   2.150  21.519  0.00  0.00    -0.481 OA
ATOM     12  H   UNL     1      10.770   1.525  21.201  0.00  0.00    +0.295 HD
ENDBRANCH   9  11
ENDBRANCH   8   9
ENDBRANCH   7   8
ENDBRANCH   1   7
TORSDOF 6
ENDMDL
MODEL 8
REMARK VINA RESULT:      -3.3      4.672      5.541
REMARK  Name = 
REMARK  6 active torsions:
REMARK  status: ('A' for Active; 'I' for Inactive)
REMARK    1  A    between atoms: N_1  and  C_5
REMARK    2  A    between atoms: C_5  and  C_6
REMARK    3  A    between atoms: C_6  and  C_7
REMARK    4  A    between atoms: C_7  and  C_8
REMARK    5  A    between atoms: C_8  and  C_9
REMARK    6  A    between atoms: C_9  and  O_10
REMARK                            x       y       z     vdW  Elec       q    Type
REMARK                         _______ _______ _______ _____ _____    ______ ____
ROOT
ATOM      1  C   UNL     1       9.936   1.992  23.537  0.00  0.00    +0.051 C 
ENDROOT
BRANCH   1   2
ATOM      2  C   UNL     1      10.072   1.514  22.097  0.00  0.00    +0.127 C 
BRANCH   2   3
ATOM      3  N   UNL     1       8.921   2.006  21.304  0.00  0.00    +0.219 N 
ATOM      4  H   UNL     1       8.389   1.222  20.902  0.00  0.00    +0.199 HD
ATOM      5  H   UNL     1       9.218   2.603  20.521  0.00  0.00    +0.199 HD
ATOM      6  H   UNL     1       8.267   2.551  21.881  0.00  0.00    +0.199 HD
ENDBRANCH   2   3
ENDBRANCH   1   2
BRANCH   1   7
ATOM      7  C   UNL     1      10.169   3.499  23.687  0.00  0.00    +0.016 C 
BRANCH   7   8
ATOM      8  C   UNL     1      11.580   3.943  23.286  0.00  0.00    +0.120 C 
BRANCH   8   9
ATOM      9  C   UNL     1      11.819   5.395  23.634  0.00  0.00    +0.305 C 
ATOM     10  O   UNL     1      10.933   6.229  23.714  0.00  0.00    -0.251 OA
BRANCH   9  11
ATOM     11  O   UNL     1      13.109   5.665  23.921  0.00  0.00    -0.481 OA
ATOM     12  H   UNL     1      13.571   6.273  23.316  0.00  0.00    +0.295 HD
ENDBRANCH   9  11
ENDBRANCH   8   9
ENDBRANCH   7   8
ENDBRANCH   1   7
TORSDOF 6
ENDMDL
MODEL 9
REMARK VINA RESULT:      -3.3      1.809      2.141
REMARK  Name = 
REMARK  6 active torsions:
REMARK  status: ('A' for Active; 'I' for Inactive)
REMARK    1  A    between atoms: N_1  and  C_5
REMARK    2  A    between atoms: C_5  and  C_6
REMARK    3  A    between atoms: C_6  and  C_7
REMARK    4  A    between atoms: C_7  and  C_8
REMARK    5  A    between atoms: C_8  and  C_9
REMARK    6  A    between atoms: C_9  and  O_10
REMARK                            x       y       z     vdW  Elec       q    Type
REMARK                         _______ _______ _______ _____ _____    ______ ____
ROOT
ATOM      1  C   UNL     1       9.739   1.519  23.555  0.00  0.00    +0.051 C 
ENDROOT
BRANCH   1   2
ATOM      2  C   UNL     1       9.644   2.981  23.971  0.00  0.00    +0.127 C 
BRANCH   2   3
ATOM      3  N   UNL     1      10.617   3.780  23.189  0.00  0.00    +0.219 N 
ATOM      4  H   UNL     1      10.591   4.769  23.469  0.00  0.00    +0.199 HD
ATOM      5  H   UNL     1      10.423   3.745  22.179  0.00  0.00    +0.199 HD
ATOM      6  H   UNL     1      11.581   3.449  23.331  0.00  0.00    +0.199 HD
ENDBRANCH   2   3
ENDBRANCH   1   2
BRANCH   1   7
ATOM      7  C   UNL     1      10.094   1.343  22.075  0.00  0.00    +0.016 C 
BRANCH   7   8
ATOM      8  C   UNL     1       9.113   0.445  21.313  0.00  0.00    +0.120 C 
BRANCH   8   9
ATOM      9  C   UNL     1       9.173  -0.980  21.812  0.00  0.00    +0.305 C 
ATOM     10  O   UNL     1       8.223  -1.570  22.300  0.00  0.00    -0.251 OA
BRANCH   9  11
ATOM     11  O   UNL     1      10.368  -1.567  21.596  0.00  0.00    -0.481 OA
ATOM     12  H   UNL     1      10.510  -1.957  20.714  0.00  0.00    +0.295 HD
ENDBRANCH   9  11
ENDBRANCH   8   9
ENDBRANCH   7   8
ENDBRANCH   1   7
TORSDOF 6
ENDMDL
