MODEL 1
REMARK VINA RESULT:      -5.0      0.000      0.000
REMARK  Name = 
REMARK  5 active torsions:
REMARK  status: ('A' for Active; 'I' for Inactive)
REMARK    1  A    between atoms: C_2  and  O_3
REMARK    2  A    between atoms: C_2  and  C_4
REMARK    3  A    between atoms: C_2  and  C_7
REMARK    4  A    between atoms: C_4  and  O_5
REMARK    5  A    between atoms: C_10  and  O_11
REMARK                            x       y       z     vdW  Elec       q    Type
REMARK                         _______ _______ _______ _____ _____    ______ ____
ROOT
ATOM      1  C   UNL     1      10.239  -0.070  22.864  0.00  0.00    -0.008 A 
ATOM      2  C   UNL     1      10.743   0.533  24.030  0.00  0.00    +0.010 A 
ATOM      3  C   UNL     1      10.715   1.921  24.179  0.00  0.00    +0.046 A 
ATOM      4  C   UNL     1      10.197   2.714  23.163  0.00  0.00    +0.117 A 
ATOM      5  C   UNL     1       9.671   2.140  22.012  0.00  0.00    +0.046 A 
ATOM      6  C   UNL     1       9.685   0.749  21.867  0.00  0.00    +0.010 A 
ENDROOT
BRANCH   4   7
ATOM      7  O   UNL     1      10.237   4.065  23.330  0.00  0.00    -0.507 OA
ATOM      8  H   UNL     1      10.641   4.463  22.542  0.00  0.00    +0.292 HD
ENDBRANCH   4   7
BRANCH   1   9
ATOM      9  C   UNL     1      10.308  -1.575  22.701  0.00  0.00    +0.253 C 
BRANCH   9  10
ATOM     10  C   UNL     1       9.494  -2.388  23.722  0.00  0.00    +0.338 C 
ATOM     11  O   UNL     1       8.355  -2.061  24.041  0.00  0.00    -0.248 OA
BRANCH  10  12
ATOM     12  O   UNL     1      10.060  -3.520  24.194  0.00  0.00    -0.479 OA
ATOM     13  H   UNL     1      11.014  -3.615  24.000  0.00  0.00    +0.295 HD
ENDBRANCH  10  12
ENDBRANCH   9  10
BRANCH   9  14
ATOM     14  O   UNL     1       9.918  -1.920  21.369  0.00  0.00    -0.376 OA
ATOM     15  H   UNL     1       9.806  -2.892  21.369  0.00  0.00    +0.211 HD
ENDBRANCH   9  14
ENDBRANCH   1   9
TORSDOF 5
ENDMDL
MODEL 2
REMARK VINA RESULT:      -4.9      4.997      6.081
REMARK  Name = 
REMARK  5 active torsions:
REMARK  status: ('A' for Active; 'I' for Inactive)
REMARK    1  A    between atoms: C_2  and  O_3
REMARK    2  A    between atoms: C_2  and  C_4
REMARK    3  A    between atoms: C_2  and  C_7
REMARK    4  A    between atoms: C_4  and  O_5
REMARK    5  A    between atoms: C_10  and  O_11
REMARK                            x       y       z     vdW  Elec       q    Type
REMARK                         _______ _______ _______ _____ _____    ______ ____
ROOT
ATOM      1  C   UNL     1       8.253  -4.499  24.006  0.00  0.00    -0.008 A 
ATOM      2  C   UNL     1       7.715  -5.590  23.299  0.00  0.00    +0.010 A 
ATOM      3  C   UNL     1       6.879  -5.380  22.201  0.00  0.00    +0.046 A 
ATOM      4  C   UNL     1       6.565  -4.085  21.810  0.00  0.00    +0.117 A 
ATOM      5  C   UNL     1       7.103  -2.991  22.478  0.00  0.00    +0.046 A 
ATOM      6  C   UNL     1       7.952  -3.199  23.568  0.00  0.00    +0.010 A 
ENDROOT
BRANCH   4   7
ATOM      7  O   UNL     1       5.705  -3.929  20.766  0.00  0.00    -0.507 OA
ATOM      8  H   UNL     1       5.782  -4.703  20.183  0.00  0.00    +0.292 HD
ENDBRANCH   4   7
BRANCH   1   9
ATOM      9  C   UNL     1       9.131  -4.741  25.217  0.00  0.00    +0.253 C 
BRANCH   9  10
ATOM     10  C   UNL     1       8.398  -4.780  26.568  0.00  0.00    +0.338 C 
ATOM     11  O   UNL     1       7.987  -3.755  27.105  0.00  0.00    -0.248 OA
BRANCH  10  12
ATOM     12  O   UNL     1       8.160  -5.998  27.102  0.00  0.00    -0.479 OA
ATOM     13  H   UNL     1       7.677  -5.987  27.953  0.00  0.00    +0.295 HD
ENDBRANCH  10  12
ENDBRANCH   9  10
BRANCH   9  14
ATOM     14  O   UNL     1       9.875  -5.946  25.022  0.00  0.00    -0.376 OA
ATOM     15  H   UNL     1      10.121  -6.254  25.918  0.00  0.00    +0.211 HD
ENDBRANCH   9  14
ENDBRANCH   1   9
TORSDOF 5
ENDMDL
MODEL 3
REMARK VINA RESULT:      -4.9      0.509      1.476
REMARK  Name = 
REMARK  5 active torsions:
REMARK  status: ('A' for Active; 'I' for Inactive)
REMARK    1  A    between atoms: C_2  and  O_3
REMARK    2  A    between atoms: C_2  and  C_4
REMARK    3  A    between atoms: C_2  and  C_7
REMARK    4  A    between atoms: C_4  and  O_5
REMARK    5  A    between atoms: C_10  and  O_11
REMARK                            x       y       z     vdW  Elec       q    Type
REMARK                         _______ _______ _______ _____ _____    ______ ____
ROOT
ATOM      1  C   UNL     1      10.077   0.115  22.882  0.00  0.00    -0.008 A 
ATOM      2  C   UNL     1       9.313   0.751  21.887  0.00  0.00    +0.010 A 
ATOM      3  C   UNL     1       9.024   2.114  21.977  0.00  0.00    +0.046 A 
ATOM      4  C   UNL     1       9.484   2.846  23.064  0.00  0.00    +0.117 A 
ATOM      5  C   UNL     1      10.261   2.246  24.048  0.00  0.00    +0.046 A 
ATOM      6  C   UNL     1      10.564   0.884  23.952  0.00  0.00    +0.010 A 
ENDROOT
BRANCH   4   7
ATOM      7  O   UNL     1       9.135   4.160  23.136  0.00  0.00    -0.507 OA
ATOM      8  H   UNL     1       8.433   4.259  23.799  0.00  0.00    +0.292 HD
ENDBRANCH   4   7
BRANCH   1   9
ATOM      9  C   UNL     1      10.354  -1.372  22.789  0.00  0.00    +0.253 C 
BRANCH   9  10
ATOM     10  C   UNL     1       9.566  -2.254  23.774  0.00  0.00    +0.338 C 
ATOM     11  O   UNL     1       8.454  -1.928  24.178  0.00  0.00    -0.248 OA
BRANCH  10  12
ATOM     12  O   UNL     1      10.120  -3.438  24.113  0.00  0.00    -0.479 OA
ATOM     13  H   UNL     1      10.640  -3.867  23.404  0.00  0.00    +0.295 HD
ENDBRANCH  10  12
ENDBRANCH   9  10
BRANCH   9  14
ATOM     14  O   UNL     1      10.130  -1.807  21.446  0.00  0.00    -0.376 OA
ATOM     15  H   UNL     1      10.653  -2.627  21.342  0.00  0.00    +0.211 HD
ENDBRANCH   9  14
ENDBRANCH   1   9
TORSDOF 5
ENDMDL
MODEL 4
REMARK VINA RESULT:      -4.9      1.593      2.614
REMARK  Name = 
REMARK  5 active torsions:
REMARK  status: ('A' for Active; 'I' for Inactive)
REMARK    1  A    between atoms: C_2  and  O_3
REMARK    2  A    between atoms: C_2  and  C_4
REMARK    3  A    between atoms: C_2  and  C_7
REMARK    4  A    between atoms: C_4  and  O_5
REMARK    5  A    between atoms: C_10  and  O_11
REMARK                            x       y       z     vdW  Elec       q    Type
REMARK                         _______ _______ _______ _____ _____    ______ ____
ROOT
ATOM      1  C   UNL     1       9.464  -1.327  23.531  0.00  0.00    -0.008 A 
ATOM      2  C   UNL     1       9.200  -1.177  22.158  0.00  0.00    +0.010 A 
ATOM      3  C   UNL     1       9.489   0.025  21.508  0.00  0.00    +0.046 A 
ATOM      4  C   UNL     1      10.029   1.085  22.224  0.00  0.00    +0.117 A 
ATOM      5  C   UNL     1      10.322   0.952  23.576  0.00  0.00    +0.046 A 
ATOM      6  C   UNL     1      10.048  -0.255  24.226  0.00  0.00    +0.010 A 
ENDROOT
BRANCH   4   7
ATOM      7  O   UNL     1      10.246   2.253  21.560  0.00  0.00    -0.507 OA
ATOM      8  H   UNL     1      10.770   2.841  22.129  0.00  0.00    +0.292 HD
ENDBRANCH   4   7
BRANCH   1   9
ATOM      9  C   UNL     1       9.115  -2.625  24.231  0.00  0.00    +0.253 C 
BRANCH   9  10
ATOM     10  C   UNL     1       7.818  -3.303  23.757  0.00  0.00    +0.338 C 
ATOM     11  O   UNL     1       7.837  -4.363  23.138  0.00  0.00    -0.248 OA
BRANCH  10  12
ATOM     12  O   UNL     1       6.654  -2.720  24.117  0.00  0.00    -0.479 OA
ATOM     13  H   UNL     1       6.742  -1.995  24.769  0.00  0.00    +0.295 HD
ENDBRANCH  10  12
ENDBRANCH   9  10
BRANCH   9  14
ATOM     14  O   UNL     1      10.216  -3.529  24.119  0.00  0.00    -0.376 OA
ATOM     15  H   UNL     1      10.858  -3.252  24.803  0.00  0.00    +0.211 HD
ENDBRANCH   9  14
ENDBRANCH   1   9
TORSDOF 5
ENDMDL
MODEL 5
REMARK VINA RESULT:      -4.9      6.264      7.308
REMARK  Name = 
REMARK  5 active torsions:
REMARK  status: ('A' for Active; 'I' for Inactive)
REMARK    1  A    between atoms: C_2  and  O_3
REMARK    2  A    between atoms: C_2  and  C_4
REMARK    3  A    between atoms: C_2  and  C_7
REMARK    4  A    between atoms: C_4  and  O_5
REMARK    5  A    between atoms: C_10  and  O_11
REMARK                            x       y       z     vdW  Elec       q    Type
REMARK                         _______ _______ _______ _____ _____    ______ ____
ROOT
ATOM      1  C   UNL     1       6.484  -4.863  23.758  0.00  0.00    -0.008 A 
ATOM      2  C   UNL     1       5.621  -5.271  24.791  0.00  0.00    +0.010 A 
ATOM      3  C   UNL     1       6.123  -5.559  26.062  0.00  0.00    +0.046 A 
ATOM      4  C   UNL     1       7.487  -5.457  26.305  0.00  0.00    +0.117 A 
ATOM      5  C   UNL     1       8.356  -5.032  25.307  0.00  0.00    +0.046 A 
ATOM      6  C   UNL     1       7.854  -4.728  24.039  0.00  0.00    +0.010 A 
ENDROOT
BRANCH   4   7
ATOM      7  O   UNL     1       7.937  -5.797  27.544  0.00  0.00    -0.507 OA
ATOM      8  H   UNL     1       7.218  -6.241  28.024  0.00  0.00    +0.292 HD
ENDBRANCH   4   7
BRANCH   1   9
ATOM      9  C   UNL     1       5.931  -4.586  22.375  0.00  0.00    +0.253 C 
BRANCH   9  10
ATOM     10  C   UNL     1       6.082  -5.732  21.361  0.00  0.00    +0.338 C 
ATOM     11  O   UNL     1       6.014  -5.532  20.152  0.00  0.00    -0.248 OA
BRANCH  10  12
ATOM     12  O   UNL     1       6.367  -6.956  21.857  0.00  0.00    -0.479 OA
ATOM     13  H   UNL     1       5.727  -7.656  21.618  0.00  0.00    +0.295 HD
ENDBRANCH  10  12
ENDBRANCH   9  10
BRANCH   9  14
ATOM     14  O   UNL     1       4.558  -4.202  22.488  0.00  0.00    -0.376 OA
ATOM     15  H   UNL     1       4.541  -3.459  23.124  0.00  0.00    +0.211 HD
ENDBRANCH   9  14
ENDBRANCH   1   9
TORSDOF 5
ENDMDL
MODEL 6
REMARK VINA RESULT:      -4.8      1.426      5.195
REMARK  Name = 
REMARK  5 active torsions:
REMARK  status: ('A' for Active; 'I' for Inactive)
REMARK    1  A    between atoms: C_2  and  O_3
REMARK    2  A    between atoms: C_2  and  C_4
REMARK    3  A    between atoms: C_2  and  C_7
REMARK    4  A    between atoms: C_4  and  O_5
REMARK    5  A    between atoms: C_10  and  O_11
REMARK                            x       y       z     vdW  Elec       q    Type
REMARK                         _______ _______ _______ _____ _____    ______ ____
ROOT
ATOM      1  C   UNL     1       9.961   2.201  23.305  0.00  0.00    -0.008 A 
ATOM      2  C   UNL     1      10.401   1.300  24.291  0.00  0.00    +0.010 A 
ATOM      3  C   UNL     1      10.552  -0.056  23.997  0.00  0.00    +0.046 A 
ATOM      4  C   UNL     1      10.253  -0.523  22.723  0.00  0.00    +0.117 A 
ATOM      5  C   UNL     1       9.840   0.351  21.725  0.00  0.00    +0.046 A 
ATOM      6  C   UNL     1       9.703   1.712  22.013  0.00  0.00    +0.010 A 
ENDROOT
BRANCH   4   7
ATOM      7  O   UNL     1      10.366  -1.861  22.496  0.00  0.00    -0.507 OA
ATOM      8  H   UNL     1       9.479  -2.225  22.343  0.00  0.00    +0.292 HD
ENDBRANCH   4   7
BRANCH   1   9
ATOM      9  C   UNL     1       9.769   3.664  23.647  0.00  0.00    +0.253 C 
BRANCH   9  10
ATOM     10  C   UNL     1      10.993   4.565  23.408  0.00  0.00    +0.338 C 
ATOM     11  O   UNL     1      12.132   4.109  23.394  0.00  0.00    -0.248 OA
BRANCH  10  12
ATOM     12  O   UNL     1      10.752   5.867  23.139  0.00  0.00    -0.479 OA
ATOM     13  H   UNL     1       9.956   6.034  22.596  0.00  0.00    +0.295 HD
ENDBRANCH  10  12
ENDBRANCH   9  10
BRANCH   9  14
ATOM     14  O   UNL     1       8.636   4.168  22.935  0.00  0.00    -0.376 OA
ATOM     15  H   UNL     1       8.555   5.107  23.195  0.00  0.00    +0.211 HD
ENDBRANCH   9  14
ENDBRANCH   1   9
TORSDOF 5
ENDMDL
MODEL 7
REMARK VINA RESULT:      -4.8      1.540      2.007
REMARK  Name = 
REMARK  5 active torsions:
REMARK  status: ('A' for Active; 'I' for Inactive)
REMARK    1  A    between atoms: C_2  and  O_3
REMARK    2  A    between atoms: C_2  and  C_4
REMARK    3  A    between atoms: C_2  and  C_7
REMARK    4  A    between atoms: C_4  and  O_5
REMARK    5  A    between atoms: C_10  and  O_11
REMARK                            x       y       z     vdW  Elec       q    Type
REMARK                         _______ _______ _______ _____ _____    ______ ____
ROOT
ATOM      1  C   UNL     1       9.484  -1.189  23.577  0.00  0.00    -0.008 A 
ATOM      2  C   UNL     1       9.927  -0.041  24.260  0.00  0.00    +0.010 A 
ATOM      3  C   UNL     1      10.173   1.145  23.567  0.00  0.00    +0.046 A 
ATOM      4  C   UNL     1       9.992   1.191  22.190  0.00  0.00    +0.117 A 
ATOM      5  C   UNL     1       9.531   0.078  21.497  0.00  0.00    +0.046 A 
ATOM      6  C   UNL     1       9.270  -1.107  22.192  0.00  0.00    +0.010 A 
ENDROOT
BRANCH   4   7
ATOM      7  O   UNL     1      10.293   2.354  21.550  0.00  0.00    -0.507 OA
ATOM      8  H   UNL     1      11.132   2.238  21.075  0.00  0.00    +0.292 HD
ENDBRANCH   4   7
BRANCH   1   9
ATOM      9  C   UNL     1       9.254  -2.479  24.337  0.00  0.00    +0.253 C 
BRANCH   9  10
ATOM     10  C   UNL     1       7.873  -3.127  24.137  0.00  0.00    +0.338 C 
ATOM     11  O   UNL     1       6.841  -2.552  24.469  0.00  0.00    -0.248 OA
BRANCH  10  12
ATOM     12  O   UNL     1       7.842  -4.323  23.511  0.00  0.00    -0.479 OA
ATOM     13  H   UNL     1       6.953  -4.725  23.435  0.00  0.00    +0.295 HD
ENDBRANCH  10  12
ENDBRANCH   9  10
BRANCH   9  14
ATOM     14  O   UNL     1      10.289  -3.409  24.007  0.00  0.00    -0.376 OA
ATOM     15  H   UNL     1      10.087  -3.721  23.103  0.00  0.00    +0.211 HD
ENDBRANCH   9  14
ENDBRANCH   1   9
TORSDOF 5
ENDMDL
MODEL 8
REMARK VINA RESULT:      -4.7      1.430      4.629
REMARK  Name = 
REMARK  5 active torsions:
REMARK  status: ('A' for Active; 'I' for Inactive)
REMARK    1  A    between atoms: C_2  and  O_3
REMARK    2  A    between atoms: C_2  and  C_4
REMARK    3  A    between atoms: C_2  and  C_7
REMARK    4  A    between atoms: C_4  and  O_5
REMARK    5  A    between atoms: C_10  and  O_11
REMARK                            x       y       z     vdW  Elec       q    Type
REMARK                         _______ _______ _______ _____ _____    ______ ____
ROOT
ATOM      1  C   UNL     1       9.343   0.637  23.050  0.00  0.00    -0.008 A 
ATOM      2  C   UNL     1       9.144   0.160  24.358  0.00  0.00    +0.010 A 
ATOM      3  C   UNL     1       9.440  -1.165  24.683  0.00  0.00    +0.046 A 
ATOM      4  C   UNL     1       9.921  -2.024  23.703  0.00  0.00    +0.117 A 
ATOM      5  C   UNL     1      10.149  -1.571  22.410  0.00  0.00    +0.046 A 
ATOM      6  C   UNL     1       9.869  -0.240  22.086  0.00  0.00    +0.010 A 
ENDROOT
BRANCH   4   7
ATOM      7  O   UNL     1      10.147  -3.321  24.053  0.00  0.00    -0.507 OA
ATOM      8  H   UNL     1       9.726  -3.488  24.913  0.00  0.00    +0.292 HD
ENDBRANCH   4   7
BRANCH   1   9
ATOM      9  C   UNL     1       8.987   2.068  22.703  0.00  0.00    +0.253 C 
BRANCH   9  10
ATOM     10  C   UNL     1       9.759   3.148  23.480  0.00  0.00    +0.338 C 
ATOM     11  O   UNL     1       9.294   3.668  24.490  0.00  0.00    -0.248 OA
BRANCH  10  12
ATOM     12  O   UNL     1      11.003   3.445  23.044  0.00  0.00    -0.479 OA
ATOM     13  H   UNL     1      11.724   2.972  23.506  0.00  0.00    +0.295 HD
ENDBRANCH  10  12
ENDBRANCH   9  10
BRANCH   9  14
ATOM     14  O   UNL     1       9.143   2.263  21.296  0.00  0.00    -0.376 OA
ATOM     15  H   UNL     1       8.273   2.057  20.901  0.00  0.00    +0.211 HD
ENDBRANCH   9  14
ENDBRANCH   1   9
TORSDOF 5
ENDMDL
MODEL 9
REMARK VINA RESULT:      -4.6      4.919      6.657
REMARK  Name = 
REMARK  5 active torsions:
REMARK  status: ('A' for Active; 'I' for Inactive)
REMARK    1  A    between atoms: C_2  and  O_3
REMARK    2  A    between atoms: C_2  and  C_4
REMARK    3  A    between atoms: C_2  and  C_7
REMARK    4  A    between atoms: C_4  and  O_5
REMARK    5  A    between atoms: C_10  and  O_11
REMARK                            x       y       z     vdW  Elec       q    Type
REMARK                         _______ _______ _______ _____ _____    ______ ____
ROOT
ATOM      1  C   UNL     1       7.596  -4.417  23.847  0.00  0.00    -0.008 A 
ATOM      2  C   UNL     1       8.790  -4.466  24.589  0.00  0.00    +0.010 A 
ATOM      3  C   UNL     1       8.801  -4.997  25.880  0.00  0.00    +0.046 A 
ATOM      4  C   UNL     1       7.622  -5.468  26.443  0.00  0.00    +0.117 A 
ATOM      5  C   UNL     1       6.434  -5.453  25.721  0.00  0.00    +0.046 A 
ATOM      6  C   UNL     1       6.424  -4.936  24.422  0.00  0.00    +0.010 A 
ENDROOT
BRANCH   4   7
ATOM      7  O   UNL     1       7.671  -5.929  27.723  0.00  0.00    -0.507 OA
ATOM      8  H   UNL     1       6.780  -6.218  27.982  0.00  0.00    +0.292 HD
ENDBRANCH   4   7
BRANCH   1   9
ATOM      9  C   UNL     1       7.592  -3.808  22.460  0.00  0.00    +0.253 C 
BRANCH   9  10
ATOM     10  C   UNL     1       6.203  -3.619  21.825  0.00  0.00    +0.338 C 
ATOM     11  O   UNL     1       5.722  -4.461  21.073  0.00  0.00    -0.248 OA
BRANCH  10  12
ATOM     12  O   UNL     1       5.506  -2.522  22.191  0.00  0.00    -0.479 OA
ATOM     13  H   UNL     1       5.016  -2.084  21.466  0.00  0.00    +0.295 HD
ENDBRANCH  10  12
ENDBRANCH   9  10
BRANCH   9  14
ATOM     14  O   UNL     1       8.295  -2.563  22.493  0.00  0.00    -0.376 OA
ATOM     15  H   UNL     1       7.772  -1.948  21.940  0.00  0.00    +0.211 HD
ENDBRANCH   9  14
ENDBRANCH   1   9
TORSDOF 5
ENDMDL
