MODEL 1
REMARK VINA RESULT:      -3.6      0.000      0.000
REMARK  Name = 
REMARK  6 active torsions:
REMARK  status: ('A' for Active; 'I' for Inactive)
REMARK    1  A    between atoms: O_1  and  C_2
REMARK    2  A    between atoms: C_2  and  C_3
REMARK    3  A    between atoms: C_3  and  C_4
REMARK    4  A    between atoms: C_4  and  C_5
REMARK    5  A    between atoms: C_5  and  C_6
REMARK    6  A    between atoms: C_6  and  C_7
REMARK                            x       y       z     vdW  Elec       q    Type
REMARK                         _______ _______ _______ _____ _____    ______ ____
ROOT
ATOM      1  C   UNL     1      10.763   4.942  23.686  0.00  0.00    +0.002 C 
ENDROOT
BRANCH   1   2
ATOM      2  C   UNL     1      12.062   5.741  23.765  0.00  0.00    +0.028 C 
BRANCH   2   3
ATOM      3  C   UNL     1      13.000   5.404  22.614  0.00  0.00    +0.156 C 
BRANCH   3   4
ATOM      4  O   UNL     1      14.286   5.109  23.143  0.00  0.00    -0.395 OA
ATOM      5  H   UNL     1      14.930   5.265  22.431  0.00  0.00    +0.209 HD
ENDBRANCH   3   4
ENDBRANCH   2   3
ENDBRANCH   1   2
BRANCH   1   6
ATOM      6  C   UNL     1      11.038   3.454  23.466  0.00  0.00    +0.001 C 
BRANCH   6   7
ATOM      7  C   UNL     1       9.818   2.744  22.877  0.00  0.00    +0.011 C 
BRANCH   7   8
ATOM      8  C   UNL     1      10.025   1.239  22.845  0.00  0.00    +0.080 C 
ATOM      9 BR   UNL     1      10.744   0.636  24.551  0.00  0.00    -0.092 Br
ENDBRANCH   7   8
ENDBRANCH   6   7
ENDBRANCH   1   6
TORSDOF 6
ENDMDL
MODEL 2
REMARK VINA RESULT:      -3.5      4.121      5.626
REMARK  Name = 
REMARK  6 active torsions:
REMARK  status: ('A' for Active; 'I' for Inactive)
REMARK    1  A    between atoms: O_1  and  C_2
REMARK    2  A    between atoms: C_2  and  C_3
REMARK    3  A    between atoms: C_3  and  C_4
REMARK    4  A    between atoms: C_4  and  C_5
REMARK    5  A    between atoms: C_5  and  C_6
REMARK    6  A    between atoms: C_6  and  C_7
REMARK                            x       y       z     vdW  Elec       q    Type
REMARK                         _______ _______ _______ _____ _____    ______ ____
ROOT
ATOM      1  C   UNL     1       9.692  -0.609  24.644  0.00  0.00    +0.002 C 
ENDROOT
BRANCH   1   2
ATOM      2  C   UNL     1       9.968  -1.846  23.792  0.00  0.00    +0.028 C 
BRANCH   2   3
ATOM      3  C   UNL     1       9.216  -1.798  22.469  0.00  0.00    +0.156 C 
BRANCH   3   4
ATOM      4  O   UNL     1      10.144  -1.539  21.424  0.00  0.00    -0.395 OA
ATOM      5  H   UNL     1       9.724  -1.819  20.593  0.00  0.00    +0.209 HD
ENDBRANCH   3   4
ENDBRANCH   2   3
ENDBRANCH   1   2
BRANCH   1   6
ATOM      6  C   UNL     1      10.750   0.470  24.416  0.00  0.00    +0.001 C 
BRANCH   6   7
ATOM      7  C   UNL     1      10.117   1.780  23.946  0.00  0.00    +0.011 C 
BRANCH   7   8
ATOM      8  C   UNL     1      10.117   1.874  22.429  0.00  0.00    +0.080 C 
ATOM      9 BR   UNL     1       8.286   1.858  21.768  0.00  0.00    -0.092 Br
ENDBRANCH   7   8
ENDBRANCH   6   7
ENDBRANCH   1   6
TORSDOF 6
ENDMDL
MODEL 3
REMARK VINA RESULT:      -3.4      3.558      4.163
REMARK  Name = 
REMARK  6 active torsions:
REMARK  status: ('A' for Active; 'I' for Inactive)
REMARK    1  A    between atoms: O_1  and  C_2
REMARK    2  A    between atoms: C_2  and  C_3
REMARK    3  A    between atoms: C_3  and  C_4
REMARK    4  A    between atoms: C_4  and  C_5
REMARK    5  A    between atoms: C_5  and  C_6
REMARK    6  A    between atoms: C_6  and  C_7
REMARK                            x       y       z     vdW  Elec       q    Type
REMARK                         _______ _______ _______ _____ _____    ______ ____
ROOT
ATOM      1  C   UNL     1      10.593   1.683  23.958  0.00  0.00    +0.002 C 
ENDROOT
BRANCH   1   2
ATOM      2  C   UNL     1       9.120   2.025  23.745  0.00  0.00    +0.028 C 
BRANCH   2   3
ATOM      3  C   UNL     1       8.802   2.251  22.273  0.00  0.00    +0.156 C 
BRANCH   3   4
ATOM      4  O   UNL     1      10.009   2.181  21.528  0.00  0.00    -0.395 OA
ATOM      5  H   UNL     1      10.241   1.240  21.447  0.00  0.00    +0.209 HD
ENDBRANCH   3   4
ENDBRANCH   2   3
ENDBRANCH   1   2
BRANCH   1   6
ATOM      6  C   UNL     1      10.754   0.436  24.828  0.00  0.00    +0.001 C 
BRANCH   6   7
ATOM      7  C   UNL     1       9.592  -0.538  24.624  0.00  0.00    +0.011 C 
BRANCH   7   8
ATOM      8  C   UNL     1       9.998  -1.693  23.724  0.00  0.00    +0.080 C 
ATOM      9 BR   UNL     1       9.076  -1.551  22.015  0.00  0.00    -0.092 Br
ENDBRANCH   7   8
ENDBRANCH   6   7
ENDBRANCH   1   6
TORSDOF 6
ENDMDL
MODEL 4
REMARK VINA RESULT:      -3.3      3.868      4.489
REMARK  Name = 
REMARK  6 active torsions:
REMARK  status: ('A' for Active; 'I' for Inactive)
REMARK    1  A    between atoms: O_1  and  C_2
REMARK    2  A    between atoms: C_2  and  C_3
REMARK    3  A    between atoms: C_3  and  C_4
REMARK    4  A    between atoms: C_4  and  C_5
REMARK    5  A    between atoms: C_5  and  C_6
REMARK    6  A    between atoms: C_6  and  C_7
REMARK                            x       y       z     vdW  Elec       q    Type
REMARK                         _______ _______ _______ _____ _____    ______ ____
ROOT
ATOM      1  C   UNL     1       9.982   1.833  22.106  0.00  0.00    +0.002 C 
ENDROOT
BRANCH   1   2
ATOM      2  C   UNL     1      10.478   1.481  23.507  0.00  0.00    +0.028 C 
BRANCH   2   3
ATOM      3  C   UNL     1       9.373   1.616  24.545  0.00  0.00    +0.156 C 
BRANCH   3   4
ATOM      4  O   UNL     1       9.622   0.699  25.601  0.00  0.00    -0.395 OA
ATOM      5  H   UNL     1      10.191   1.153  26.245  0.00  0.00    +0.209 HD
ENDBRANCH   3   4
ENDBRANCH   2   3
ENDBRANCH   1   2
BRANCH   1   6
ATOM      6  C   UNL     1       9.071   0.739  21.548  0.00  0.00    +0.001 C 
BRANCH   6   7
ATOM      7  C   UNL     1       9.747  -0.631  21.605  0.00  0.00    +0.011 C 
BRANCH   7   8
ATOM      8  C   UNL     1       8.834  -1.666  22.242  0.00  0.00    +0.080 C 
ATOM      9 BR   UNL     1       9.705  -2.441  23.801  0.00  0.00    -0.092 Br
ENDBRANCH   7   8
ENDBRANCH   6   7
ENDBRANCH   1   6
TORSDOF 6
ENDMDL
MODEL 5
REMARK VINA RESULT:      -3.3      3.723      5.014
REMARK  Name = 
REMARK  6 active torsions:
REMARK  status: ('A' for Active; 'I' for Inactive)
REMARK    1  A    between atoms: O_1  and  C_2
REMARK    2  A    between atoms: C_2  and  C_3
REMARK    3  A    between atoms: C_3  and  C_4
REMARK    4  A    between atoms: C_4  and  C_5
REMARK    5  A    between atoms: C_5  and  C_6
REMARK    6  A    between atoms: C_6  and  C_7
REMARK                            x       y       z     vdW  Elec       q    Type
REMARK                         _______ _______ _______ _____ _____    ______ ____
ROOT
ATOM      1  C   UNL     1       8.927   1.304  21.868  0.00  0.00    +0.002 C 
ENDROOT
BRANCH   1   2
ATOM      2  C   UNL     1       9.132   0.058  21.009  0.00  0.00    +0.028 C 
BRANCH   2   3
ATOM      3  C   UNL     1       9.168  -1.208  21.854  0.00  0.00    +0.156 C 
BRANCH   3   4
ATOM      4  O   UNL     1      10.501  -1.697  21.889  0.00  0.00    -0.395 OA
ATOM      5  H   UNL     1      10.485  -2.597  21.520  0.00  0.00    +0.209 HD
ENDBRANCH   3   4
ENDBRANCH   2   3
ENDBRANCH   1   2
BRANCH   1   6
ATOM      6  C   UNL     1      10.260   1.971  22.206  0.00  0.00    +0.001 C 
BRANCH   6   7
ATOM      7  C   UNL     1      10.429   2.143  23.717  0.00  0.00    +0.011 C 
BRANCH   7   8
ATOM      8  C   UNL     1       9.222   1.604  24.467  0.00  0.00    +0.080 C 
ATOM      9 BR   UNL     1       9.683  -0.078  25.333  0.00  0.00    -0.092 Br
ENDBRANCH   7   8
ENDBRANCH   6   7
ENDBRANCH   1   6
TORSDOF 6
ENDMDL
MODEL 6
REMARK VINA RESULT:      -3.3      4.056      5.360
REMARK  Name = 
REMARK  6 active torsions:
REMARK  status: ('A' for Active; 'I' for Inactive)
REMARK    1  A    between atoms: O_1  and  C_2
REMARK    2  A    between atoms: C_2  and  C_3
REMARK    3  A    between atoms: C_3  and  C_4
REMARK    4  A    between atoms: C_4  and  C_5
REMARK    5  A    between atoms: C_5  and  C_6
REMARK    6  A    between atoms: C_6  and  C_7
REMARK                            x       y       z     vdW  Elec       q    Type
REMARK                         _______ _______ _______ _____ _____    ______ ____
ROOT
ATOM      1  C   UNL     1       9.528  -0.886  21.692  0.00  0.00    +0.002 C 
ENDROOT
BRANCH   1   2
ATOM      2  C   UNL     1       9.049   0.540  21.428  0.00  0.00    +0.028 C 
BRANCH   2   3
ATOM      3  C   UNL     1       9.690   1.535  22.386  0.00  0.00    +0.156 C 
BRANCH   3   4
ATOM      4  O   UNL     1      10.458   2.465  21.635  0.00  0.00    -0.395 OA
ATOM      5  H   UNL     1       9.831   3.012  21.133  0.00  0.00    +0.209 HD
ENDBRANCH   3   4
ENDBRANCH   2   3
ENDBRANCH   1   2
BRANCH   1   6
ATOM      6  C   UNL     1      10.224  -0.996  23.049  0.00  0.00    +0.001 C 
BRANCH   6   7
ATOM      7  C   UNL     1       9.995  -2.370  23.681  0.00  0.00    +0.011 C 
BRANCH   7   8
ATOM      8  C   UNL     1       8.534  -2.566  24.049  0.00  0.00    +0.080 C 
ATOM      9 BR   UNL     1       8.102  -4.465  24.039  0.00  0.00    -0.092 Br
ENDBRANCH   7   8
ENDBRANCH   6   7
ENDBRANCH   1   6
TORSDOF 6
ENDMDL
MODEL 7
REMARK VINA RESULT:      -3.2      6.330      7.924
REMARK  Name = 
REMARK  6 active torsions:
REMARK  status: ('A' for Active; 'I' for Inactive)
REMARK    1  A    between atoms: O_1  and  C_2
REMARK    2  A    between atoms: C_2  and  C_3
REMARK    3  A    between atoms: C_3  and  C_4
REMARK    4  A    between atoms: C_4  and  C_5
REMARK    5  A    between atoms: C_5  and  C_6
REMARK    6  A    between atoms: C_6  and  C_7
REMARK                            x       y       z     vdW  Elec       q    Type
REMARK                         _______ _______ _______ _____ _____    ______ ____
ROOT
ATOM      1  C   UNL     1       8.834  -2.944  23.789  0.00  0.00    +0.002 C 
ENDROOT
BRANCH   1   2
ATOM      2  C   UNL     1       9.096  -3.683  25.100  0.00  0.00    +0.028 C 
BRANCH   2   3
ATOM      3  C   UNL     1       8.761  -5.164  24.987  0.00  0.00    +0.156 C 
BRANCH   3   4
ATOM      4  O   UNL     1       9.950  -5.918  25.174  0.00  0.00    -0.395 OA
ATOM      5  H   UNL     1      10.092  -6.434  24.362  0.00  0.00    +0.209 HD
ENDBRANCH   3   4
ENDBRANCH   2   3
ENDBRANCH   1   2
BRANCH   1   6
ATOM      6  C   UNL     1       9.539  -1.587  23.766  0.00  0.00    +0.001 C 
BRANCH   6   7
ATOM      7  C   UNL     1      10.281  -1.368  22.447  0.00  0.00    +0.011 C 
BRANCH   7   8
ATOM      8  C   UNL     1       9.520  -0.412  21.544  0.00  0.00    +0.080 C 
ATOM      9 BR   UNL     1       9.860   1.425  22.094  0.00  0.00    -0.092 Br
ENDBRANCH   7   8
ENDBRANCH   6   7
ENDBRANCH   1   6
TORSDOF 6
ENDMDL
MODEL 8
REMARK VINA RESULT:      -3.2      4.561      5.897
REMARK  Name = 
REMARK  6 active torsions:
REMARK  status: ('A' for Active; 'I' for Inactive)
REMARK    1  A    between atoms: O_1  and  C_2
REMARK    2  A    between atoms: C_2  and  C_3
REMARK    3  A    between atoms: C_3  and  C_4
REMARK    4  A    between atoms: C_4  and  C_5
REMARK    5  A    between atoms: C_5  and  C_6
REMARK    6  A    between atoms: C_6  and  C_7
REMARK                            x       y       z     vdW  Elec       q    Type
REMARK                         _______ _______ _______ _____ _____    ______ ____
ROOT
ATOM      1  C   UNL     1       9.859  -0.849  21.915  0.00  0.00    +0.002 C 
ENDROOT
BRANCH   1   2
ATOM      2  C   UNL     1      10.229  -0.772  23.395  0.00  0.00    +0.028 C 
BRANCH   2   3
ATOM      3  C   UNL     1       9.545  -1.867  24.203  0.00  0.00    +0.156 C 
BRANCH   3   4
ATOM      4  O   UNL     1      10.160  -3.111  23.899  0.00  0.00    -0.395 OA
ATOM      5  H   UNL     1      11.118  -2.992  24.012  0.00  0.00    +0.209 HD
ENDBRANCH   3   4
ENDBRANCH   2   3
ENDBRANCH   1   2
BRANCH   1   6
ATOM      6  C   UNL     1       9.289   0.478  21.415  0.00  0.00    +0.001 C 
BRANCH   6   7
ATOM      7  C   UNL     1      10.007   1.668  22.055  0.00  0.00    +0.011 C 
BRANCH   7   8
ATOM      8  C   UNL     1       9.026   2.571  22.784  0.00  0.00    +0.080 C 
ATOM      9 BR   UNL     1       7.243   2.349  22.032  0.00  0.00    -0.092 Br
ENDBRANCH   7   8
ENDBRANCH   6   7
ENDBRANCH   1   6
TORSDOF 6
ENDMDL
MODEL 9
REMARK VINA RESULT:      -3.1      2.558      4.019
REMARK  Name = 
REMARK  6 active torsions:
REMARK  status: ('A' for Active; 'I' for Inactive)
REMARK    1  A    between atoms: O_1  and  C_2
REMARK    2  A    between atoms: C_2  and  C_3
REMARK    3  A    between atoms: C_3  and  C_4
REMARK    4  A    between atoms: C_4  and  C_5
REMARK    5  A    between atoms: C_5  and  C_6
REMARK    6  A    between atoms: C_6  and  C_7
REMARK                            x       y       z     vdW  Elec       q    Type
REMARK                         _______ _______ _______ _____ _____    ______ ____
ROOT
ATOM      1  C   UNL     1      10.132   0.545  22.563  0.00  0.00    +0.002 C 
ENDROOT
BRANCH   1   2
ATOM      2  C   UNL     1      10.062   2.031  22.216  0.00  0.00    +0.028 C 
BRANCH   2   3
ATOM      3  C   UNL     1      10.536   2.900  23.373  0.00  0.00    +0.156 C 
BRANCH   3   4
ATOM      4  O   UNL     1      11.385   3.918  22.862  0.00  0.00    -0.395 OA
ATOM      5  H   UNL     1      11.161   4.032  21.922  0.00  0.00    +0.209 HD
ENDBRANCH   3   4
ENDBRANCH   2   3
ENDBRANCH   1   2
BRANCH   1   6
ATOM      6  C   UNL     1       9.438  -0.307  21.499  0.00  0.00    +0.001 C 
BRANCH   6   7
ATOM      7  C   UNL     1       9.145  -1.715  22.018  0.00  0.00    +0.011 C 
BRANCH   7   8
ATOM      8  C   UNL     1       9.981  -2.030  23.248  0.00  0.00    +0.080 C 
ATOM      9 BR   UNL     1       8.813  -2.355  24.771  0.00  0.00    -0.092 Br
ENDBRANCH   7   8
ENDBRANCH   6   7
ENDBRANCH   1   6
TORSDOF 6
ENDMDL
