MODEL 1
REMARK VINA RESULT:      -3.0      0.000      0.000
REMARK  Name = 
REMARK  4 active torsions:
REMARK  status: ('A' for Active; 'I' for Inactive)
REMARK    1  A    between atoms: C_1  and  C_2
REMARK    2  A    between atoms: C_2  and  C_3
REMARK    3  A    between atoms: C_2  and  O_4
REMARK    4  A    between atoms: C_2  and  C_5
REMARK                            x       y       z     vdW  Elec       q    Type
REMARK                         _______ _______ _______ _____ _____    ______ ____
ROOT
ATOM      1  C   UNL     1       8.230   1.796  22.719  0.00  0.00    +0.057 C 
ATOM      2  C   UNL     1       9.621   1.277  22.352  0.00  0.00    +0.146 C 
ATOM      3  C   UNL     1       9.517   0.020  21.487  0.00  0.00    +0.057 C 
ENDROOT
BRANCH   2   4
ATOM      4  C   UNL     1      10.388   0.979  23.584  0.00  0.00    +0.097 C 
ATOM      5  N   UNL     1      10.979   0.712  24.548  0.00  0.00    -0.194 NA
ENDBRANCH   2   4
BRANCH   2   6
ATOM      6  O   UNL     1      10.287   2.291  21.586  0.00  0.00    -0.375 OA
ATOM      7  H   UNL     1      10.169   2.082  20.645  0.00  0.00    +0.211 HD
ENDBRANCH   2   6
TORSDOF 2
ENDMDL
MODEL 2
REMARK VINA RESULT:      -2.9      3.035      3.366
REMARK  Name = 
REMARK  4 active torsions:
REMARK  status: ('A' for Active; 'I' for Inactive)
REMARK    1  A    between atoms: C_1  and  C_2
REMARK    2  A    between atoms: C_2  and  C_3
REMARK    3  A    between atoms: C_2  and  O_4
REMARK    4  A    between atoms: C_2  and  C_5
REMARK                            x       y       z     vdW  Elec       q    Type
REMARK                         _______ _______ _______ _____ _____    ______ ____
ROOT
ATOM      1  C   UNL     1      10.357  -0.205  23.561  0.00  0.00    +0.057 C 
ATOM      2  C   UNL     1       9.645  -1.361  22.858  0.00  0.00    +0.146 C 
ATOM      3  C   UNL     1       8.172  -1.023  22.622  0.00  0.00    +0.057 C 
ENDROOT
BRANCH   2   4
ATOM      4  C   UNL     1       9.754  -2.592  23.676  0.00  0.00    +0.097 C 
ATOM      5  N   UNL     1       9.852  -3.538  24.345  0.00  0.00    -0.194 NA
ENDBRANCH   2   4
BRANCH   2   6
ATOM      6  O   UNL     1      10.267  -1.558  21.581  0.00  0.00    -0.375 OA
ATOM      7  H   UNL     1      11.121  -1.094  21.588  0.00  0.00    +0.211 HD
ENDBRANCH   2   6
TORSDOF 2
ENDMDL
MODEL 3
REMARK VINA RESULT:      -2.9      1.610      2.088
REMARK  Name = 
REMARK  4 active torsions:
REMARK  status: ('A' for Active; 'I' for Inactive)
REMARK    1  A    between atoms: C_1  and  C_2
REMARK    2  A    between atoms: C_2  and  C_3
REMARK    3  A    between atoms: C_2  and  O_4
REMARK    4  A    between atoms: C_2  and  C_5
REMARK                            x       y       z     vdW  Elec       q    Type
REMARK                         _______ _______ _______ _____ _____    ______ ____
ROOT
ATOM      1  C   UNL     1       9.547   1.770  23.722  0.00  0.00    +0.057 C 
ATOM      2  C   UNL     1       9.413   1.571  22.212  0.00  0.00    +0.146 C 
ATOM      3  C   UNL     1       8.033   2.020  21.728  0.00  0.00    +0.057 C 
ENDROOT
BRANCH   2   4
ATOM      4  C   UNL     1       9.628   0.145  21.870  0.00  0.00    +0.097 C 
ATOM      5  N   UNL     1       9.786  -0.982  21.635  0.00  0.00    -0.194 NA
ENDBRANCH   2   4
BRANCH   2   6
ATOM      6  O   UNL     1      10.399   2.389  21.566  0.00  0.00    -0.375 OA
ATOM      7  H   UNL     1      11.234   2.295  22.054  0.00  0.00    +0.211 HD
ENDBRANCH   2   6
TORSDOF 2
ENDMDL
MODEL 4
REMARK VINA RESULT:      -2.9      6.803      7.026
REMARK  Name = 
REMARK  4 active torsions:
REMARK  status: ('A' for Active; 'I' for Inactive)
REMARK    1  A    between atoms: C_1  and  C_2
REMARK    2  A    between atoms: C_2  and  C_3
REMARK    3  A    between atoms: C_2  and  O_4
REMARK    4  A    between atoms: C_2  and  C_5
REMARK                            x       y       z     vdW  Elec       q    Type
REMARK                         _______ _______ _______ _____ _____    ______ ____
ROOT
ATOM      1  C   UNL     1       9.060  -3.320  25.141  0.00  0.00    +0.057 C 
ATOM      2  C   UNL     1       8.782  -4.823  25.097  0.00  0.00    +0.146 C 
ATOM      3  C   UNL     1       7.906  -5.175  23.894  0.00  0.00    +0.057 C 
ENDROOT
BRANCH   2   4
ATOM      4  C   UNL     1       8.114  -5.249  26.349  0.00  0.00    +0.097 C 
ATOM      5  N   UNL     1       7.620  -5.597  27.342  0.00  0.00    -0.194 NA
ENDBRANCH   2   4
BRANCH   2   6
ATOM      6  O   UNL     1      10.036  -5.504  24.949  0.00  0.00    -0.375 OA
ATOM      7  H   UNL     1       9.885  -6.450  25.113  0.00  0.00    +0.211 HD
ENDBRANCH   2   6
TORSDOF 2
ENDMDL
MODEL 5
REMARK VINA RESULT:      -2.9      2.140      2.826
REMARK  Name = 
REMARK  4 active torsions:
REMARK  status: ('A' for Active; 'I' for Inactive)
REMARK    1  A    between atoms: C_1  and  C_2
REMARK    2  A    between atoms: C_2  and  C_3
REMARK    3  A    between atoms: C_2  and  O_4
REMARK    4  A    between atoms: C_2  and  C_5
REMARK                            x       y       z     vdW  Elec       q    Type
REMARK                         _______ _______ _______ _____ _____    ______ ____
ROOT
ATOM      1  C   UNL     1       9.571   0.223  21.545  0.00  0.00    +0.057 C 
ATOM      2  C   UNL     1       9.498   1.603  22.200  0.00  0.00    +0.146 C 
ATOM      3  C   UNL     1       9.823   1.510  23.692  0.00  0.00    +0.057 C 
ENDROOT
BRANCH   2   4
ATOM      4  C   UNL     1       8.146   2.178  22.014  0.00  0.00    +0.097 C 
ATOM      5  N   UNL     1       7.071   2.601  21.883  0.00  0.00    -0.194 NA
ENDBRANCH   2   4
BRANCH   2   6
ATOM      6  O   UNL     1      10.483   2.442  21.582  0.00  0.00    -0.375 OA
ATOM      7  H   UNL     1      10.031   3.229  21.234  0.00  0.00    +0.211 HD
ENDBRANCH   2   6
TORSDOF 2
ENDMDL
MODEL 6
REMARK VINA RESULT:      -2.8      2.515      2.740
REMARK  Name = 
REMARK  4 active torsions:
REMARK  status: ('A' for Active; 'I' for Inactive)
REMARK    1  A    between atoms: C_1  and  C_2
REMARK    2  A    between atoms: C_2  and  C_3
REMARK    3  A    between atoms: C_2  and  O_4
REMARK    4  A    between atoms: C_2  and  C_5
REMARK                            x       y       z     vdW  Elec       q    Type
REMARK                         _______ _______ _______ _____ _____    ______ ____
ROOT
ATOM      1  C   UNL     1       8.344  -1.006  22.682  0.00  0.00    +0.057 C 
ATOM      2  C   UNL     1       9.794  -1.354  23.022  0.00  0.00    +0.146 C 
ATOM      3  C   UNL     1       9.857  -2.612  23.890  0.00  0.00    +0.057 C 
ENDROOT
BRANCH   2   4
ATOM      4  C   UNL     1      10.432  -0.220  23.731  0.00  0.00    +0.097 C 
ATOM      5  N   UNL     1      10.956   0.646  24.302  0.00  0.00    -0.194 NA
ENDBRANCH   2   4
BRANCH   2   6
ATOM      6  O   UNL     1      10.487  -1.625  21.796  0.00  0.00    -0.375 OA
ATOM      7  H   UNL     1      10.700  -0.774  21.377  0.00  0.00    +0.211 HD
ENDBRANCH   2   6
TORSDOF 2
ENDMDL
MODEL 7
REMARK VINA RESULT:      -2.8      7.767      8.002
REMARK  Name = 
REMARK  4 active torsions:
REMARK  status: ('A' for Active; 'I' for Inactive)
REMARK    1  A    between atoms: C_1  and  C_2
REMARK    2  A    between atoms: C_2  and  C_3
REMARK    3  A    between atoms: C_2  and  O_4
REMARK    4  A    between atoms: C_2  and  C_5
REMARK                            x       y       z     vdW  Elec       q    Type
REMARK                         _______ _______ _______ _____ _____    ______ ____
ROOT
ATOM      1  C   UNL     1       6.039  -5.872  25.975  0.00  0.00    +0.057 C 
ATOM      2  C   UNL     1       7.327  -5.212  26.471  0.00  0.00    +0.146 C 
ATOM      3  C   UNL     1       7.075  -3.751  26.845  0.00  0.00    +0.057 C 
ENDROOT
BRANCH   2   4
ATOM      4  C   UNL     1       8.371  -5.292  25.423  0.00  0.00    +0.097 C 
ATOM      5  N   UNL     1       9.197  -5.320  24.606  0.00  0.00    -0.194 NA
ENDBRANCH   2   4
BRANCH   2   6
ATOM      6  O   UNL     1       7.756  -5.906  27.651  0.00  0.00    -0.375 OA
ATOM      7  H   UNL     1       6.976  -6.319  28.057  0.00  0.00    +0.211 HD
ENDBRANCH   2   6
TORSDOF 2
ENDMDL
MODEL 8
REMARK VINA RESULT:      -2.8      3.017      3.497
REMARK  Name = 
REMARK  4 active torsions:
REMARK  status: ('A' for Active; 'I' for Inactive)
REMARK    1  A    between atoms: C_1  and  C_2
REMARK    2  A    between atoms: C_2  and  C_3
REMARK    3  A    between atoms: C_2  and  O_4
REMARK    4  A    between atoms: C_2  and  C_5
REMARK                            x       y       z     vdW  Elec       q    Type
REMARK                         _______ _______ _______ _____ _____    ______ ____
ROOT
ATOM      1  C   UNL     1       9.934  -0.648  23.800  0.00  0.00    +0.057 C 
ATOM      2  C   UNL     1       9.600  -1.014  22.354  0.00  0.00    +0.146 C 
ATOM      3  C   UNL     1       9.352   0.244  21.521  0.00  0.00    +0.057 C 
ENDROOT
BRANCH   2   4
ATOM      4  C   UNL     1       8.402  -1.885  22.318  0.00  0.00    +0.097 C 
ATOM      5  N   UNL     1       7.455  -2.561  22.325  0.00  0.00    -0.194 NA
ENDBRANCH   2   4
BRANCH   2   6
ATOM      6  O   UNL     1      10.728  -1.702  21.796  0.00  0.00    -0.375 OA
ATOM      7  H   UNL     1      10.477  -2.026  20.915  0.00  0.00    +0.211 HD
ENDBRANCH   2   6
TORSDOF 2
ENDMDL
MODEL 9
REMARK VINA RESULT:      -2.7      6.435      6.795
REMARK  Name = 
REMARK  4 active torsions:
REMARK  status: ('A' for Active; 'I' for Inactive)
REMARK    1  A    between atoms: C_1  and  C_2
REMARK    2  A    between atoms: C_2  and  C_3
REMARK    3  A    between atoms: C_2  and  O_4
REMARK    4  A    between atoms: C_2  and  C_5
REMARK                            x       y       z     vdW  Elec       q    Type
REMARK                         _______ _______ _______ _____ _____    ______ ____
ROOT
ATOM      1  C   UNL     1       8.493  -4.639  26.330  0.00  0.00    +0.057 C 
ATOM      2  C   UNL     1       9.078  -4.518  24.922  0.00  0.00    +0.146 C 
ATOM      3  C   UNL     1       9.404  -3.060  24.595  0.00  0.00    +0.057 C 
ENDROOT
BRANCH   2   4
ATOM      4  C   UNL     1       8.116  -5.054  23.930  0.00  0.00    +0.097 C 
ATOM      5  N   UNL     1       7.337  -5.453  23.164  0.00  0.00    -0.194 NA
ENDBRANCH   2   4
BRANCH   2   6
ATOM      6  O   UNL     1      10.300  -5.267  24.881  0.00  0.00    -0.375 OA
ATOM      7  H   UNL     1      11.033  -4.656  25.063  0.00  0.00    +0.211 HD
ENDBRANCH   2   6
TORSDOF 2
ENDMDL
