MODEL 1
REMARK VINA RESULT:      -6.2      0.000      0.000
REMARK  Name = 
REMARK  5 active torsions:
REMARK  status: ('A' for Active; 'I' for Inactive)
REMARK    1  A    between atoms: C_1  and  C_2
REMARK    2  A    between atoms: C_2  and  N_3
REMARK    3  A    between atoms: C_5  and  C_6
REMARK    4  A    between atoms: C_6  and  O_7
REMARK    5  A    between atoms: C_14  and  C_15
REMARK                            x       y       z     vdW  Elec       q    Type
REMARK                         _______ _______ _______ _____ _____    ______ ____
ROOT
ATOM      1  N   UNL     1       7.197  -4.037  23.136  0.00  0.00    -0.331 N 
ATOM      2  C   UNL     1       8.012  -2.894  23.308  0.00  0.00    +0.145 A 
ATOM      3  N   UNL     1       8.282  -2.076  22.260  0.00  0.00    -0.234 NA
ATOM      4  C   UNL     1       9.094  -1.005  22.450  0.00  0.00    +0.041 A 
ATOM      5  C   UNL     1       9.673  -0.708  23.679  0.00  0.00    +0.024 A 
ATOM      6  C   UNL     1       9.388  -1.530  24.761  0.00  0.00    +0.017 A 
ATOM      7  C   UNL     1       9.378  -0.136  21.262  0.00  0.00    +0.065 C 
ATOM      8  C   UNL     1       8.548  -2.628  24.572  0.00  0.00    +0.065 A 
ATOM      9  C   UNL     1       8.231  -3.519  25.707  0.00  0.00    +0.205 A 
ATOM     10  O   UNL     1       8.658  -3.293  26.839  0.00  0.00    -0.286 OA
ATOM     11  C   UNL     1       7.380  -4.701  25.462  0.00  0.00    +0.122 A 
ATOM     12  C   UNL     1       6.929  -4.868  24.210  0.00  0.00    +0.106 A 
ENDROOT
BRANCH   1  14
ATOM     13  C   UNL     1       6.702  -5.753  21.436  0.00  0.00    +0.027 C 
ATOM     14  C   UNL     1       6.662  -4.274  21.789  0.00  0.00    +0.120 C 
ENDBRANCH   1  14
BRANCH  11  15
ATOM     15  C   UNL     1       7.021  -5.683  26.505  0.00  0.00    +0.342 C 
ATOM     16  O   UNL     1       5.976  -6.318  26.499  0.00  0.00    -0.245 OA
BRANCH  15  17
ATOM     17  O   UNL     1       7.946  -5.831  27.478  0.00  0.00    -0.477 OA
ATOM     18  H   UNL     1       8.093  -6.769  27.756  0.00  0.00    +0.295 HD
ENDBRANCH  15  17
ENDBRANCH  11  15
TORSDOF 3
ENDMDL
MODEL 2
REMARK VINA RESULT:      -5.9      2.070      3.474
REMARK  Name = 
REMARK  5 active torsions:
REMARK  status: ('A' for Active; 'I' for Inactive)
REMARK    1  A    between atoms: C_1  and  C_2
REMARK    2  A    between atoms: C_2  and  N_3
REMARK    3  A    between atoms: C_5  and  C_6
REMARK    4  A    between atoms: C_6  and  O_7
REMARK    5  A    between atoms: C_14  and  C_15
REMARK                            x       y       z     vdW  Elec       q    Type
REMARK                         _______ _______ _______ _____ _____    ______ ____
ROOT
ATOM      1  N   UNL     1       5.742  -5.259  23.366  0.00  0.00    -0.331 N 
ATOM      2  C   UNL     1       6.777  -4.860  24.244  0.00  0.00    +0.145 A 
ATOM      3  N   UNL     1       7.764  -4.033  23.815  0.00  0.00    -0.234 NA
ATOM      4  C   UNL     1       8.760  -3.695  24.672  0.00  0.00    +0.041 A 
ATOM      5  C   UNL     1       8.821  -4.165  25.979  0.00  0.00    +0.024 A 
ATOM      6  C   UNL     1       7.807  -4.997  26.432  0.00  0.00    +0.017 A 
ATOM      7  C   UNL     1       9.839  -2.792  24.153  0.00  0.00    +0.065 C 
ATOM      8  C   UNL     1       6.776  -5.343  25.556  0.00  0.00    +0.065 A 
ATOM      9  C   UNL     1       5.686  -6.228  26.013  0.00  0.00    +0.205 A 
ATOM     10  O   UNL     1       5.636  -6.641  27.171  0.00  0.00    -0.286 OA
ATOM     11  C   UNL     1       4.638  -6.616  25.047  0.00  0.00    +0.122 A 
ATOM     12  C   UNL     1       4.741  -6.105  23.812  0.00  0.00    +0.106 A 
ENDROOT
BRANCH   1  14
ATOM     13  C   UNL     1       6.239  -5.796  21.012  0.00  0.00    +0.027 C 
ATOM     14  C   UNL     1       5.791  -4.728  21.998  0.00  0.00    +0.120 C 
ENDBRANCH   1  14
BRANCH  11  15
ATOM     15  C   UNL     1       3.517  -7.520  25.373  0.00  0.00    +0.342 C 
ATOM     16  O   UNL     1       3.053  -8.328  24.581  0.00  0.00    -0.245 OA
BRANCH  15  17
ATOM     17  O   UNL     1       3.038  -7.390  26.630  0.00  0.00    -0.477 OA
ATOM     18  H   UNL     1       2.165  -6.928  26.683  0.00  0.00    +0.295 HD
ENDBRANCH  15  17
ENDBRANCH  11  15
TORSDOF 3
ENDMDL
MODEL 3
REMARK VINA RESULT:      -5.8      1.925      2.514
REMARK  Name = 
REMARK  5 active torsions:
REMARK  status: ('A' for Active; 'I' for Inactive)
REMARK    1  A    between atoms: C_1  and  C_2
REMARK    2  A    between atoms: C_2  and  N_3
REMARK    3  A    between atoms: C_5  and  C_6
REMARK    4  A    between atoms: C_6  and  O_7
REMARK    5  A    between atoms: C_14  and  C_15
REMARK                            x       y       z     vdW  Elec       q    Type
REMARK                         _______ _______ _______ _____ _____    ______ ____
ROOT
ATOM      1  N   UNL     1       6.838  -1.995  24.778  0.00  0.00    -0.331 N 
ATOM      2  C   UNL     1       8.014  -1.692  24.053  0.00  0.00    +0.145 A 
ATOM      3  N   UNL     1       8.115  -0.532  23.357  0.00  0.00    -0.234 NA
ATOM      4  C   UNL     1       9.244  -0.286  22.646  0.00  0.00    +0.041 A 
ATOM      5  C   UNL     1      10.309  -1.178  22.590  0.00  0.00    +0.024 A 
ATOM      6  C   UNL     1      10.222  -2.360  23.313  0.00  0.00    +0.017 A 
ATOM      7  C   UNL     1       9.309   1.001  21.878  0.00  0.00    +0.065 C 
ATOM      8  C   UNL     1       9.066  -2.615  24.052  0.00  0.00    +0.065 A 
ATOM      9  C   UNL     1       8.947  -3.865  24.829  0.00  0.00    +0.205 A 
ATOM     10  O   UNL     1       9.868  -4.681  24.877  0.00  0.00    -0.286 OA
ATOM     11  C   UNL     1       7.690  -4.128  25.559  0.00  0.00    +0.122 A 
ATOM     12  C   UNL     1       6.743  -3.183  25.483  0.00  0.00    +0.106 A 
ENDROOT
BRANCH   1  14
ATOM     13  C   UNL     1       5.515  -0.412  26.127  0.00  0.00    +0.027 C 
ATOM     14  C   UNL     1       5.763  -0.996  24.744  0.00  0.00    +0.120 C 
ENDBRANCH   1  14
BRANCH  11  15
ATOM     15  C   UNL     1       7.438  -5.355  26.342  0.00  0.00    +0.342 C 
ATOM     16  O   UNL     1       6.442  -6.049  26.200  0.00  0.00    -0.245 OA
BRANCH  15  17
ATOM     17  O   UNL     1       8.406  -5.660  27.234  0.00  0.00    -0.477 OA
ATOM     18  H   UNL     1       8.096  -6.217  27.990  0.00  0.00    +0.295 HD
ENDBRANCH  15  17
ENDBRANCH  11  15
TORSDOF 3
ENDMDL
MODEL 4
REMARK VINA RESULT:      -5.7      2.339      4.825
REMARK  Name = 
REMARK  5 active torsions:
REMARK  status: ('A' for Active; 'I' for Inactive)
REMARK    1  A    between atoms: C_1  and  C_2
REMARK    2  A    between atoms: C_2  and  N_3
REMARK    3  A    between atoms: C_5  and  C_6
REMARK    4  A    between atoms: C_6  and  O_7
REMARK    5  A    between atoms: C_14  and  C_15
REMARK                            x       y       z     vdW  Elec       q    Type
REMARK                         _______ _______ _______ _____ _____    ______ ____
ROOT
ATOM      1  N   UNL     1       6.850  -3.910  22.803  0.00  0.00    -0.331 N 
ATOM      2  C   UNL     1       7.008  -4.185  24.182  0.00  0.00    +0.145 A 
ATOM      3  N   UNL     1       6.205  -5.086  24.802  0.00  0.00    -0.234 NA
ATOM      4  C   UNL     1       6.361  -5.302  26.133  0.00  0.00    +0.041 A 
ATOM      5  C   UNL     1       7.309  -4.633  26.899  0.00  0.00    +0.024 A 
ATOM      6  C   UNL     1       8.146  -3.722  26.269  0.00  0.00    +0.017 A 
ATOM      7  C   UNL     1       5.443  -6.295  26.782  0.00  0.00    +0.065 C 
ATOM      8  C   UNL     1       7.995  -3.501  24.899  0.00  0.00    +0.065 A 
ATOM      9  C   UNL     1       8.871  -2.536  24.206  0.00  0.00    +0.205 A 
ATOM     10  O   UNL     1       9.772  -1.944  24.802  0.00  0.00    -0.286 OA
ATOM     11  C   UNL     1       8.651  -2.287  22.767  0.00  0.00    +0.122 A 
ATOM     12  C   UNL     1       7.671  -2.987  22.179  0.00  0.00    +0.106 A 
ENDROOT
BRANCH   1  14
ATOM     13  C   UNL     1       6.396  -5.691  21.160  0.00  0.00    +0.027 C 
ATOM     14  C   UNL     1       5.797  -4.652  22.096  0.00  0.00    +0.120 C 
ENDBRANCH   1  14
BRANCH  11  15
ATOM     15  C   UNL     1       9.439  -1.322  21.973  0.00  0.00    +0.342 C 
ATOM     16  O   UNL     1       8.959  -0.317  21.469  0.00  0.00    -0.245 OA
BRANCH  15  17
ATOM     17  O   UNL     1      10.747  -1.636  21.845  0.00  0.00    -0.477 OA
ATOM     18  H   UNL     1      11.312  -0.890  21.525  0.00  0.00    +0.295 HD
ENDBRANCH  15  17
ENDBRANCH  11  15
TORSDOF 3
ENDMDL
MODEL 5
REMARK VINA RESULT:      -5.7      2.804      3.994
REMARK  Name = 
REMARK  5 active torsions:
REMARK  status: ('A' for Active; 'I' for Inactive)
REMARK    1  A    between atoms: C_1  and  C_2
REMARK    2  A    between atoms: C_2  and  N_3
REMARK    3  A    between atoms: C_5  and  C_6
REMARK    4  A    between atoms: C_6  and  O_7
REMARK    5  A    between atoms: C_14  and  C_15
REMARK                            x       y       z     vdW  Elec       q    Type
REMARK                         _______ _______ _______ _____ _____    ______ ____
ROOT
ATOM      1  N   UNL     1       8.147  -0.949  25.903  0.00  0.00    -0.331 N 
ATOM      2  C   UNL     1       8.839  -0.093  25.014  0.00  0.00    +0.145 A 
ATOM      3  N   UNL     1       8.710   1.254  25.113  0.00  0.00    -0.234 NA
ATOM      4  C   UNL     1       9.361   2.047  24.225  0.00  0.00    +0.041 A 
ATOM      5  C   UNL     1      10.157   1.539  23.205  0.00  0.00    +0.024 A 
ATOM      6  C   UNL     1      10.309   0.163  23.106  0.00  0.00    +0.017 A 
ATOM      7  C   UNL     1       9.178   3.529  24.361  0.00  0.00    +0.065 C 
ATOM      8  C   UNL     1       9.647  -0.657  24.022  0.00  0.00    +0.065 A 
ATOM      9  C   UNL     1       9.791  -2.124  23.937  0.00  0.00    +0.205 A 
ATOM     10  O   UNL     1      10.522  -2.651  23.098  0.00  0.00    -0.286 OA
ATOM     11  C   UNL     1       9.036  -2.965  24.889  0.00  0.00    +0.122 A 
ATOM     12  C   UNL     1       8.283  -2.322  25.792  0.00  0.00    +0.106 A 
ENDROOT
BRANCH   1  14
ATOM     13  C   UNL     1       5.983  -1.036  27.080  0.00  0.00    +0.027 C 
ATOM     14  C   UNL     1       7.310  -0.307  26.924  0.00  0.00    +0.120 C 
ENDBRANCH   1  14
BRANCH  11  15
ATOM     15  C   UNL     1       9.071  -4.442  24.884  0.00  0.00    +0.342 C 
ATOM     16  O   UNL     1       8.066  -5.137  24.850  0.00  0.00    -0.245 OA
BRANCH  15  17
ATOM     17  O   UNL     1      10.313  -4.974  24.915  0.00  0.00    -0.477 OA
ATOM     18  H   UNL     1      10.879  -4.723  24.144  0.00  0.00    +0.295 HD
ENDBRANCH  15  17
ENDBRANCH  11  15
TORSDOF 3
ENDMDL
MODEL 6
REMARK VINA RESULT:      -5.6      3.623      6.226
REMARK  Name = 
REMARK  5 active torsions:
REMARK  status: ('A' for Active; 'I' for Inactive)
REMARK    1  A    between atoms: C_1  and  C_2
REMARK    2  A    between atoms: C_2  and  N_3
REMARK    3  A    between atoms: C_5  and  C_6
REMARK    4  A    between atoms: C_6  and  O_7
REMARK    5  A    between atoms: C_14  and  C_15
REMARK                            x       y       z     vdW  Elec       q    Type
REMARK                         _______ _______ _______ _____ _____    ______ ____
ROOT
ATOM      1  N   UNL     1       8.867  -0.597  25.310  0.00  0.00    -0.331 N 
ATOM      2  C   UNL     1       8.421  -1.674  24.509  0.00  0.00    +0.145 A 
ATOM      3  N   UNL     1       7.867  -2.773  25.079  0.00  0.00    -0.234 NA
ATOM      4  C   UNL     1       7.478  -3.803  24.285  0.00  0.00    +0.041 A 
ATOM      5  C   UNL     1       7.629  -3.787  22.903  0.00  0.00    +0.024 A 
ATOM      6  C   UNL     1       8.178  -2.659  22.310  0.00  0.00    +0.017 A 
ATOM      7  C   UNL     1       6.885  -5.006  24.957  0.00  0.00    +0.065 C 
ATOM      8  C   UNL     1       8.573  -1.594  23.121  0.00  0.00    +0.065 A 
ATOM      9  C   UNL     1       9.162  -0.383  22.514  0.00  0.00    +0.205 A 
ATOM     10  O   UNL     1       9.278  -0.267  21.294  0.00  0.00    -0.286 OA
ATOM     11  C   UNL     1       9.617   0.704  23.404  0.00  0.00    +0.122 A 
ATOM     12  C   UNL     1       9.434   0.520  24.720  0.00  0.00    +0.106 A 
ENDROOT
BRANCH   1  14
ATOM     13  C   UNL     1       7.528   0.123  27.250  0.00  0.00    +0.027 C 
ATOM     14  C   UNL     1       8.688  -0.731  26.761  0.00  0.00    +0.120 C 
ENDBRANCH   1  14
BRANCH  11  15
ATOM     15  C   UNL     1      10.251   1.947  22.921  0.00  0.00    +0.342 C 
ATOM     16  O   UNL     1      10.979   2.643  23.615  0.00  0.00    -0.245 OA
BRANCH  15  17
ATOM     17  O   UNL     1       9.967   2.260  21.638  0.00  0.00    -0.477 OA
ATOM     18  H   UNL     1      10.598   1.877  20.980  0.00  0.00    +0.295 HD
ENDBRANCH  15  17
ENDBRANCH  11  15
TORSDOF 3
ENDMDL
MODEL 7
REMARK VINA RESULT:      -5.4      2.504      3.648
REMARK  Name = 
REMARK  5 active torsions:
REMARK  status: ('A' for Active; 'I' for Inactive)
REMARK    1  A    between atoms: C_1  and  C_2
REMARK    2  A    between atoms: C_2  and  N_3
REMARK    3  A    between atoms: C_5  and  C_6
REMARK    4  A    between atoms: C_6  and  O_7
REMARK    5  A    between atoms: C_14  and  C_15
REMARK                            x       y       z     vdW  Elec       q    Type
REMARK                         _______ _______ _______ _____ _____    ______ ____
ROOT
ATOM      1  N   UNL     1       9.588  -1.254  23.936  0.00  0.00    -0.331 N 
ATOM      2  C   UNL     1       8.787  -0.500  24.826  0.00  0.00    +0.145 A 
ATOM      3  N   UNL     1       8.690   0.846  24.694  0.00  0.00    -0.234 NA
ATOM      4  C   UNL     1       7.939   1.543  25.583  0.00  0.00    +0.041 A 
ATOM      5  C   UNL     1       7.264   0.938  26.638  0.00  0.00    +0.024 A 
ATOM      6  C   UNL     1       7.344  -0.441  26.771  0.00  0.00    +0.017 A 
ATOM      7  C   UNL     1       7.870   3.032  25.410  0.00  0.00    +0.065 C 
ATOM      8  C   UNL     1       8.110  -1.164  25.854  0.00  0.00    +0.065 A 
ATOM      9  C   UNL     1       8.213  -2.632  25.974  0.00  0.00    +0.205 A 
ATOM     10  O   UNL     1       7.601  -3.250  26.846  0.00  0.00    -0.286 OA
ATOM     11  C   UNL     1       9.071  -3.362  25.019  0.00  0.00    +0.122 A 
ATOM     12  C   UNL     1       9.684  -2.627  24.080  0.00  0.00    +0.106 A 
ENDROOT
BRANCH   1  14
ATOM     13  C   UNL     1       9.529  -0.607  21.558  0.00  0.00    +0.027 C 
ATOM     14  C   UNL     1      10.282  -0.510  22.877  0.00  0.00    +0.120 C 
ENDBRANCH   1  14
BRANCH  11  15
ATOM     15  C   UNL     1       9.281  -4.823  25.057  0.00  0.00    +0.342 C 
ATOM     16  O   UNL     1       9.001  -5.566  24.128  0.00  0.00    -0.245 OA
BRANCH  15  17
ATOM     17  O   UNL     1       9.818  -5.284  26.209  0.00  0.00    -0.477 OA
ATOM     18  H   UNL     1      10.256  -6.166  26.126  0.00  0.00    +0.295 HD
ENDBRANCH  15  17
ENDBRANCH  11  15
TORSDOF 3
ENDMDL
MODEL 8
REMARK VINA RESULT:      -5.3      2.921      4.484
REMARK  Name = 
REMARK  5 active torsions:
REMARK  status: ('A' for Active; 'I' for Inactive)
REMARK    1  A    between atoms: C_1  and  C_2
REMARK    2  A    between atoms: C_2  and  N_3
REMARK    3  A    between atoms: C_5  and  C_6
REMARK    4  A    between atoms: C_6  and  O_7
REMARK    5  A    between atoms: C_14  and  C_15
REMARK                            x       y       z     vdW  Elec       q    Type
REMARK                         _______ _______ _______ _____ _____    ______ ____
ROOT
ATOM      1  N   UNL     1       6.370  -5.630  25.961  0.00  0.00    -0.331 N 
ATOM      2  C   UNL     1       6.834  -4.914  24.832  0.00  0.00    +0.145 A 
ATOM      3  N   UNL     1       7.964  -4.168  24.906  0.00  0.00    -0.234 NA
ATOM      4  C   UNL     1       8.364  -3.467  23.815  0.00  0.00    +0.041 A 
ATOM      5  C   UNL     1       7.660  -3.472  22.616  0.00  0.00    +0.024 A 
ATOM      6  C   UNL     1       6.511  -4.247  22.526  0.00  0.00    +0.017 A 
ATOM      7  C   UNL     1       9.611  -2.643  23.944  0.00  0.00    +0.065 C 
ATOM      8  C   UNL     1       6.099  -4.975  23.643  0.00  0.00    +0.065 A 
ATOM      9  C   UNL     1       4.880  -5.805  23.574  0.00  0.00    +0.205 A 
ATOM     10  O   UNL     1       4.231  -5.908  22.533  0.00  0.00    -0.286 OA
ATOM     11  C   UNL     1       4.443  -6.523  24.789  0.00  0.00    +0.122 A 
ATOM     12  C   UNL     1       5.214  -6.387  25.877  0.00  0.00    +0.106 A 
ENDROOT
BRANCH   1  14
ATOM     13  C   UNL     1       6.288  -5.345  28.408  0.00  0.00    +0.027 C 
ATOM     14  C   UNL     1       7.175  -5.530  27.185  0.00  0.00    +0.120 C 
ENDBRANCH   1  14
BRANCH  11  15
ATOM     15  C   UNL     1       3.225  -7.356  24.855  0.00  0.00    +0.342 C 
ATOM     16  O   UNL     1       2.467  -7.362  25.814  0.00  0.00    -0.245 OA
BRANCH  15  17
ATOM     17  O   UNL     1       3.006  -8.118  23.761  0.00  0.00    -0.477 OA
ATOM     18  H   UNL     1       2.538  -7.647  23.029  0.00  0.00    +0.295 HD
ENDBRANCH  15  17
ENDBRANCH  11  15
TORSDOF 3
ENDMDL
MODEL 9
REMARK VINA RESULT:      -5.3      3.594      5.606
REMARK  Name = 
REMARK  5 active torsions:
REMARK  status: ('A' for Active; 'I' for Inactive)
REMARK    1  A    between atoms: C_1  and  C_2
REMARK    2  A    between atoms: C_2  and  N_3
REMARK    3  A    between atoms: C_5  and  C_6
REMARK    4  A    between atoms: C_6  and  O_7
REMARK    5  A    between atoms: C_14  and  C_15
REMARK                            x       y       z     vdW  Elec       q    Type
REMARK                         _______ _______ _______ _____ _____    ______ ____
ROOT
ATOM      1  N   UNL     1       4.710  -6.530  24.503  0.00  0.00    -0.331 N 
ATOM      2  C   UNL     1       5.607  -6.100  25.509  0.00  0.00    +0.145 A 
ATOM      3  N   UNL     1       5.447  -6.504  26.794  0.00  0.00    -0.234 NA
ATOM      4  C   UNL     1       6.306  -6.048  27.740  0.00  0.00    +0.041 A 
ATOM      5  C   UNL     1       7.348  -5.173  27.454  0.00  0.00    +0.024 A 
ATOM      6  C   UNL     1       7.530  -4.769  26.139  0.00  0.00    +0.017 A 
ATOM      7  C   UNL     1       6.083  -6.506  29.151  0.00  0.00    +0.065 C 
ATOM      8  C   UNL     1       6.653  -5.240  25.160  0.00  0.00    +0.065 A 
ATOM      9  C   UNL     1       6.824  -4.824  23.753  0.00  0.00    +0.205 A 
ATOM     10  O   UNL     1       7.756  -4.096  23.408  0.00  0.00    -0.286 OA
ATOM     11  C   UNL     1       5.850  -5.300  22.751  0.00  0.00    +0.122 A 
ATOM     12  C   UNL     1       4.879  -6.111  23.195  0.00  0.00    +0.106 A 
ENDROOT
BRANCH   1  14
ATOM     13  C   UNL     1       2.475  -7.397  23.928  0.00  0.00    +0.027 C 
ATOM     14  C   UNL     1       3.627  -7.429  24.922  0.00  0.00    +0.120 C 
ENDBRANCH   1  14
BRANCH  11  15
ATOM     15  C   UNL     1       5.895  -4.926  21.323  0.00  0.00    +0.342 C 
ATOM     16  O   UNL     1       6.024  -5.741  20.420  0.00  0.00    -0.245 OA
BRANCH  15  17
ATOM     17  O   UNL     1       5.777  -3.602  21.085  0.00  0.00    -0.477 OA
ATOM     18  H   UNL     1       5.213  -3.381  20.302  0.00  0.00    +0.295 HD
ENDBRANCH  15  17
ENDBRANCH  11  15
TORSDOF 3
ENDMDL
