MODEL 1
REMARK VINA RESULT:      -8.4      0.000      0.000
REMARK  Name = 
REMARK  17 active torsions:
REMARK  status: ('A' for Active; 'I' for Inactive)
REMARK    1  A    between atoms: N_8  and  C_9
REMARK    2  A    between atoms: C_12  and  C_14
REMARK    3  A    between atoms: C_14  and  O_15
REMARK    4  A    between atoms: O_15  and  P_16
REMARK    5  A    between atoms: P_16  and  O_17
REMARK    6  A    between atoms: P_16  and  O_19
REMARK    7  A    between atoms: O_19  and  P_20
REMARK    8  A    between atoms: P_20  and  O_21
REMARK    9  A    between atoms: P_20  and  O_23
REMARK   10  A    between atoms: O_23  and  C_24
REMARK   11  A    between atoms: C_27  and  C_38
REMARK   12  A    between atoms: C_29  and  O_31
REMARK   13  A    between atoms: C_32  and  O_34
REMARK   14  A    between atoms: C_35  and  O_37
REMARK   15  A    between atoms: C_38  and  O_39
REMARK   16  A    between atoms: C_41  and  O_43
REMARK   17  A    between atoms: C_44  and  O_46
REMARK                            x       y       z     vdW  Elec       q    Type
REMARK                         _______ _______ _______ _____ _____    ______ ____
ROOT
ATOM      1  P   UNL     1      10.090  -1.200  23.156  0.00  0.00    +0.483 P 
ATOM      2  O   UNL     1      10.275  -2.662  23.576  0.00  0.00    -0.227 OA
ENDROOT
BRANCH   1   3
ATOM      3  O   UNL     1      10.420  -1.702  21.534  0.00  0.00    -0.302 OA
ATOM      4  H   UNL     1       9.516  -1.843  21.181  0.00  0.00    +0.222 HD
ENDBRANCH   1   3
BRANCH   1   5
ATOM      5  O   UNL     1       9.761  -0.696  24.779  0.00  0.00    -0.186 OA
BRANCH   5   6
ATOM      6  P   UNL     1       9.102   0.903  24.763  0.00  0.00    +0.486 P 
ATOM      7  O   UNL     1      10.492   1.444  24.575  0.00  0.00    -0.227 OA
BRANCH   6   8
ATOM      8  O   UNL     1       8.632   0.702  26.296  0.00  0.00    -0.302 OA
ATOM      9  H   UNL     1       9.380   0.608  26.915  0.00  0.00    +0.222 HD
ENDBRANCH   6   8
BRANCH   6  10
ATOM     10  O   UNL     1       8.444   2.503  24.747  0.00  0.00    -0.254 OA
BRANCH  10  11
ATOM     11  C   UNL     1       9.020   3.461  23.805  0.00  0.00    +0.294 C 
ATOM     12  C   UNL     1       8.844   5.029  23.933  0.00  0.00    +0.202 C 
ATOM     13  C   UNL     1       7.376   5.413  23.750  0.00  0.00    +0.179 C 
ATOM     14  C   UNL     1       6.936   5.020  22.351  0.00  0.00    +0.185 C 
ATOM     15  C   UNL     1       7.299   3.542  22.061  0.00  0.00    +0.260 C 
ATOM     16  O   UNL     1       8.597   3.076  22.471  0.00  0.00    -0.331 OA
BRANCH  15  17
ATOM     17  C   UNL     1       6.179   2.618  22.553  0.00  0.00    +0.337 C 
ATOM     18  O   UNL     1       5.078   2.997  22.924  0.00  0.00    -0.248 OA
BRANCH  17  19
ATOM     19  O   UNL     1       6.505   1.306  22.458  0.00  0.00    -0.479 OA
ATOM     20  H   UNL     1       5.891   0.793  23.031  0.00  0.00    +0.295 HD
ENDBRANCH  17  19
ENDBRANCH  15  17
BRANCH  14  21
ATOM     21  O   UNL     1       7.506   5.955  21.421  0.00  0.00    -0.386 OA
ATOM     22  H   UNL     1       8.430   6.137  21.661  0.00  0.00    +0.210 HD
ENDBRANCH  14  21
BRANCH  13  23
ATOM     23  O   UNL     1       6.585   4.764  24.739  0.00  0.00    -0.386 OA
ATOM     24  H   UNL     1       5.640   4.919  24.561  0.00  0.00    +0.210 HD
ENDBRANCH  13  23
BRANCH  12  25
ATOM     25  O   UNL     1       9.714   5.668  22.974  0.00  0.00    -0.384 OA
ATOM     26  H   UNL     1      10.603   5.696  23.375  0.00  0.00    +0.210 HD
ENDBRANCH  12  25
ENDBRANCH  10  11
ENDBRANCH   6  10
ENDBRANCH   5   6
ENDBRANCH   1   5
BRANCH   1  27
ATOM     27  O   UNL     1       8.497  -1.093  22.773  0.00  0.00    -0.284 OA
BRANCH  27  28
ATOM     28  C   UNL     1       7.907  -2.247  22.215  0.00  0.00    +0.206 C 
BRANCH  28  32
ATOM     29  C   UNL     1       6.321  -5.055  23.901  0.00  0.00    +0.253 C 
ATOM     30  C   UNL     1       5.082  -4.188  23.607  0.00  0.00    +0.195 C 
ATOM     31  C   UNL     1       5.640  -2.814  23.236  0.00  0.00    +0.178 C 
ATOM     32  C   UNL     1       7.154  -2.995  23.303  0.00  0.00    +0.178 C 
ATOM     33  O   UNL     1       7.406  -4.404  23.192  0.00  0.00    -0.346 OA
BRANCH  29  45
ATOM     34  N   UNL     1       2.927  -7.374  27.143  0.00  0.00    -0.329 N 
ATOM     35  H   UNL     1       2.626  -7.962  27.903  0.00  0.00    +0.145 HD
ATOM     36  H   UNL     1       2.644  -7.681  26.216  0.00  0.00    +0.145 HD
ATOM     37  C   UNL     1       4.159  -6.804  27.177  0.00  0.00    +0.195 A 
ATOM     38  N   UNL     1       4.728  -6.642  28.421  0.00  0.00    -0.293 N 
ATOM     39  H   UNL     1       4.236  -6.923  29.247  0.00  0.00    +0.172 HD
ATOM     40  C   UNL     1       5.967  -6.062  28.656  0.00  0.00    +0.280 A 
ATOM     41  O   UNL     1       6.427  -5.951  29.788  0.00  0.00    -0.265 OA
ATOM     42  C   UNL     1       6.605  -5.621  27.434  0.00  0.00    +0.172 A 
ATOM     43  N   UNL     1       7.792  -4.973  27.226  0.00  0.00    -0.229 NA
ATOM     44  C   UNL     1       7.819  -4.758  25.926  0.00  0.00    +0.203 A 
ATOM     45  N   UNL     1       6.680  -5.202  25.304  0.00  0.00    -0.285 N 
ATOM     46  C   UNL     1       5.927  -5.832  26.254  0.00  0.00    +0.171 A 
ATOM     47  N   UNL     1       4.736  -6.442  26.075  0.00  0.00    -0.196 NA
ENDBRANCH  29  45
BRANCH  31  48
ATOM     48  O   UNL     1       5.207  -1.816  24.158  0.00  0.00    -0.386 OA
ATOM     49  H   UNL     1       5.977  -1.582  24.712  0.00  0.00    +0.210 HD
ENDBRANCH  31  48
BRANCH  30  50
ATOM     50  O   UNL     1       4.356  -4.722  22.477  0.00  0.00    -0.385 OA
ATOM     51  H   UNL     1       3.571  -5.192  22.809  0.00  0.00    +0.210 HD
ENDBRANCH  30  50
ENDBRANCH  28  32
ENDBRANCH  27  28
ENDBRANCH   1  27
TORSDOF 17
ENDMDL
MODEL 2
REMARK VINA RESULT:      -8.4      2.718      4.533
REMARK  Name = 
REMARK  17 active torsions:
REMARK  status: ('A' for Active; 'I' for Inactive)
REMARK    1  A    between atoms: N_8  and  C_9
REMARK    2  A    between atoms: C_12  and  C_14
REMARK    3  A    between atoms: C_14  and  O_15
REMARK    4  A    between atoms: O_15  and  P_16
REMARK    5  A    between atoms: P_16  and  O_17
REMARK    6  A    between atoms: P_16  and  O_19
REMARK    7  A    between atoms: O_19  and  P_20
REMARK    8  A    between atoms: P_20  and  O_21
REMARK    9  A    between atoms: P_20  and  O_23
REMARK   10  A    between atoms: O_23  and  C_24
REMARK   11  A    between atoms: C_27  and  C_38
REMARK   12  A    between atoms: C_29  and  O_31
REMARK   13  A    between atoms: C_32  and  O_34
REMARK   14  A    between atoms: C_35  and  O_37
REMARK   15  A    between atoms: C_38  and  O_39
REMARK   16  A    between atoms: C_41  and  O_43
REMARK   17  A    between atoms: C_44  and  O_46
REMARK                            x       y       z     vdW  Elec       q    Type
REMARK                         _______ _______ _______ _____ _____    ______ ____
ROOT
ATOM      1  P   UNL     1       5.895  -3.954  22.462  0.00  0.00    +0.483 P 
ATOM      2  O   UNL     1       5.649  -3.777  20.959  0.00  0.00    -0.227 OA
ENDROOT
BRANCH   1   3
ATOM      3  O   UNL     1       4.202  -4.271  22.625  0.00  0.00    -0.302 OA
ATOM      4  H   UNL     1       4.203  -5.191  22.963  0.00  0.00    +0.222 HD
ENDBRANCH   1   3
BRANCH   1   5
ATOM      5  O   UNL     1       7.589  -3.638  22.300  0.00  0.00    -0.186 OA
BRANCH   5   6
ATOM      6  P   UNL     1       7.938  -2.051  22.891  0.00  0.00    +0.486 P 
ATOM      7  O   UNL     1       8.946  -2.651  23.829  0.00  0.00    -0.227 OA
BRANCH   6   8
ATOM      8  O   UNL     1       6.427  -1.952  23.457  0.00  0.00    -0.302 OA
ATOM      9  H   UNL     1       6.151  -1.036  23.649  0.00  0.00    +0.222 HD
ENDBRANCH   6   8
BRANCH   6  10
ATOM     10  O   UNL     1       8.287  -0.462  23.481  0.00  0.00    -0.254 OA
BRANCH  10  11
ATOM     11  C   UNL     1       8.647   0.559  22.500  0.00  0.00    +0.294 C 
ATOM     12  C   UNL     1       9.823   1.599  22.708  0.00  0.00    +0.202 C 
ATOM     13  C   UNL     1       9.503   2.532  23.874  0.00  0.00    +0.179 C 
ATOM     14  C   UNL     1       8.251   3.325  23.540  0.00  0.00    +0.185 C 
ATOM     15  C   UNL     1       7.112   2.378  23.088  0.00  0.00    +0.260 C 
ATOM     16  O   UNL     1       7.445   1.309  22.183  0.00  0.00    -0.331 OA
BRANCH  15  17
ATOM     17  C   UNL     1       6.331   1.872  24.306  0.00  0.00    +0.337 C 
ATOM     18  O   UNL     1       6.321   2.418  25.400  0.00  0.00    -0.248 OA
BRANCH  17  19
ATOM     19  O   UNL     1       5.574   0.784  24.027  0.00  0.00    -0.479 OA
ATOM     20  H   UNL     1       5.606   0.625  23.056  0.00  0.00    +0.295 HD
ENDBRANCH  17  19
ENDBRANCH  15  17
BRANCH  14  21
ATOM     21  O   UNL     1       8.599   4.326  22.570  0.00  0.00    -0.386 OA
ATOM     22  H   UNL     1       9.116   3.923  21.852  0.00  0.00    +0.210 HD
ENDBRANCH  14  21
BRANCH  13  23
ATOM     23  O   UNL     1       9.326   1.770  25.063  0.00  0.00    -0.386 OA
ATOM     24  H   UNL     1       8.442   1.361  25.066  0.00  0.00    +0.210 HD
ENDBRANCH  13  23
BRANCH  12  25
ATOM     25  O   UNL     1      10.036   2.304  21.466  0.00  0.00    -0.384 OA
ATOM     26  H   UNL     1      10.954   2.633  21.482  0.00  0.00    +0.210 HD
ENDBRANCH  12  25
ENDBRANCH  10  11
ENDBRANCH   6  10
ENDBRANCH   5   6
ENDBRANCH   1   5
BRANCH   1  27
ATOM     27  O   UNL     1       6.187  -5.562  22.630  0.00  0.00    -0.284 OA
BRANCH  27  28
ATOM     28  C   UNL     1       6.743  -5.973  23.860  0.00  0.00    +0.206 C 
BRANCH  28  32
ATOM     29  C   UNL     1       5.840  -5.036  27.258  0.00  0.00    +0.253 C 
ATOM     30  C   UNL     1       4.884  -6.226  27.049  0.00  0.00    +0.195 C 
ATOM     31  C   UNL     1       4.893  -6.479  25.541  0.00  0.00    +0.178 C 
ATOM     32  C   UNL     1       5.879  -5.449  24.995  0.00  0.00    +0.178 C 
ATOM     33  O   UNL     1       6.707  -5.047  26.096  0.00  0.00    -0.346 OA
BRANCH  29  45
ATOM     34  N   UNL     1       8.741  -0.764  26.401  0.00  0.00    -0.329 N 
ATOM     35  H   UNL     1       8.948   0.164  26.069  0.00  0.00    +0.145 HD
ATOM     36  H   UNL     1       9.251  -1.514  25.942  0.00  0.00    +0.145 HD
ATOM     37  C   UNL     1       7.468  -1.093  26.735  0.00  0.00    +0.195 A 
ATOM     38  N   UNL     1       6.632  -0.053  27.079  0.00  0.00    -0.293 N 
ATOM     39  H   UNL     1       6.970   0.889  27.089  0.00  0.00    +0.172 HD
ATOM     40  C   UNL     1       5.307  -0.196  27.468  0.00  0.00    +0.280 A 
ATOM     41  O   UNL     1       4.608   0.770  27.755  0.00  0.00    -0.265 OA
ATOM     42  C   UNL     1       4.890  -1.582  27.490  0.00  0.00    +0.172 A 
ATOM     43  N   UNL     1       3.701  -2.154  27.850  0.00  0.00    -0.229 NA
ATOM     44  C   UNL     1       3.922  -3.450  27.748  0.00  0.00    +0.203 A 
ATOM     45  N   UNL     1       5.214  -3.727  27.381  0.00  0.00    -0.285 N 
ATOM     46  C   UNL     1       5.824  -2.530  27.135  0.00  0.00    +0.171 A 
ATOM     47  N   UNL     1       7.095  -2.334  26.721  0.00  0.00    -0.196 NA
ENDBRANCH  29  45
BRANCH  31  48
ATOM     48  O   UNL     1       3.597  -6.289  24.979  0.00  0.00    -0.386 OA
ATOM     49  H   UNL     1       3.105  -5.697  25.582  0.00  0.00    +0.210 HD
ENDBRANCH  31  48
BRANCH  30  50
ATOM     50  O   UNL     1       5.391  -7.397  27.727  0.00  0.00    -0.385 OA
ATOM     51  H   UNL     1       6.113  -7.124  28.317  0.00  0.00    +0.210 HD
ENDBRANCH  30  50
ENDBRANCH  28  32
ENDBRANCH  27  28
ENDBRANCH   1  27
TORSDOF 17
ENDMDL
MODEL 3
REMARK VINA RESULT:      -8.2      3.083      4.895
REMARK  Name = 
REMARK  17 active torsions:
REMARK  status: ('A' for Active; 'I' for Inactive)
REMARK    1  A    between atoms: N_8  and  C_9
REMARK    2  A    between atoms: C_12  and  C_14
REMARK    3  A    between atoms: C_14  and  O_15
REMARK    4  A    between atoms: O_15  and  P_16
REMARK    5  A    between atoms: P_16  and  O_17
REMARK    6  A    between atoms: P_16  and  O_19
REMARK    7  A    between atoms: O_19  and  P_20
REMARK    8  A    between atoms: P_20  and  O_21
REMARK    9  A    between atoms: P_20  and  O_23
REMARK   10  A    between atoms: O_23  and  C_24
REMARK   11  A    between atoms: C_27  and  C_38
REMARK   12  A    between atoms: C_29  and  O_31
REMARK   13  A    between atoms: C_32  and  O_34
REMARK   14  A    between atoms: C_35  and  O_37
REMARK   15  A    between atoms: C_38  and  O_39
REMARK   16  A    between atoms: C_41  and  O_43
REMARK   17  A    between atoms: C_44  and  O_46
REMARK                            x       y       z     vdW  Elec       q    Type
REMARK                         _______ _______ _______ _____ _____    ______ ____
ROOT
ATOM      1  P   UNL     1       6.916  -4.681  22.080  0.00  0.00    +0.483 P 
ATOM      2  O   UNL     1       7.432  -6.107  22.303  0.00  0.00    -0.227 OA
ENDROOT
BRANCH   1   3
ATOM      3  O   UNL     1       5.766  -5.350  20.975  0.00  0.00    -0.302 OA
ATOM      4  H   UNL     1       4.919  -5.022  21.346  0.00  0.00    +0.222 HD
ENDBRANCH   1   3
BRANCH   1   5
ATOM      5  O   UNL     1       8.067  -4.011  23.186  0.00  0.00    -0.186 OA
BRANCH   5   6
ATOM      6  P   UNL     1       8.266  -2.325  22.858  0.00  0.00    +0.486 P 
ATOM      7  O   UNL     1       9.640  -2.397  23.463  0.00  0.00    -0.227 OA
BRANCH   6   8
ATOM      8  O   UNL     1       7.064  -2.003  23.890  0.00  0.00    -0.302 OA
ATOM      9  H   UNL     1       6.669  -1.121  23.752  0.00  0.00    +0.222 HD
ENDBRANCH   6   8
BRANCH   6  10
ATOM     10  O   UNL     1       8.466  -0.638  22.530  0.00  0.00    -0.254 OA
BRANCH  10  11
ATOM     11  C   UNL     1       7.419   0.269  22.996  0.00  0.00    +0.294 C 
ATOM     12  C   UNL     1       6.952   1.554  22.195  0.00  0.00    +0.202 C 
ATOM     13  C   UNL     1       8.090   2.570  22.117  0.00  0.00    +0.179 C 
ATOM     14  C   UNL     1       8.448   3.018  23.523  0.00  0.00    +0.185 C 
ATOM     15  C   UNL     1       8.687   1.792  24.439  0.00  0.00    +0.260 C 
ATOM     16  O   UNL     1       7.767   0.689  24.341  0.00  0.00    -0.331 OA
BRANCH  15  17
ATOM     17  C   UNL     1      10.145   1.331  24.336  0.00  0.00    +0.337 C 
ATOM     18  O   UNL     1      11.057   2.008  23.885  0.00  0.00    -0.248 OA
BRANCH  17  19
ATOM     19  O   UNL     1      10.345   0.104  24.875  0.00  0.00    -0.479 OA
ATOM     20  H   UNL     1       9.468  -0.275  25.115  0.00  0.00    +0.295 HD
ENDBRANCH  17  19
ENDBRANCH  15  17
BRANCH  14  21
ATOM     21  O   UNL     1       7.418   3.905  23.987  0.00  0.00    -0.386 OA
ATOM     22  H   UNL     1       6.727   3.992  23.309  0.00  0.00    +0.210 HD
ENDBRANCH  14  21
BRANCH  13  23
ATOM     23  O   UNL     1       9.211   1.984  21.463  0.00  0.00    -0.386 OA
ATOM     24  H   UNL     1      10.036   2.345  21.834  0.00  0.00    +0.210 HD
ENDBRANCH  13  23
BRANCH  12  25
ATOM     25  O   UNL     1       5.769   2.084  22.831  0.00  0.00    -0.384 OA
ATOM     26  H   UNL     1       5.556   1.489  23.574  0.00  0.00    +0.210 HD
ENDBRANCH  12  25
ENDBRANCH  10  11
ENDBRANCH   6  10
ENDBRANCH   5   6
ENDBRANCH   1   5
BRANCH   1  27
ATOM     27  O   UNL     1       5.716  -4.514  23.190  0.00  0.00    -0.284 OA
BRANCH  27  28
ATOM     28  C   UNL     1       5.418  -5.653  23.967  0.00  0.00    +0.206 C 
BRANCH  28  32
ATOM     29  C   UNL     1       6.254  -4.001  27.101  0.00  0.00    +0.253 C 
ATOM     30  C   UNL     1       6.451  -5.472  27.516  0.00  0.00    +0.195 C 
ATOM     31  C   UNL     1       5.778  -6.287  26.412  0.00  0.00    +0.178 C 
ATOM     32  C   UNL     1       5.278  -5.237  25.423  0.00  0.00    +0.178 C 
ATOM     33  O   UNL     1       6.040  -4.045  25.667  0.00  0.00    -0.346 OA
BRANCH  29  45
ATOM     34  N   UNL     1       5.224   0.922  25.652  0.00  0.00    -0.329 N 
ATOM     35  H   UNL     1       4.654   1.720  25.421  0.00  0.00    +0.145 HD
ATOM     36  H   UNL     1       5.767   0.539  24.883  0.00  0.00    +0.145 HD
ATOM     37  C   UNL     1       4.753  -0.018  26.510  0.00  0.00    +0.195 A 
ATOM     38  N   UNL     1       3.772   0.386  27.389  0.00  0.00    -0.293 N 
ATOM     39  H   UNL     1       3.447   1.333  27.389  0.00  0.00    +0.172 HD
ATOM     40  C   UNL     1       3.186  -0.426  28.351  0.00  0.00    +0.280 A 
ATOM     41  O   UNL     1       2.310  -0.012  29.102  0.00  0.00    -0.265 OA
ATOM     42  C   UNL     1       3.736  -1.765  28.344  0.00  0.00    +0.172 A 
ATOM     43  N   UNL     1       3.475  -2.845  29.142  0.00  0.00    -0.229 NA
ATOM     44  C   UNL     1       4.324  -3.765  28.730  0.00  0.00    +0.203 A 
ATOM     45  N   UNL     1       5.144  -3.302  27.733  0.00  0.00    -0.285 N 
ATOM     46  C   UNL     1       4.721  -2.041  27.422  0.00  0.00    +0.171 A 
ATOM     47  N   UNL     1       5.228  -1.223  26.475  0.00  0.00    -0.196 NA
ENDBRANCH  29  45
BRANCH  31  48
ATOM     48  O   UNL     1       4.693  -7.056  26.926  0.00  0.00    -0.386 OA
ATOM     49  H   UNL     1       4.526  -7.780  26.292  0.00  0.00    +0.210 HD
ENDBRANCH  31  48
BRANCH  30  50
ATOM     50  O   UNL     1       7.859  -5.796  27.550  0.00  0.00    -0.385 OA
ATOM     51  H   UNL     1       7.958  -6.707  27.876  0.00  0.00    +0.210 HD
ENDBRANCH  30  50
ENDBRANCH  28  32
ENDBRANCH  27  28
ENDBRANCH   1  27
TORSDOF 17
ENDMDL
MODEL 4
REMARK VINA RESULT:      -8.2      2.576      5.382
REMARK  Name = 
REMARK  17 active torsions:
REMARK  status: ('A' for Active; 'I' for Inactive)
REMARK    1  A    between atoms: N_8  and  C_9
REMARK    2  A    between atoms: C_12  and  C_14
REMARK    3  A    between atoms: C_14  and  O_15
REMARK    4  A    between atoms: O_15  and  P_16
REMARK    5  A    between atoms: P_16  and  O_17
REMARK    6  A    between atoms: P_16  and  O_19
REMARK    7  A    between atoms: O_19  and  P_20
REMARK    8  A    between atoms: P_20  and  O_21
REMARK    9  A    between atoms: P_20  and  O_23
REMARK   10  A    between atoms: O_23  and  C_24
REMARK   11  A    between atoms: C_27  and  C_38
REMARK   12  A    between atoms: C_29  and  O_31
REMARK   13  A    between atoms: C_32  and  O_34
REMARK   14  A    between atoms: C_35  and  O_37
REMARK   15  A    between atoms: C_38  and  O_39
REMARK   16  A    between atoms: C_41  and  O_43
REMARK   17  A    between atoms: C_44  and  O_46
REMARK                            x       y       z     vdW  Elec       q    Type
REMARK                         _______ _______ _______ _____ _____    ______ ____
ROOT
ATOM      1  P   UNL     1       4.910  -0.409  27.146  0.00  0.00    +0.483 P 
ATOM      2  O   UNL     1       3.833   0.681  27.150  0.00  0.00    -0.227 OA
ENDROOT
BRANCH   1   3
ATOM      3  O   UNL     1       5.220  -0.005  28.799  0.00  0.00    -0.302 OA
ATOM      4  H   UNL     1       5.493  -0.871  29.168  0.00  0.00    +0.222 HD
ENDBRANCH   1   3
BRANCH   1   5
ATOM      5  O   UNL     1       4.600  -0.815  25.492  0.00  0.00    -0.186 OA
BRANCH   5   6
ATOM      6  P   UNL     1       5.962  -0.366  24.524  0.00  0.00    +0.486 P 
ATOM      7  O   UNL     1       6.823  -0.429  25.754  0.00  0.00    -0.227 OA
BRANCH   6   8
ATOM      8  O   UNL     1       5.260   1.060  24.234  0.00  0.00    -0.302 OA
ATOM      9  H   UNL     1       5.843   1.818  24.427  0.00  0.00    +0.222 HD
ENDBRANCH   6   8
BRANCH   6  10
ATOM     10  O   UNL     1       7.324   0.081  23.555  0.00  0.00    -0.254 OA
BRANCH  10  11
ATOM     11  C   UNL     1       7.561   1.508  23.342  0.00  0.00    +0.294 C 
ATOM     12  C   UNL     1       8.215   2.101  22.027  0.00  0.00    +0.202 C 
ATOM     13  C   UNL     1       9.661   1.626  21.897  0.00  0.00    +0.179 C 
ATOM     14  C   UNL     1      10.460   2.151  23.077  0.00  0.00    +0.185 C 
ATOM     15  C   UNL     1       9.747   1.814  24.410  0.00  0.00    +0.260 C 
ATOM     16  O   UNL     1       8.321   2.002  24.476  0.00  0.00    -0.331 OA
BRANCH  15  17
ATOM     17  C   UNL     1      10.161   0.420  24.893  0.00  0.00    +0.337 C 
ATOM     18  O   UNL     1      11.056  -0.250  24.397  0.00  0.00    -0.248 OA
BRANCH  17  19
ATOM     19  O   UNL     1       9.480   0.024  25.995  0.00  0.00    -0.479 OA
ATOM     20  H   UNL     1      10.132  -0.176  26.706  0.00  0.00    +0.295 HD
ENDBRANCH  17  19
ENDBRANCH  15  17
BRANCH  14  21
ATOM     21  O   UNL     1      10.689   3.555  22.874  0.00  0.00    -0.386 OA
ATOM     22  H   UNL     1      10.861   3.987  23.728  0.00  0.00    +0.210 HD
ENDBRANCH  14  21
BRANCH  13  23
ATOM     23  O   UNL     1       9.696   0.204  21.845  0.00  0.00    -0.386 OA
ATOM     24  H   UNL     1       9.448  -0.100  20.953  0.00  0.00    +0.210 HD
ENDBRANCH  13  23
BRANCH  12  25
ATOM     25  O   UNL     1       8.098   3.539  22.066  0.00  0.00    -0.384 OA
ATOM     26  H   UNL     1       7.364   3.747  22.675  0.00  0.00    +0.210 HD
ENDBRANCH  12  25
ENDBRANCH  10  11
ENDBRANCH   6  10
ENDBRANCH   5   6
ENDBRANCH   1   5
BRANCH   1  27
ATOM     27  O   UNL     1       4.116  -1.755  27.650  0.00  0.00    -0.284 OA
BRANCH  27  28
ATOM     28  C   UNL     1       4.914  -2.802  28.156  0.00  0.00    +0.206 C 
BRANCH  28  32
ATOM     29  C   UNL     1       5.853  -5.648  26.090  0.00  0.00    +0.253 C 
ATOM     30  C   UNL     1       7.244  -5.213  26.590  0.00  0.00    +0.195 C 
ATOM     31  C   UNL     1       7.037  -3.812  27.165  0.00  0.00    +0.178 C 
ATOM     32  C   UNL     1       5.542  -3.554  26.994  0.00  0.00    +0.178 C 
ATOM     33  O   UNL     1       4.916  -4.838  26.846  0.00  0.00    -0.346 OA
BRANCH  29  45
ATOM     34  N   UNL     1       9.058  -2.569  23.324  0.00  0.00    -0.329 N 
ATOM     35  H   UNL     1       9.604  -2.275  22.530  0.00  0.00    +0.145 HD
ATOM     36  H   UNL     1       9.593  -2.814  24.153  0.00  0.00    +0.145 HD
ATOM     37  C   UNL     1       7.956  -3.339  23.138  0.00  0.00    +0.195 A 
ATOM     38  N   UNL     1       7.359  -3.270  21.898  0.00  0.00    -0.293 N 
ATOM     39  H   UNL     1       7.726  -2.667  21.189  0.00  0.00    +0.172 HD
ATOM     40  C   UNL     1       6.215  -3.966  21.530  0.00  0.00    +0.280 A 
ATOM     41  O   UNL     1       5.732  -3.871  20.407  0.00  0.00    -0.265 OA
ATOM     42  C   UNL     1       5.695  -4.776  22.612  0.00  0.00    +0.172 A 
ATOM     43  N   UNL     1       4.583  -5.568  22.683  0.00  0.00    -0.229 NA
ATOM     44  C   UNL     1       4.570  -5.995  23.930  0.00  0.00    +0.203 A 
ATOM     45  N   UNL     1       5.602  -5.473  24.666  0.00  0.00    -0.285 N 
ATOM     46  C   UNL     1       6.379  -4.749  23.807  0.00  0.00    +0.171 A 
ATOM     47  N   UNL     1       7.517  -4.085  24.102  0.00  0.00    -0.196 NA
ENDBRANCH  29  45
BRANCH  31  48
ATOM     48  O   UNL     1       7.803  -2.844  26.453  0.00  0.00    -0.386 OA
ATOM     49  H   UNL     1       8.369  -2.387  27.105  0.00  0.00    +0.210 HD
ENDBRANCH  31  48
BRANCH  30  50
ATOM     50  O   UNL     1       7.692  -6.094  27.645  0.00  0.00    -0.385 OA
ATOM     51  H   UNL     1       7.863  -6.971  27.262  0.00  0.00    +0.210 HD
ENDBRANCH  30  50
ENDBRANCH  28  32
ENDBRANCH  27  28
ENDBRANCH   1  27
TORSDOF 17
ENDMDL
MODEL 5
REMARK VINA RESULT:      -8.1      1.632      2.338
REMARK  Name = 
REMARK  17 active torsions:
REMARK  status: ('A' for Active; 'I' for Inactive)
REMARK    1  A    between atoms: N_8  and  C_9
REMARK    2  A    between atoms: C_12  and  C_14
REMARK    3  A    between atoms: C_14  and  O_15
REMARK    4  A    between atoms: O_15  and  P_16
REMARK    5  A    between atoms: P_16  and  O_17
REMARK    6  A    between atoms: P_16  and  O_19
REMARK    7  A    between atoms: O_19  and  P_20
REMARK    8  A    between atoms: P_20  and  O_21
REMARK    9  A    between atoms: P_20  and  O_23
REMARK   10  A    between atoms: O_23  and  C_24
REMARK   11  A    between atoms: C_27  and  C_38
REMARK   12  A    between atoms: C_29  and  O_31
REMARK   13  A    between atoms: C_32  and  O_34
REMARK   14  A    between atoms: C_35  and  O_37
REMARK   15  A    between atoms: C_38  and  O_39
REMARK   16  A    between atoms: C_41  and  O_43
REMARK   17  A    between atoms: C_44  and  O_46
REMARK                            x       y       z     vdW  Elec       q    Type
REMARK                         _______ _______ _______ _____ _____    ______ ____
ROOT
ATOM      1  P   UNL     1       9.636  -1.374  23.066  0.00  0.00    +0.483 P 
ATOM      2  O   UNL     1      10.561  -2.495  23.554  0.00  0.00    -0.227 OA
ENDROOT
BRANCH   1   3
ATOM      3  O   UNL     1       9.980  -1.896  21.453  0.00  0.00    -0.302 OA
ATOM      4  H   UNL     1       9.420  -1.290  20.924  0.00  0.00    +0.222 HD
ENDBRANCH   1   3
BRANCH   1   5
ATOM      5  O   UNL     1       9.291  -0.852  24.680  0.00  0.00    -0.186 OA
BRANCH   5   6
ATOM      6  P   UNL     1       8.766   0.795  24.652  0.00  0.00    +0.486 P 
ATOM      7  O   UNL     1       7.731   0.455  25.687  0.00  0.00    -0.227 OA
BRANCH   6   8
ATOM      8  O   UNL     1       8.308   0.602  23.115  0.00  0.00    -0.302 OA
ATOM      9  H   UNL     1       7.433   0.990  22.926  0.00  0.00    +0.222 HD
ENDBRANCH   6   8
BRANCH   6  10
ATOM     10  O   UNL     1       8.242   2.444  24.625  0.00  0.00    -0.254 OA
BRANCH  10  11
ATOM     11  C   UNL     1       8.940   3.360  23.725  0.00  0.00    +0.294 C 
ATOM     12  C   UNL     1       9.097   4.911  24.002  0.00  0.00    +0.202 C 
ATOM     13  C   UNL     1       7.730   5.593  23.977  0.00  0.00    +0.179 C 
ATOM     14  C   UNL     1       7.129   5.439  22.591  0.00  0.00    +0.185 C 
ATOM     15  C   UNL     1       7.162   3.956  22.145  0.00  0.00    +0.260 C 
ATOM     16  O   UNL     1       8.361   3.203  22.403  0.00  0.00    -0.331 OA
BRANCH  15  17
ATOM     17  C   UNL     1       5.911   3.226  22.647  0.00  0.00    +0.337 C 
ATOM     18  O   UNL     1       4.916   3.779  23.092  0.00  0.00    -0.248 OA
BRANCH  17  19
ATOM     19  O   UNL     1       5.984   1.884  22.473  0.00  0.00    -0.479 OA
ATOM     20  H   UNL     1       6.859   1.671  22.077  0.00  0.00    +0.295 HD
ENDBRANCH  17  19
ENDBRANCH  15  17
BRANCH  14  21
ATOM     21  O   UNL     1       7.817   6.333  21.701  0.00  0.00    -0.386 OA
ATOM     22  H   UNL     1       8.770   6.317  21.890  0.00  0.00    +0.210 HD
ENDBRANCH  14  21
BRANCH  13  23
ATOM     23  O   UNL     1       6.888   5.016  24.969  0.00  0.00    -0.386 OA
ATOM     24  H   UNL     1       5.991   5.390  24.900  0.00  0.00    +0.210 HD
ENDBRANCH  13  23
BRANCH  12  25
ATOM     25  O   UNL     1      10.016   5.459  23.032  0.00  0.00    -0.384 OA
ATOM     26  H   UNL     1      10.647   4.749  22.809  0.00  0.00    +0.210 HD
ENDBRANCH  12  25
ENDBRANCH  10  11
ENDBRANCH   6  10
ENDBRANCH   5   6
ENDBRANCH   1   5
BRANCH   1  27
ATOM     27  O   UNL     1       8.163  -2.093  22.958  0.00  0.00    -0.284 OA
BRANCH  27  28
ATOM     28  C   UNL     1       7.728  -2.805  24.095  0.00  0.00    +0.206 C 
BRANCH  28  32
ATOM     29  C   UNL     1       5.980  -5.928  23.434  0.00  0.00    +0.253 C 
ATOM     30  C   UNL     1       6.047  -5.355  22.006  0.00  0.00    +0.195 C 
ATOM     31  C   UNL     1       6.422  -3.883  22.188  0.00  0.00    +0.178 C 
ATOM     32  C   UNL     1       6.584  -3.723  23.697  0.00  0.00    +0.178 C 
ATOM     33  O   UNL     1       6.802  -5.037  24.231  0.00  0.00    -0.346 OA
BRANCH  29  45
ATOM     34  N   UNL     1       5.540  -7.427  28.431  0.00  0.00    -0.329 N 
ATOM     35  H   UNL     1       5.171  -7.430  29.368  0.00  0.00    +0.145 HD
ATOM     36  H   UNL     1       6.503  -7.110  28.343  0.00  0.00    +0.145 HD
ATOM     37  C   UNL     1       4.747  -7.055  27.394  0.00  0.00    +0.195 A 
ATOM     38  N   UNL     1       3.388  -7.182  27.582  0.00  0.00    -0.293 N 
ATOM     39  H   UNL     1       3.024  -7.544  28.441  0.00  0.00    +0.172 HD
ATOM     40  C   UNL     1       2.424  -6.873  26.631  0.00  0.00    +0.280 A 
ATOM     41  O   UNL     1       1.226  -6.998  26.858  0.00  0.00    -0.265 OA
ATOM     42  C   UNL     1       3.009  -6.410  25.390  0.00  0.00    +0.172 A 
ATOM     43  N   UNL     1       2.428  -6.049  24.206  0.00  0.00    -0.229 NA
ATOM     44  C   UNL     1       3.447  -5.792  23.411  0.00  0.00    +0.203 A 
ATOM     45  N   UNL     1       4.652  -6.017  24.026  0.00  0.00    -0.285 N 
ATOM     46  C   UNL     1       4.383  -6.338  25.326  0.00  0.00    +0.171 A 
ATOM     47  N   UNL     1       5.278  -6.611  26.299  0.00  0.00    -0.196 NA
ENDBRANCH  29  45
BRANCH  31  48
ATOM     48  O   UNL     1       5.398  -3.025  21.693  0.00  0.00    -0.386 OA
ATOM     49  H   UNL     1       5.825  -2.187  21.429  0.00  0.00    +0.210 HD
ENDBRANCH  31  48
BRANCH  30  50
ATOM     50  O   UNL     1       7.087  -6.016  21.252  0.00  0.00    -0.385 OA
ATOM     51  H   UNL     1       6.672  -6.659  20.651  0.00  0.00    +0.210 HD
ENDBRANCH  30  50
ENDBRANCH  28  32
ENDBRANCH  27  28
ENDBRANCH   1  27
TORSDOF 17
ENDMDL
MODEL 6
REMARK VINA RESULT:      -8.1      2.575      5.132
REMARK  Name = 
REMARK  17 active torsions:
REMARK  status: ('A' for Active; 'I' for Inactive)
REMARK    1  A    between atoms: N_8  and  C_9
REMARK    2  A    between atoms: C_12  and  C_14
REMARK    3  A    between atoms: C_14  and  O_15
REMARK    4  A    between atoms: O_15  and  P_16
REMARK    5  A    between atoms: P_16  and  O_17
REMARK    6  A    between atoms: P_16  and  O_19
REMARK    7  A    between atoms: O_19  and  P_20
REMARK    8  A    between atoms: P_20  and  O_21
REMARK    9  A    between atoms: P_20  and  O_23
REMARK   10  A    between atoms: O_23  and  C_24
REMARK   11  A    between atoms: C_27  and  C_38
REMARK   12  A    between atoms: C_29  and  O_31
REMARK   13  A    between atoms: C_32  and  O_34
REMARK   14  A    between atoms: C_35  and  O_37
REMARK   15  A    between atoms: C_38  and  O_39
REMARK   16  A    between atoms: C_41  and  O_43
REMARK   17  A    between atoms: C_44  and  O_46
REMARK                            x       y       z     vdW  Elec       q    Type
REMARK                         _______ _______ _______ _____ _____    ______ ____
ROOT
ATOM      1  P   UNL     1       3.849  -1.095  27.348  0.00  0.00    +0.483 P 
ATOM      2  O   UNL     1       2.795  -0.094  26.862  0.00  0.00    -0.227 OA
ENDROOT
BRANCH   1   3
ATOM      3  O   UNL     1       3.239  -0.846  28.947  0.00  0.00    -0.302 OA
ATOM      4  H   UNL     1       2.420  -0.338  28.771  0.00  0.00    +0.222 HD
ENDBRANCH   1   3
BRANCH   1   5
ATOM      5  O   UNL     1       4.460  -1.345  25.747  0.00  0.00    -0.186 OA
BRANCH   5   6
ATOM      6  P   UNL     1       5.785  -0.271  25.463  0.00  0.00    +0.486 P 
ATOM      7  O   UNL     1       6.197  -0.442  26.898  0.00  0.00    -0.227 OA
BRANCH   6   8
ATOM      8  O   UNL     1       4.732   0.920  25.175  0.00  0.00    -0.302 OA
ATOM      9  H   UNL     1       4.403   0.924  24.256  0.00  0.00    +0.222 HD
ENDBRANCH   6   8
BRANCH   6  10
ATOM     10  O   UNL     1       7.112   0.803  25.178  0.00  0.00    -0.254 OA
BRANCH  10  11
ATOM     11  C   UNL     1       8.187   0.331  24.308  0.00  0.00    +0.294 C 
ATOM     12  C   UNL     1       9.657   0.922  24.332  0.00  0.00    +0.202 C 
ATOM     13  C   UNL     1       9.647   2.381  23.881  0.00  0.00    +0.179 C 
ATOM     14  C   UNL     1       9.155   2.449  22.445  0.00  0.00    +0.185 C 
ATOM     15  C   UNL     1       7.822   1.675  22.291  0.00  0.00    +0.260 C 
ATOM     16  O   UNL     1       7.707   0.396  22.940  0.00  0.00    -0.331 OA
BRANCH  15  17
ATOM     17  C   UNL     1       6.638   2.591  22.622  0.00  0.00    +0.337 C 
ATOM     18  O   UNL     1       6.716   3.802  22.766  0.00  0.00    -0.248 OA
BRANCH  17  19
ATOM     19  O   UNL     1       5.458   1.926  22.662  0.00  0.00    -0.479 OA
ATOM     20  H   UNL     1       4.801   2.491  23.129  0.00  0.00    +0.295 HD
ENDBRANCH  17  19
ENDBRANCH  15  17
BRANCH  14  21
ATOM     21  O   UNL     1      10.207   1.979  21.588  0.00  0.00    -0.386 OA
ATOM     22  H   UNL     1      10.607   2.729  21.116  0.00  0.00    +0.210 HD
ENDBRANCH  14  21
BRANCH  13  23
ATOM     23  O   UNL     1       8.813   3.145  24.746  0.00  0.00    -0.386 OA
ATOM     24  H   UNL     1       8.423   3.891  24.256  0.00  0.00    +0.210 HD
ENDBRANCH  13  23
BRANCH  12  25
ATOM     25  O   UNL     1      10.500   0.086  23.511  0.00  0.00    -0.384 OA
ATOM     26  H   UNL     1      11.337  -0.035  23.997  0.00  0.00    +0.210 HD
ENDBRANCH  12  25
ENDBRANCH  10  11
ENDBRANCH   6  10
ENDBRANCH   5   6
ENDBRANCH   1   5
BRANCH   1  27
ATOM     27  O   UNL     1       3.074  -2.542  27.303  0.00  0.00    -0.284 OA
BRANCH  27  28
ATOM     28  C   UNL     1       3.413  -3.467  28.313  0.00  0.00    +0.206 C 
BRANCH  28  32
ATOM     29  C   UNL     1       5.740  -5.608  26.510  0.00  0.00    +0.253 C 
ATOM     30  C   UNL     1       5.723  -6.324  27.874  0.00  0.00    +0.195 C 
ATOM     31  C   UNL     1       5.080  -5.325  28.837  0.00  0.00    +0.178 C 
ATOM     32  C   UNL     1       4.736  -4.127  27.957  0.00  0.00    +0.178 C 
ATOM     33  O   UNL     1       4.696  -4.605  26.604  0.00  0.00    -0.346 OA
BRANCH  29  45
ATOM     34  N   UNL     1       5.953  -2.873  22.052  0.00  0.00    -0.329 N 
ATOM     35  H   UNL     1       6.220  -2.120  21.439  0.00  0.00    +0.145 HD
ATOM     36  H   UNL     1       4.962  -2.926  22.272  0.00  0.00    +0.145 HD
ATOM     37  C   UNL     1       6.760  -3.221  23.086  0.00  0.00    +0.195 A 
ATOM     38  N   UNL     1       8.092  -2.889  22.966  0.00  0.00    -0.293 N 
ATOM     39  H   UNL     1       8.430  -2.429  22.144  0.00  0.00    +0.172 HD
ATOM     40  C   UNL     1       9.070  -3.180  23.908  0.00  0.00    +0.280 A 
ATOM     41  O   UNL     1      10.241  -2.853  23.750  0.00  0.00    -0.265 OA
ATOM     42  C   UNL     1       8.535  -3.897  25.047  0.00  0.00    +0.172 A 
ATOM     43  N   UNL     1       9.153  -4.401  26.158  0.00  0.00    -0.229 NA
ATOM     44  C   UNL     1       8.189  -5.019  26.811  0.00  0.00    +0.203 A 
ATOM     45  N   UNL     1       6.994  -4.966  26.141  0.00  0.00    -0.285 N 
ATOM     46  C   UNL     1       7.187  -4.177  25.042  0.00  0.00    +0.171 A 
ATOM     47  N   UNL     1       6.267  -3.833  24.116  0.00  0.00    -0.196 NA
ENDBRANCH  29  45
BRANCH  31  48
ATOM     48  O   UNL     1       5.984  -4.952  29.873  0.00  0.00    -0.386 OA
ATOM     49  H   UNL     1       5.921  -5.633  30.571  0.00  0.00    +0.210 HD
ENDBRANCH  31  48
BRANCH  30  50
ATOM     50  O   UNL     1       4.900  -7.510  27.805  0.00  0.00    -0.385 OA
ATOM     51  H   UNL     1       5.478  -8.279  27.667  0.00  0.00    +0.210 HD
ENDBRANCH  30  50
ENDBRANCH  28  32
ENDBRANCH  27  28
ENDBRANCH   1  27
TORSDOF 17
ENDMDL
MODEL 7
REMARK VINA RESULT:      -8.0      2.984      5.694
REMARK  Name = 
REMARK  17 active torsions:
REMARK  status: ('A' for Active; 'I' for Inactive)
REMARK    1  A    between atoms: N_8  and  C_9
REMARK    2  A    between atoms: C_12  and  C_14
REMARK    3  A    between atoms: C_14  and  O_15
REMARK    4  A    between atoms: O_15  and  P_16
REMARK    5  A    between atoms: P_16  and  O_17
REMARK    6  A    between atoms: P_16  and  O_19
REMARK    7  A    between atoms: O_19  and  P_20
REMARK    8  A    between atoms: P_20  and  O_21
REMARK    9  A    between atoms: P_20  and  O_23
REMARK   10  A    between atoms: O_23  and  C_24
REMARK   11  A    between atoms: C_27  and  C_38
REMARK   12  A    between atoms: C_29  and  O_31
REMARK   13  A    between atoms: C_32  and  O_34
REMARK   14  A    between atoms: C_35  and  O_37
REMARK   15  A    between atoms: C_38  and  O_39
REMARK   16  A    between atoms: C_41  and  O_43
REMARK   17  A    between atoms: C_44  and  O_46
REMARK                            x       y       z     vdW  Elec       q    Type
REMARK                         _______ _______ _______ _____ _____    ______ ____
ROOT
ATOM      1  P   UNL     1       3.729  -1.613  28.035  0.00  0.00    +0.483 P 
ATOM      2  O   UNL     1       3.622  -0.146  28.468  0.00  0.00    -0.227 OA
ENDROOT
BRANCH   1   3
ATOM      3  O   UNL     1       3.835  -2.022  29.713  0.00  0.00    -0.302 OA
ATOM      4  H   UNL     1       4.198  -2.932  29.674  0.00  0.00    +0.222 HD
ENDBRANCH   1   3
BRANCH   1   5
ATOM      5  O   UNL     1       3.623  -1.205  26.356  0.00  0.00    -0.186 OA
BRANCH   5   6
ATOM      6  P   UNL     1       5.156  -1.470  25.601  0.00  0.00    +0.486 P 
ATOM      7  O   UNL     1       5.091  -0.077  25.040  0.00  0.00    -0.227 OA
BRANCH   6   8
ATOM      8  O   UNL     1       4.485  -2.623  24.690  0.00  0.00    -0.302 OA
ATOM      9  H   UNL     1       4.214  -3.407  25.205  0.00  0.00    +0.222 HD
ENDBRANCH   6   8
BRANCH   6  10
ATOM     10  O   UNL     1       6.691  -1.735  24.847  0.00  0.00    -0.254 OA
BRANCH  10  11
ATOM     11  C   UNL     1       7.887  -1.541  25.663  0.00  0.00    +0.294 C 
ATOM     12  C   UNL     1       8.287  -0.156  26.318  0.00  0.00    +0.202 C 
ATOM     13  C   UNL     1       8.607   0.869  25.231  0.00  0.00    +0.179 C 
ATOM     14  C   UNL     1       9.804   0.383  24.433  0.00  0.00    +0.185 C 
ATOM     15  C   UNL     1       9.584  -1.074  23.956  0.00  0.00    +0.260 C 
ATOM     16  O   UNL     1       9.025  -2.012  24.895  0.00  0.00    -0.331 OA
BRANCH  15  17
ATOM     17  C   UNL     1       8.831  -1.086  22.621  0.00  0.00    +0.337 C 
ATOM     18  O   UNL     1       8.698  -0.115  21.890  0.00  0.00    -0.248 OA
BRANCH  17  19
ATOM     19  O   UNL     1       8.385  -2.320  22.283  0.00  0.00    -0.479 OA
ATOM     20  H   UNL     1       7.478  -2.431  22.648  0.00  0.00    +0.295 HD
ENDBRANCH  17  19
ENDBRANCH  15  17
BRANCH  14  21
ATOM     21  O   UNL     1      10.982   0.565  25.235  0.00  0.00    -0.386 OA
ATOM     22  H   UNL     1      11.286  -0.294  25.574  0.00  0.00    +0.210 HD
ENDBRANCH  14  21
BRANCH  13  23
ATOM     23  O   UNL     1       7.470   1.050  24.393  0.00  0.00    -0.386 OA
ATOM     24  H   UNL     1       6.673   1.169  24.940  0.00  0.00    +0.210 HD
ENDBRANCH  13  23
BRANCH  12  25
ATOM     25  O   UNL     1       9.391  -0.378  27.222  0.00  0.00    -0.384 OA
ATOM     26  H   UNL     1       9.008  -0.493  28.112  0.00  0.00    +0.210 HD
ENDBRANCH  12  25
ENDBRANCH  10  11
ENDBRANCH   6  10
ENDBRANCH   5   6
ENDBRANCH   1   5
BRANCH   1  27
ATOM     27  O   UNL     1       2.174  -2.141  28.029  0.00  0.00    -0.284 OA
BRANCH  27  28
ATOM     28  C   UNL     1       1.911  -3.311  27.287  0.00  0.00    +0.206 C 
BRANCH  28  32
ATOM     29  C   UNL     1       4.102  -6.131  26.585  0.00  0.00    +0.253 C 
ATOM     30  C   UNL     1       3.396  -6.653  27.851  0.00  0.00    +0.195 C 
ATOM     31  C   UNL     1       2.723  -5.424  28.462  0.00  0.00    +0.178 C 
ATOM     32  C   UNL     1       3.052  -4.294  27.490  0.00  0.00    +0.178 C 
ATOM     33  O   UNL     1       3.395  -4.912  26.241  0.00  0.00    -0.346 OA
BRANCH  29  45
ATOM     34  N   UNL     1       6.842  -4.915  22.294  0.00  0.00    -0.329 N 
ATOM     35  H   UNL     1       7.532  -4.432  21.740  0.00  0.00    +0.145 HD
ATOM     36  H   UNL     1       5.875  -4.736  22.037  0.00  0.00    +0.145 HD
ATOM     37  C   UNL     1       7.034  -5.069  23.628  0.00  0.00    +0.195 A 
ATOM     38  N   UNL     1       8.337  -5.012  24.074  0.00  0.00    -0.293 N 
ATOM     39  H   UNL     1       9.090  -4.879  23.428  0.00  0.00    +0.172 HD
ATOM     40  C   UNL     1       8.730  -5.168  25.397  0.00  0.00    +0.280 A 
ATOM     41  O   UNL     1       9.906  -5.099  25.736  0.00  0.00    -0.265 OA
ATOM     42  C   UNL     1       7.606  -5.416  26.275  0.00  0.00    +0.172 A 
ATOM     43  N   UNL     1       7.557  -5.663  27.619  0.00  0.00    -0.229 NA
ATOM     44  C   UNL     1       6.282  -5.891  27.860  0.00  0.00    +0.203 A 
ATOM     45  N   UNL     1       5.524  -5.843  26.719  0.00  0.00    -0.285 N 
ATOM     46  C   UNL     1       6.353  -5.459  25.704  0.00  0.00    +0.171 A 
ATOM     47  N   UNL     1       6.019  -5.258  24.411  0.00  0.00    -0.196 NA
ENDBRANCH  29  45
BRANCH  31  48
ATOM     48  O   UNL     1       3.241  -5.145  29.760  0.00  0.00    -0.386 OA
ATOM     49  H   UNL     1       3.819  -4.361  29.678  0.00  0.00    +0.210 HD
ENDBRANCH  31  48
BRANCH  30  50
ATOM     50  O   UNL     1       2.381  -7.618  27.493  0.00  0.00    -0.385 OA
ATOM     51  H   UNL     1       2.820  -8.448  27.240  0.00  0.00    +0.210 HD
ENDBRANCH  30  50
ENDBRANCH  28  32
ENDBRANCH  27  28
ENDBRANCH   1  27
TORSDOF 17
ENDMDL
MODEL 8
REMARK VINA RESULT:      -8.0      3.386      8.185
REMARK  Name = 
REMARK  17 active torsions:
REMARK  status: ('A' for Active; 'I' for Inactive)
REMARK    1  A    between atoms: N_8  and  C_9
REMARK    2  A    between atoms: C_12  and  C_14
REMARK    3  A    between atoms: C_14  and  O_15
REMARK    4  A    between atoms: O_15  and  P_16
REMARK    5  A    between atoms: P_16  and  O_17
REMARK    6  A    between atoms: P_16  and  O_19
REMARK    7  A    between atoms: O_19  and  P_20
REMARK    8  A    between atoms: P_20  and  O_21
REMARK    9  A    between atoms: P_20  and  O_23
REMARK   10  A    between atoms: O_23  and  C_24
REMARK   11  A    between atoms: C_27  and  C_38
REMARK   12  A    between atoms: C_29  and  O_31
REMARK   13  A    between atoms: C_32  and  O_34
REMARK   14  A    between atoms: C_35  and  O_37
REMARK   15  A    between atoms: C_38  and  O_39
REMARK   16  A    between atoms: C_41  and  O_43
REMARK   17  A    between atoms: C_44  and  O_46
REMARK                            x       y       z     vdW  Elec       q    Type
REMARK                         _______ _______ _______ _____ _____    ______ ____
ROOT
ATOM      1  P   UNL     1       3.846   1.281  26.777  0.00  0.00    +0.483 P 
ATOM      2  O   UNL     1       4.308   2.463  27.636  0.00  0.00    -0.227 OA
ENDROOT
BRANCH   1   3
ATOM      3  O   UNL     1       2.250   1.945  26.855  0.00  0.00    -0.302 OA
ATOM      4  H   UNL     1       2.190   2.210  27.797  0.00  0.00    +0.222 HD
ENDBRANCH   1   3
BRANCH   1   5
ATOM      5  O   UNL     1       5.442   0.616  26.698  0.00  0.00    -0.186 OA
BRANCH   5   6
ATOM      6  P   UNL     1       5.372  -0.968  26.008  0.00  0.00    +0.486 P 
ATOM      7  O   UNL     1       6.445  -1.403  26.966  0.00  0.00    -0.227 OA
BRANCH   6   8
ATOM      8  O   UNL     1       5.893  -0.357  24.605  0.00  0.00    -0.302 OA
ATOM      9  H   UNL     1       6.848  -0.156  24.608  0.00  0.00    +0.222 HD
ENDBRANCH   6   8
BRANCH   6  10
ATOM     10  O   UNL     1       5.302  -2.553  25.317  0.00  0.00    -0.254 OA
BRANCH  10  11
ATOM     11  C   UNL     1       5.674  -2.693  23.911  0.00  0.00    +0.294 C 
ATOM     12  C   UNL     1       5.032  -3.765  22.937  0.00  0.00    +0.202 C 
ATOM     13  C   UNL     1       5.396  -5.177  23.393  0.00  0.00    +0.179 C 
ATOM     14  C   UNL     1       6.904  -5.344  23.320  0.00  0.00    +0.185 C 
ATOM     15  C   UNL     1       7.616  -4.183  24.056  0.00  0.00    +0.260 C 
ATOM     16  O   UNL     1       7.116  -2.849  23.850  0.00  0.00    -0.331 OA
BRANCH  15  17
ATOM     17  C   UNL     1       7.764  -4.513  25.545  0.00  0.00    +0.337 C 
ATOM     18  O   UNL     1       7.588  -5.621  26.032  0.00  0.00    -0.248 OA
BRANCH  17  19
ATOM     19  O   UNL     1       8.194  -3.456  26.276  0.00  0.00    -0.479 OA
ATOM     20  H   UNL     1       7.920  -2.631  25.816  0.00  0.00    +0.295 HD
ENDBRANCH  17  19
ENDBRANCH  15  17
BRANCH  14  21
ATOM     21  O   UNL     1       7.274  -5.476  21.938  0.00  0.00    -0.386 OA
ATOM     22  H   UNL     1       7.522  -4.608  21.579  0.00  0.00    +0.210 HD
ENDBRANCH  14  21
BRANCH  13  23
ATOM     23  O   UNL     1       4.919  -5.392  24.717  0.00  0.00    -0.386 OA
ATOM     24  H   UNL     1       5.447  -6.086  25.150  0.00  0.00    +0.210 HD
ENDBRANCH  13  23
BRANCH  12  25
ATOM     25  O   UNL     1       5.468  -3.480  21.591  0.00  0.00    -0.384 OA
ATOM     26  H   UNL     1       5.285  -2.535  21.429  0.00  0.00    +0.210 HD
ENDBRANCH  12  25
ENDBRANCH  10  11
ENDBRANCH   6  10
ENDBRANCH   5   6
ENDBRANCH   1   5
BRANCH   1  27
ATOM     27  O   UNL     1       3.974   1.834  25.236  0.00  0.00    -0.284 OA
BRANCH  27  28
ATOM     28  C   UNL     1       4.576   3.100  25.072  0.00  0.00    +0.206 C 
BRANCH  28  32
ATOM     29  C   UNL     1       7.949   3.415  23.742  0.00  0.00    +0.253 C 
ATOM     30  C   UNL     1       7.207   4.402  22.820  0.00  0.00    +0.195 C 
ATOM     31  C   UNL     1       5.724   4.092  23.022  0.00  0.00    +0.178 C 
ATOM     32  C   UNL     1       5.713   2.982  24.070  0.00  0.00    +0.178 C 
ATOM     33  O   UNL     1       6.975   3.045  24.751  0.00  0.00    -0.346 OA
BRANCH  29  45
ATOM     34  N   UNL     1       9.288  -0.652  26.754  0.00  0.00    -0.329 N 
ATOM     35  H   UNL     1       9.378  -1.620  27.017  0.00  0.00    +0.145 HD
ATOM     36  H   UNL     1       8.663  -0.099  27.335  0.00  0.00    +0.145 HD
ATOM     37  C   UNL     1       9.259  -0.309  25.441  0.00  0.00    +0.195 A 
ATOM     38  N   UNL     1       9.839  -1.195  24.559  0.00  0.00    -0.293 N 
ATOM     39  H   UNL     1      10.267  -2.037  24.892  0.00  0.00    +0.172 HD
ATOM     40  C   UNL     1       9.923  -1.007  23.186  0.00  0.00    +0.280 A 
ATOM     41  O   UNL     1      10.445  -1.836  22.449  0.00  0.00    -0.265 OA
ATOM     42  C   UNL     1       9.341   0.252  22.771  0.00  0.00    +0.172 A 
ATOM     43  N   UNL     1       9.255   0.835  21.536  0.00  0.00    -0.229 NA
ATOM     44  C   UNL     1       8.698   2.006  21.770  0.00  0.00    +0.203 A 
ATOM     45  N   UNL     1       8.465   2.211  23.106  0.00  0.00    -0.285 N 
ATOM     46  C   UNL     1       8.802   1.055  23.751  0.00  0.00    +0.171 A 
ATOM     47  N   UNL     1       8.707   0.804  25.075  0.00  0.00    -0.196 NA
ENDBRANCH  29  45
BRANCH  31  48
ATOM     48  O   UNL     1       5.120   3.651  21.808  0.00  0.00    -0.386 OA
ATOM     49  H   UNL     1       4.170   3.513  21.992  0.00  0.00    +0.210 HD
ENDBRANCH  31  48
BRANCH  30  50
ATOM     50  O   UNL     1       7.466   5.762  23.235  0.00  0.00    -0.385 OA
ATOM     51  H   UNL     1       8.334   6.030  22.889  0.00  0.00    +0.210 HD
ENDBRANCH  30  50
ENDBRANCH  28  32
ENDBRANCH  27  28
ENDBRANCH   1  27
TORSDOF 17
ENDMDL
MODEL 9
REMARK VINA RESULT:      -8.0      2.833      5.699
REMARK  Name = 
REMARK  17 active torsions:
REMARK  status: ('A' for Active; 'I' for Inactive)
REMARK    1  A    between atoms: N_8  and  C_9
REMARK    2  A    between atoms: C_12  and  C_14
REMARK    3  A    between atoms: C_14  and  O_15
REMARK    4  A    between atoms: O_15  and  P_16
REMARK    5  A    between atoms: P_16  and  O_17
REMARK    6  A    between atoms: P_16  and  O_19
REMARK    7  A    between atoms: O_19  and  P_20
REMARK    8  A    between atoms: P_20  and  O_21
REMARK    9  A    between atoms: P_20  and  O_23
REMARK   10  A    between atoms: O_23  and  C_24
REMARK   11  A    between atoms: C_27  and  C_38
REMARK   12  A    between atoms: C_29  and  O_31
REMARK   13  A    between atoms: C_32  and  O_34
REMARK   14  A    between atoms: C_35  and  O_37
REMARK   15  A    between atoms: C_38  and  O_39
REMARK   16  A    between atoms: C_41  and  O_43
REMARK   17  A    between atoms: C_44  and  O_46
REMARK                            x       y       z     vdW  Elec       q    Type
REMARK                         _______ _______ _______ _____ _____    ______ ____
ROOT
ATOM      1  P   UNL     1       4.132  -1.480  27.210  0.00  0.00    +0.483 P 
ATOM      2  O   UNL     1       3.475  -0.146  26.838  0.00  0.00    -0.227 OA
ENDROOT
BRANCH   1   3
ATOM      3  O   UNL     1       4.199  -0.906  28.840  0.00  0.00    -0.302 OA
ATOM      4  H   UNL     1       5.166  -0.878  29.002  0.00  0.00    +0.222 HD
ENDBRANCH   1   3
BRANCH   1   5
ATOM      5  O   UNL     1       4.064  -2.055  25.578  0.00  0.00    -0.186 OA
BRANCH   5   6
ATOM      6  P   UNL     1       5.628  -1.913  24.853  0.00  0.00    +0.486 P 
ATOM      7  O   UNL     1       6.246  -2.194  26.193  0.00  0.00    -0.227 OA
BRANCH   6   8
ATOM      8  O   UNL     1       5.318  -0.358  24.538  0.00  0.00    -0.302 OA
ATOM      9  H   UNL     1       5.685   0.247  25.209  0.00  0.00    +0.222 HD
ENDBRANCH   6   8
BRANCH   6  10
ATOM     10  O   UNL     1       7.192  -1.772  24.126  0.00  0.00    -0.254 OA
BRANCH  10  11
ATOM     11  C   UNL     1       8.312  -1.424  24.998  0.00  0.00    +0.294 C 
ATOM     12  C   UNL     1       8.590   0.044  25.524  0.00  0.00    +0.202 C 
ATOM     13  C   UNL     1       8.937   0.967  24.357  0.00  0.00    +0.179 C 
ATOM     14  C   UNL     1      10.215   0.471  23.702  0.00  0.00    +0.185 C 
ATOM     15  C   UNL     1      10.106  -1.038  23.372  0.00  0.00    +0.260 C 
ATOM     16  O   UNL     1       9.527  -1.904  24.366  0.00  0.00    -0.331 OA
BRANCH  15  17
ATOM     17  C   UNL     1       9.457  -1.233  21.997  0.00  0.00    +0.337 C 
ATOM     18  O   UNL     1       9.443  -0.392  21.110  0.00  0.00    -0.248 OA
BRANCH  17  19
ATOM     19  O   UNL     1       8.959  -2.482  21.826  0.00  0.00    -0.479 OA
ATOM     20  H   UNL     1       9.414  -3.085  22.457  0.00  0.00    +0.295 HD
ENDBRANCH  17  19
ENDBRANCH  15  17
BRANCH  14  21
ATOM     21  O   UNL     1      11.318   0.806  24.559  0.00  0.00    -0.386 OA
ATOM     22  H   UNL     1      12.028   0.151  24.453  0.00  0.00    +0.210 HD
ENDBRANCH  14  21
BRANCH  13  23
ATOM     23  O   UNL     1       7.859   0.992  23.429  0.00  0.00    -0.386 OA
ATOM     24  H   UNL     1       8.164   0.675  22.560  0.00  0.00    +0.210 HD
ENDBRANCH  13  23
BRANCH  12  25
ATOM     25  O   UNL     1       9.632  -0.017  26.522  0.00  0.00    -0.384 OA
ATOM     26  H   UNL     1       9.233  -0.402  27.324  0.00  0.00    +0.210 HD
ENDBRANCH  12  25
ENDBRANCH  10  11
ENDBRANCH   6  10
ENDBRANCH   5   6
ENDBRANCH   1   5
BRANCH   1  27
ATOM     27  O   UNL     1       2.869  -2.443  27.627  0.00  0.00    -0.284 OA
BRANCH  27  28
ATOM     28  C   UNL     1       3.186  -3.627  28.325  0.00  0.00    +0.206 C 
BRANCH  28  32
ATOM     29  C   UNL     1       4.302  -6.567  26.492  0.00  0.00    +0.253 C 
ATOM     30  C   UNL     1       5.371  -6.524  27.600  0.00  0.00    +0.195 C 
ATOM     31  C   UNL     1       5.243  -5.131  28.219  0.00  0.00    +0.178 C 
ATOM     32  C   UNL     1       4.088  -4.488  27.456  0.00  0.00    +0.178 C 
ATOM     33  O   UNL     1       3.331  -5.559  26.873  0.00  0.00    -0.346 OA
BRANCH  29  45
ATOM     34  N   UNL     1       9.175  -4.776  25.824  0.00  0.00    -0.329 N 
ATOM     35  H   UNL     1      10.076  -4.682  25.383  0.00  0.00    +0.145 HD
ATOM     36  H   UNL     1       9.185  -5.203  26.747  0.00  0.00    +0.145 HD
ATOM     37  C   UNL     1       8.089  -5.107  25.081  0.00  0.00    +0.195 A 
ATOM     38  N   UNL     1       8.153  -4.817  23.735  0.00  0.00    -0.293 N 
ATOM     39  H   UNL     1       8.961  -4.373  23.348  0.00  0.00    +0.172 HD
ATOM     40  C   UNL     1       7.135  -5.063  22.822  0.00  0.00    +0.280 A 
ATOM     41  O   UNL     1       7.252  -4.790  21.633  0.00  0.00    -0.265 OA
ATOM     42  C   UNL     1       5.970  -5.652  23.448  0.00  0.00    +0.172 A 
ATOM     43  N   UNL     1       4.755  -6.004  22.928  0.00  0.00    -0.229 NA
ATOM     44  C   UNL     1       4.063  -6.414  23.971  0.00  0.00    +0.203 A 
ATOM     45  N   UNL     1       4.771  -6.297  25.140  0.00  0.00    -0.285 N 
ATOM     46  C   UNL     1       6.029  -5.882  24.805  0.00  0.00    +0.171 A 
ATOM     47  N   UNL     1       7.064  -5.664  25.644  0.00  0.00    -0.196 NA
ENDBRANCH  29  45
BRANCH  31  48
ATOM     48  O   UNL     1       6.443  -4.381  28.052  0.00  0.00    -0.386 OA
ATOM     49  H   UNL     1       6.239  -3.642  27.446  0.00  0.00    +0.210 HD
ENDBRANCH  31  48
BRANCH  30  50
ATOM     50  O   UNL     1       5.083  -7.517  28.610  0.00  0.00    -0.385 OA
ATOM     51  H   UNL     1       5.234  -8.398  28.227  0.00  0.00    +0.210 HD
ENDBRANCH  30  50
ENDBRANCH  28  32
ENDBRANCH  27  28
ENDBRANCH   1  27
TORSDOF 17
ENDMDL
