MODEL 1
REMARK VINA RESULT:      -7.3      0.000      0.000
REMARK  Name = 
REMARK  4 active torsions:
REMARK  status: ('A' for Active; 'I' for Inactive)
REMARK    1  A    between atoms: C_2  and  C_15
REMARK    2  A    between atoms: C_10  and  O_11
REMARK    3  A    between atoms: C_13  and  O_14
REMARK    4  A    between atoms: C_18  and  O_19
REMARK                            x       y       z     vdW  Elec       q    Type
REMARK                         _______ _______ _______ _____ _____    ______ ____
ROOT
ATOM      1  C   UNL     1       8.869  -1.680  23.293  0.00  0.00    +0.211 C 
ATOM      2  O   UNL     1       8.850  -2.120  24.663  0.00  0.00    -0.483 OA
ATOM      3  C   UNL     1       8.154  -3.288  24.864  0.00  0.00    +0.139 A 
ATOM      4  C   UNL     1       8.395  -3.928  26.084  0.00  0.00    +0.092 A 
ATOM      5  C   UNL     1       7.726  -5.112  26.376  0.00  0.00    +0.124 A 
ATOM      6  C   UNL     1       6.821  -5.666  25.476  0.00  0.00    +0.091 A 
ATOM      7  C   UNL     1       6.570  -5.020  24.265  0.00  0.00    +0.134 A 
ATOM      8  C   UNL     1       7.232  -3.825  23.954  0.00  0.00    +0.101 A 
ATOM      9  C   UNL     1       6.973  -3.056  22.712  0.00  0.00    +0.174 C 
ATOM     10  O   UNL     1       6.396  -3.517  21.734  0.00  0.00    -0.292 OA
ATOM     11  C   UNL     1       7.458  -1.636  22.733  0.00  0.00    +0.129 C 
ENDROOT
BRANCH   1  12
ATOM     12  C   UNL     1       9.508  -0.304  23.196  0.00  0.00    -0.007 A 
ATOM     13  C   UNL     1       9.365   0.443  22.014  0.00  0.00    +0.011 A 
ATOM     14  C   UNL     1       9.891   1.733  21.918  0.00  0.00    +0.046 A 
ATOM     15  C   UNL     1      10.557   2.287  23.004  0.00  0.00    +0.117 A 
ATOM     16  C   UNL     1      10.716   1.566  24.183  0.00  0.00    +0.046 A 
ATOM     17  C   UNL     1      10.189   0.276  24.279  0.00  0.00    +0.011 A 
BRANCH  15  18
ATOM     18  O   UNL     1      11.038   3.555  22.874  0.00  0.00    -0.507 OA
ATOM     19  H   UNL     1      11.957   3.572  23.190  0.00  0.00    +0.292 HD
ENDBRANCH  15  18
ENDBRANCH   1  12
BRANCH   7  20
ATOM     20  O   UNL     1       5.650  -5.553  23.411  0.00  0.00    -0.506 OA
ATOM     21  H   UNL     1       4.787  -5.630  23.850  0.00  0.00    +0.292 HD
ENDBRANCH   7  20
BRANCH   5  22
ATOM     22  O   UNL     1       7.925  -5.772  27.552  0.00  0.00    -0.507 OA
ATOM     23  H   UNL     1       8.861  -6.024  27.621  0.00  0.00    +0.292 HD
ENDBRANCH   5  22
TORSDOF 4
ENDMDL
MODEL 2
REMARK VINA RESULT:      -6.9      2.157      6.836
REMARK  Name = 
REMARK  4 active torsions:
REMARK  status: ('A' for Active; 'I' for Inactive)
REMARK    1  A    between atoms: C_2  and  C_15
REMARK    2  A    between atoms: C_10  and  O_11
REMARK    3  A    between atoms: C_13  and  O_14
REMARK    4  A    between atoms: C_18  and  O_19
REMARK                            x       y       z     vdW  Elec       q    Type
REMARK                         _______ _______ _______ _____ _____    ______ ____
ROOT
ATOM      1  C   UNL     1       8.460  -1.460  24.467  0.00  0.00    +0.211 C 
ATOM      2  O   UNL     1       8.450  -0.283  25.296  0.00  0.00    -0.483 OA
ATOM      3  C   UNL     1       8.725   0.880  24.616  0.00  0.00    +0.139 A 
ATOM      4  C   UNL     1       8.391   2.060  25.287  0.00  0.00    +0.092 A 
ATOM      5  C   UNL     1       8.643   3.285  24.678  0.00  0.00    +0.124 A 
ATOM      6  C   UNL     1       9.223   3.352  23.415  0.00  0.00    +0.091 A 
ATOM      7  C   UNL     1       9.570   2.174  22.752  0.00  0.00    +0.134 A 
ATOM      8  C   UNL     1       9.327   0.932  23.351  0.00  0.00    +0.101 A 
ATOM      9  C   UNL     1       9.720  -0.357  22.729  0.00  0.00    +0.174 C 
ATOM     10  O   UNL     1      10.017  -0.479  21.547  0.00  0.00    -0.292 OA
ATOM     11  C   UNL     1       9.747  -1.529  23.664  0.00  0.00    +0.129 C 
ENDROOT
BRANCH   1  12
ATOM     12  C   UNL     1       8.318  -2.705  25.328  0.00  0.00    -0.007 A 
ATOM     13  C   UNL     1       7.267  -2.786  26.259  0.00  0.00    +0.011 A 
ATOM     14  C   UNL     1       7.079  -3.940  27.021  0.00  0.00    +0.046 A 
ATOM     15  C   UNL     1       7.933  -5.022  26.855  0.00  0.00    +0.117 A 
ATOM     16  C   UNL     1       8.984  -4.965  25.945  0.00  0.00    +0.046 A 
ATOM     17  C   UNL     1       9.172  -3.810  25.181  0.00  0.00    +0.011 A 
BRANCH  15  18
ATOM     18  O   UNL     1       7.701  -6.136  27.605  0.00  0.00    -0.507 OA
ATOM     19  H   UNL     1       6.881  -6.554  27.294  0.00  0.00    +0.292 HD
ENDBRANCH  15  18
ENDBRANCH   1  12
BRANCH   7  20
ATOM     20  O   UNL     1      10.176   2.258  21.533  0.00  0.00    -0.506 OA
ATOM     21  H   UNL     1      10.177   1.391  21.096  0.00  0.00    +0.292 HD
ENDBRANCH   7  20
BRANCH   5  22
ATOM     22  O   UNL     1       8.337   4.463  25.292  0.00  0.00    -0.507 OA
ATOM     23  H   UNL     1       9.054   5.100  25.132  0.00  0.00    +0.292 HD
ENDBRANCH   5  22
TORSDOF 4
ENDMDL
MODEL 3
REMARK VINA RESULT:      -6.9      1.391      1.722
REMARK  Name = 
REMARK  4 active torsions:
REMARK  status: ('A' for Active; 'I' for Inactive)
REMARK    1  A    between atoms: C_2  and  C_15
REMARK    2  A    between atoms: C_10  and  O_11
REMARK    3  A    between atoms: C_13  and  O_14
REMARK    4  A    between atoms: C_18  and  O_19
REMARK                            x       y       z     vdW  Elec       q    Type
REMARK                         _______ _______ _______ _____ _____    ______ ____
ROOT
ATOM      1  C   UNL     1       8.054  -2.732  23.196  0.00  0.00    +0.211 C 
ATOM      2  O   UNL     1       7.626  -3.214  24.483  0.00  0.00    -0.483 OA
ATOM      3  C   UNL     1       6.733  -4.257  24.419  0.00  0.00    +0.139 A 
ATOM      4  C   UNL     1       6.560  -4.973  25.607  0.00  0.00    +0.092 A 
ATOM      5  C   UNL     1       5.668  -6.040  25.638  0.00  0.00    +0.124 A 
ATOM      6  C   UNL     1       4.944  -6.401  24.506  0.00  0.00    +0.091 A 
ATOM      7  C   UNL     1       5.105  -5.677  23.324  0.00  0.00    +0.134 A 
ATOM      8  C   UNL     1       5.997  -4.598  23.275  0.00  0.00    +0.101 A 
ATOM      9  C   UNL     1       6.177  -3.750  22.070  0.00  0.00    +0.174 C 
ATOM     10  O   UNL     1       5.800  -4.072  20.950  0.00  0.00    -0.292 OA
ATOM     11  C   UNL     1       6.851  -2.434  22.318  0.00  0.00    +0.129 C 
ENDROOT
BRANCH   1  12
ATOM     12  C   UNL     1       8.898  -1.480  23.363  0.00  0.00    -0.007 A 
ATOM     13  C   UNL     1       9.097  -0.627  22.262  0.00  0.00    +0.011 A 
ATOM     14  C   UNL     1       9.818   0.560  22.401  0.00  0.00    +0.046 A 
ATOM     15  C   UNL     1      10.341   0.906  23.640  0.00  0.00    +0.117 A 
ATOM     16  C   UNL     1      10.164   0.077  24.743  0.00  0.00    +0.046 A 
ATOM     17  C   UNL     1       9.441  -1.110  24.605  0.00  0.00    +0.011 A 
BRANCH  15  18
ATOM     18  O   UNL     1      11.022   2.082  23.735  0.00  0.00    -0.507 OA
ATOM     19  H   UNL     1      10.723   2.550  24.533  0.00  0.00    +0.292 HD
ENDBRANCH  15  18
ENDBRANCH   1  12
BRANCH   7  20
ATOM     20  O   UNL     1       4.357  -6.017  22.235  0.00  0.00    -0.506 OA
ATOM     21  H   UNL     1       3.851  -5.251  21.921  0.00  0.00    +0.292 HD
ENDBRANCH   7  20
BRANCH   5  22
ATOM     22  O   UNL     1       5.463  -6.767  26.772  0.00  0.00    -0.507 OA
ATOM     23  H   UNL     1       6.269  -6.740  27.316  0.00  0.00    +0.292 HD
ENDBRANCH   5  22
TORSDOF 4
ENDMDL
MODEL 4
REMARK VINA RESULT:      -6.9      1.448      2.960
REMARK  Name = 
REMARK  4 active torsions:
REMARK  status: ('A' for Active; 'I' for Inactive)
REMARK    1  A    between atoms: C_2  and  C_15
REMARK    2  A    between atoms: C_10  and  O_11
REMARK    3  A    between atoms: C_13  and  O_14
REMARK    4  A    between atoms: C_18  and  O_19
REMARK                            x       y       z     vdW  Elec       q    Type
REMARK                         _______ _______ _______ _____ _____    ______ ____
ROOT
ATOM      1  C   UNL     1       7.724  -1.976  24.217  0.00  0.00    +0.211 C 
ATOM      2  O   UNL     1       7.029  -2.748  23.221  0.00  0.00    -0.483 OA
ATOM      3  C   UNL     1       6.425  -3.881  23.714  0.00  0.00    +0.139 A 
ATOM      4  C   UNL     1       5.469  -4.463  22.878  0.00  0.00    +0.092 A 
ATOM      5  C   UNL     1       4.813  -5.618  23.293  0.00  0.00    +0.124 A 
ATOM      6  C   UNL     1       5.099  -6.202  24.523  0.00  0.00    +0.091 A 
ATOM      7  C   UNL     1       6.064  -5.629  25.351  0.00  0.00    +0.134 A 
ATOM      8  C   UNL     1       6.736  -4.467  24.949  0.00  0.00    +0.101 A 
ATOM      9  C   UNL     1       7.813  -3.836  25.753  0.00  0.00    +0.174 C 
ATOM     10  O   UNL     1       8.013  -4.084  26.936  0.00  0.00    -0.292 OA
ATOM     11  C   UNL     1       8.674  -2.862  25.004  0.00  0.00    +0.129 C 
ENDROOT
BRANCH   1  12
ATOM     12  C   UNL     1       8.497  -0.847  23.555  0.00  0.00    -0.007 A 
ATOM     13  C   UNL     1       8.808  -0.932  22.186  0.00  0.00    +0.011 A 
ATOM     14  C   UNL     1       9.466   0.116  21.539  0.00  0.00    +0.046 A 
ATOM     15  C   UNL     1       9.812   1.257  22.252  0.00  0.00    +0.117 A 
ATOM     16  C   UNL     1       9.520   1.363  23.608  0.00  0.00    +0.046 A 
ATOM     17  C   UNL     1       8.861   0.315  24.256  0.00  0.00    +0.011 A 
BRANCH  15  18
ATOM     18  O   UNL     1      10.435   2.263  21.577  0.00  0.00    -0.507 OA
ATOM     19  H   UNL     1      10.687   2.953  22.213  0.00  0.00    +0.292 HD
ENDBRANCH  15  18
ENDBRANCH   1  12
BRANCH   7  20
ATOM     20  O   UNL     1       6.362  -6.236  26.535  0.00  0.00    -0.506 OA
ATOM     21  H   UNL     1       6.962  -6.985  26.388  0.00  0.00    +0.292 HD
ENDBRANCH   7  20
BRANCH   5  22
ATOM     22  O   UNL     1       3.875  -6.225  22.513  0.00  0.00    -0.507 OA
ATOM     23  H   UNL     1       4.170  -7.128  22.304  0.00  0.00    +0.292 HD
ENDBRANCH   5  22
TORSDOF 4
ENDMDL
MODEL 5
REMARK VINA RESULT:      -6.8      2.006      2.791
REMARK  Name = 
REMARK  4 active torsions:
REMARK  status: ('A' for Active; 'I' for Inactive)
REMARK    1  A    between atoms: C_2  and  C_15
REMARK    2  A    between atoms: C_10  and  O_11
REMARK    3  A    between atoms: C_13  and  O_14
REMARK    4  A    between atoms: C_18  and  O_19
REMARK                            x       y       z     vdW  Elec       q    Type
REMARK                         _______ _______ _______ _____ _____    ______ ____
ROOT
ATOM      1  C   UNL     1       9.067  -1.743  25.152  0.00  0.00    +0.211 C 
ATOM      2  O   UNL     1       7.667  -1.624  25.463  0.00  0.00    -0.483 OA
ATOM      3  C   UNL     1       7.172  -2.666  26.211  0.00  0.00    +0.139 A 
ATOM      4  C   UNL     1       5.936  -2.432  26.821  0.00  0.00    +0.092 A 
ATOM      5  C   UNL     1       5.354  -3.434  27.591  0.00  0.00    +0.124 A 
ATOM      6  C   UNL     1       5.982  -4.665  27.758  0.00  0.00    +0.091 A 
ATOM      7  C   UNL     1       7.208  -4.903  27.137  0.00  0.00    +0.134 A 
ATOM      8  C   UNL     1       7.808  -3.907  26.356  0.00  0.00    +0.101 A 
ATOM      9  C   UNL     1       9.081  -4.110  25.622  0.00  0.00    +0.174 C 
ATOM     10  O   UNL     1       9.858  -5.030  25.850  0.00  0.00    -0.292 OA
ATOM     11  C   UNL     1       9.359  -3.104  24.545  0.00  0.00    +0.129 C 
ENDROOT
BRANCH   1  12
ATOM     12  C   UNL     1       9.481  -0.645  24.186  0.00  0.00    -0.007 A 
ATOM     13  C   UNL     1       9.148  -0.760  22.824  0.00  0.00    +0.011 A 
ATOM     14  C   UNL     1       9.464   0.260  21.925  0.00  0.00    +0.046 A 
ATOM     15  C   UNL     1      10.109   1.403  22.380  0.00  0.00    +0.117 A 
ATOM     16  C   UNL     1      10.453   1.539  23.721  0.00  0.00    +0.046 A 
ATOM     17  C   UNL     1      10.136   0.519  24.621  0.00  0.00    +0.011 A 
BRANCH  15  18
ATOM     18  O   UNL     1      10.381   2.382  21.472  0.00  0.00    -0.507 OA
ATOM     19  H   UNL     1      10.417   3.235  21.937  0.00  0.00    +0.292 HD
ENDBRANCH  15  18
ENDBRANCH   1  12
BRANCH   7  20
ATOM     20  O   UNL     1       7.791  -6.129  27.277  0.00  0.00    -0.506 OA
ATOM     21  H   UNL     1       7.569  -6.511  28.141  0.00  0.00    +0.292 HD
ENDBRANCH   7  20
BRANCH   5  22
ATOM     22  O   UNL     1       4.150  -3.255  28.204  0.00  0.00    -0.507 OA
ATOM     23  H   UNL     1       3.525  -3.926  27.880  0.00  0.00    +0.292 HD
ENDBRANCH   5  22
TORSDOF 4
ENDMDL
MODEL 6
REMARK VINA RESULT:      -6.7      2.117      4.049
REMARK  Name = 
REMARK  4 active torsions:
REMARK  status: ('A' for Active; 'I' for Inactive)
REMARK    1  A    between atoms: C_2  and  C_15
REMARK    2  A    between atoms: C_10  and  O_11
REMARK    3  A    between atoms: C_13  and  O_14
REMARK    4  A    between atoms: C_18  and  O_19
REMARK                            x       y       z     vdW  Elec       q    Type
REMARK                         _______ _______ _______ _____ _____    ______ ____
ROOT
ATOM      1  C   UNL     1       7.334  -3.366  25.783  0.00  0.00    +0.211 C 
ATOM      2  O   UNL     1       6.738  -4.028  24.652  0.00  0.00    -0.483 OA
ATOM      3  C   UNL     1       5.911  -5.073  24.990  0.00  0.00    +0.139 A 
ATOM      4  C   UNL     1       5.056  -5.513  23.975  0.00  0.00    +0.092 A 
ATOM      5  C   UNL     1       4.190  -6.573  24.225  0.00  0.00    +0.124 A 
ATOM      6  C   UNL     1       4.165  -7.200  25.467  0.00  0.00    +0.091 A 
ATOM      7  C   UNL     1       5.028  -6.770  26.474  0.00  0.00    +0.134 A 
ATOM      8  C   UNL     1       5.910  -5.707  26.240  0.00  0.00    +0.101 A 
ATOM      9  C   UNL     1       6.893  -5.234  27.246  0.00  0.00    +0.174 C 
ATOM     10  O   UNL     1       6.838  -5.517  28.437  0.00  0.00    -0.292 OA
ATOM     11  C   UNL     1       7.998  -4.380  26.699  0.00  0.00    +0.129 C 
ENDROOT
BRANCH   1  12
ATOM     12  C   UNL     1       8.357  -2.347  25.310  0.00  0.00    -0.007 A 
ATOM     13  C   UNL     1       9.060  -2.576  24.114  0.00  0.00    +0.011 A 
ATOM     14  C   UNL     1       9.962  -1.629  23.625  0.00  0.00    +0.046 A 
ATOM     15  C   UNL     1      10.165  -0.446  24.325  0.00  0.00    +0.117 A 
ATOM     16  C   UNL     1       9.487  -0.198  25.513  0.00  0.00    +0.046 A 
ATOM     17  C   UNL     1       8.582  -1.145  26.001  0.00  0.00    +0.011 A 
BRANCH  15  18
ATOM     18  O   UNL     1      11.041   0.458  23.802  0.00  0.00    -0.507 OA
ATOM     19  H   UNL     1      11.200   1.152  24.463  0.00  0.00    +0.292 HD
ENDBRANCH  15  18
ENDBRANCH   1  12
BRANCH   7  20
ATOM     20  O   UNL     1       5.021  -7.423  27.672  0.00  0.00    -0.506 OA
ATOM     21  H   UNL     1       5.384  -6.854  28.369  0.00  0.00    +0.292 HD
ENDBRANCH   7  20
BRANCH   5  22
ATOM     22  O   UNL     1       3.339  -7.040  23.268  0.00  0.00    -0.507 OA
ATOM     23  H   UNL     1       2.642  -7.567  23.693  0.00  0.00    +0.292 HD
ENDBRANCH   5  22
TORSDOF 4
ENDMDL
MODEL 7
REMARK VINA RESULT:      -6.7      2.060      3.013
REMARK  Name = 
REMARK  4 active torsions:
REMARK  status: ('A' for Active; 'I' for Inactive)
REMARK    1  A    between atoms: C_2  and  C_15
REMARK    2  A    between atoms: C_10  and  O_11
REMARK    3  A    between atoms: C_13  and  O_14
REMARK    4  A    between atoms: C_18  and  O_19
REMARK                            x       y       z     vdW  Elec       q    Type
REMARK                         _______ _______ _______ _____ _____    ______ ____
ROOT
ATOM      1  C   UNL     1       8.074  -0.591  23.654  0.00  0.00    +0.211 C 
ATOM      2  O   UNL     1       6.902  -1.125  23.011  0.00  0.00    -0.483 OA
ATOM      3  C   UNL     1       6.793  -2.493  23.098  0.00  0.00    +0.139 A 
ATOM      4  C   UNL     1       5.529  -3.013  22.803  0.00  0.00    +0.092 A 
ATOM      5  C   UNL     1       5.328  -4.389  22.857  0.00  0.00    +0.124 A 
ATOM      6  C   UNL     1       6.366  -5.252  23.196  0.00  0.00    +0.091 A 
ATOM      7  C   UNL     1       7.630  -4.733  23.476  0.00  0.00    +0.134 A 
ATOM      8  C   UNL     1       7.852  -3.351  23.424  0.00  0.00    +0.101 A 
ATOM      9  C   UNL     1       9.183  -2.736  23.654  0.00  0.00    +0.174 C 
ATOM     10  O   UNL     1      10.121  -3.321  24.182  0.00  0.00    -0.292 OA
ATOM     11  C   UNL     1       9.318  -1.321  23.175  0.00  0.00    +0.129 C 
ENDROOT
BRANCH   1  12
ATOM     12  C   UNL     1       8.199   0.894  23.359  0.00  0.00    -0.007 A 
ATOM     13  C   UNL     1       7.291   1.503  22.475  0.00  0.00    +0.011 A 
ATOM     14  C   UNL     1       7.345   2.876  22.231  0.00  0.00    +0.046 A 
ATOM     15  C   UNL     1       8.304   3.652  22.872  0.00  0.00    +0.117 A 
ATOM     16  C   UNL     1       9.217   3.073  23.746  0.00  0.00    +0.046 A 
ATOM     17  C   UNL     1       9.162   1.699  23.991  0.00  0.00    +0.011 A 
BRANCH  15  18
ATOM     18  O   UNL     1       8.309   4.991  22.620  0.00  0.00    -0.507 OA
ATOM     19  H   UNL     1       7.862   5.148  21.771  0.00  0.00    +0.292 HD
ENDBRANCH  15  18
ENDBRANCH   1  12
BRANCH   7  20
ATOM     20  O   UNL     1       8.647  -5.596  23.766  0.00  0.00    -0.506 OA
ATOM     21  H   UNL     1       8.306  -6.374  24.235  0.00  0.00    +0.292 HD
ENDBRANCH   7  20
BRANCH   5  22
ATOM     22  O   UNL     1       4.116  -4.944  22.577  0.00  0.00    -0.507 OA
ATOM     23  H   UNL     1       3.518  -4.800  23.330  0.00  0.00    +0.292 HD
ENDBRANCH   5  22
TORSDOF 4
ENDMDL
MODEL 8
REMARK VINA RESULT:      -6.6      2.201      7.052
REMARK  Name = 
REMARK  4 active torsions:
REMARK  status: ('A' for Active; 'I' for Inactive)
REMARK    1  A    between atoms: C_2  and  C_15
REMARK    2  A    between atoms: C_10  and  O_11
REMARK    3  A    between atoms: C_13  and  O_14
REMARK    4  A    between atoms: C_18  and  O_19
REMARK                            x       y       z     vdW  Elec       q    Type
REMARK                         _______ _______ _______ _____ _____    ______ ____
ROOT
ATOM      1  C   UNL     1       8.908  -0.985  24.245  0.00  0.00    +0.211 C 
ATOM      2  O   UNL     1       7.648  -0.322  24.031  0.00  0.00    -0.483 OA
ATOM      3  C   UNL     1       7.768   0.963  23.556  0.00  0.00    +0.139 A 
ATOM      4  C   UNL     1       6.603   1.513  23.014  0.00  0.00    +0.092 A 
ATOM      5  C   UNL     1       6.629   2.812  22.517  0.00  0.00    +0.124 A 
ATOM      6  C   UNL     1       7.795   3.571  22.555  0.00  0.00    +0.091 A 
ATOM      7  C   UNL     1       8.954   3.027  23.110  0.00  0.00    +0.134 A 
ATOM      8  C   UNL     1       8.946   1.721  23.618  0.00  0.00    +0.101 A 
ATOM      9  C   UNL     1      10.124   1.100  24.271  0.00  0.00    +0.174 C 
ATOM     10  O   UNL     1      11.265   1.537  24.175  0.00  0.00    -0.292 OA
ATOM     11  C   UNL     1       9.824  -0.119  25.092  0.00  0.00    +0.129 C 
ENDROOT
BRANCH   1  12
ATOM     12  C   UNL     1       8.682  -2.324  24.927  0.00  0.00    -0.007 A 
ATOM     13  C   UNL     1       9.451  -3.436  24.541  0.00  0.00    +0.011 A 
ATOM     14  C   UNL     1       9.307  -4.663  25.191  0.00  0.00    +0.046 A 
ATOM     15  C   UNL     1       8.398  -4.786  26.234  0.00  0.00    +0.117 A 
ATOM     16  C   UNL     1       7.621  -3.703  26.632  0.00  0.00    +0.046 A 
ATOM     17  C   UNL     1       7.767  -2.475  25.982  0.00  0.00    +0.011 A 
BRANCH  15  18
ATOM     18  O   UNL     1       8.302  -5.996  26.853  0.00  0.00    -0.507 OA
ATOM     19  H   UNL     1       8.787  -5.953  27.694  0.00  0.00    +0.292 HD
ENDBRANCH  15  18
ENDBRANCH   1  12
BRANCH   7  20
ATOM     20  O   UNL     1      10.077   3.798  23.178  0.00  0.00    -0.506 OA
ATOM     21  H   UNL     1       9.848   4.706  23.432  0.00  0.00    +0.292 HD
ENDBRANCH   7  20
BRANCH   5  22
ATOM     22  O   UNL     1       5.519   3.394  21.981  0.00  0.00    -0.507 OA
ATOM     23  H   UNL     1       4.999   2.716  21.515  0.00  0.00    +0.292 HD
ENDBRANCH   5  22
TORSDOF 4
ENDMDL
MODEL 9
REMARK VINA RESULT:      -6.5      2.120      6.942
REMARK  Name = 
REMARK  4 active torsions:
REMARK  status: ('A' for Active; 'I' for Inactive)
REMARK    1  A    between atoms: C_2  and  C_15
REMARK    2  A    between atoms: C_10  and  O_11
REMARK    3  A    between atoms: C_13  and  O_14
REMARK    4  A    between atoms: C_18  and  O_19
REMARK                            x       y       z     vdW  Elec       q    Type
REMARK                         _______ _______ _______ _____ _____    ______ ____
ROOT
ATOM      1  C   UNL     1       6.800  -4.046  25.188  0.00  0.00    +0.211 C 
ATOM      2  O   UNL     1       7.745  -3.188  25.855  0.00  0.00    -0.483 OA
ATOM      3  C   UNL     1       8.443  -2.362  25.007  0.00  0.00    +0.139 A 
ATOM      4  C   UNL     1       9.102  -1.292  25.619  0.00  0.00    +0.092 A 
ATOM      5  C   UNL     1       9.841  -0.409  24.838  0.00  0.00    +0.124 A 
ATOM      6  C   UNL     1       9.937  -0.579  23.461  0.00  0.00    +0.091 A 
ATOM      7  C   UNL     1       9.292  -1.655  22.852  0.00  0.00    +0.134 A 
ATOM      8  C   UNL     1       8.545  -2.556  23.622  0.00  0.00    +0.101 A 
ATOM      9  C   UNL     1       7.881  -3.753  23.049  0.00  0.00    +0.174 C 
ATOM     10  O   UNL     1       7.677  -3.911  21.852  0.00  0.00    -0.292 OA
ATOM     11  C   UNL     1       7.477  -4.793  24.052  0.00  0.00    +0.129 C 
ENDROOT
BRANCH   1  12
ATOM     12  C   UNL     1       6.206  -5.035  26.178  0.00  0.00    -0.007 A 
ATOM     13  C   UNL     1       6.630  -5.012  27.518  0.00  0.00    +0.011 A 
ATOM     14  C   UNL     1       6.059  -5.869  28.461  0.00  0.00    +0.046 A 
ATOM     15  C   UNL     1       5.058  -6.750  28.072  0.00  0.00    +0.117 A 
ATOM     16  C   UNL     1       4.625  -6.797  26.751  0.00  0.00    +0.046 A 
ATOM     17  C   UNL     1       5.196  -5.938  25.808  0.00  0.00    +0.011 A 
BRANCH  15  18
ATOM     18  O   UNL     1       4.515  -7.555  29.029  0.00  0.00    -0.507 OA
ATOM     19  H   UNL     1       3.675  -7.911  28.694  0.00  0.00    +0.292 HD
ENDBRANCH  15  18
ENDBRANCH   1  12
BRANCH   7  20
ATOM     20  O   UNL     1       9.431  -1.831  21.506  0.00  0.00    -0.506 OA
ATOM     21  H   UNL     1       9.774  -1.023  21.094  0.00  0.00    +0.292 HD
ENDBRANCH   7  20
BRANCH   5  22
ATOM     22  O   UNL     1      10.503   0.648  25.389  0.00  0.00    -0.507 OA
ATOM     23  H   UNL     1       9.886   1.394  25.482  0.00  0.00    +0.292 HD
ENDBRANCH   5  22
TORSDOF 4
ENDMDL
