MODEL 1
REMARK VINA RESULT:      -7.4      0.000      0.000
REMARK  Name = 
REMARK  3 active torsions:
REMARK  status: ('A' for Active; 'I' for Inactive)
REMARK    1  A    between atoms: C_2  and  C_3
REMARK    2  A    between atoms: N_7  and  C_8
REMARK    3  A    between atoms: N_23  and  C_24
REMARK                            x       y       z     vdW  Elec       q    Type
REMARK                         _______ _______ _______ _____ _____    ______ ____
ROOT
ATOM      1  C   UNL     1       8.059  -1.321  22.935  0.00  0.00    +0.147 C 
ATOM      2  C   UNL     1       6.924  -2.384  23.287  0.00  0.00    +0.057 C 
ATOM      3  C   UNL     1       7.387  -3.531  24.231  0.00  0.00    +0.043 C 
ATOM      4  C   UNL     1       6.555  -4.810  24.113  0.00  0.00    +0.086 C 
ATOM      5  N   UNL     1       6.411  -5.301  22.761  0.00  0.00    -0.305 NA
ATOM      6  C   UNL     1       7.320  -6.332  22.296  0.00  0.00    +0.104 C 
ATOM      7  C   UNL     1       5.970  -4.356  21.764  0.00  0.00    +0.086 C 
ATOM      8  C   UNL     1       6.482  -2.927  21.895  0.00  0.00    +0.043 C 
ATOM      9  N   UNL     1       5.745  -1.718  23.943  0.00  0.00    -0.303 N 
ATOM     10  H   UNL     1       4.900  -2.262  24.079  0.00  0.00    +0.150 HD
ATOM     11  C   UNL     1       5.776  -0.591  24.747  0.00  0.00    +0.261 C 
ATOM     12  O   UNL     1       4.808  -0.324  25.451  0.00  0.00    -0.269 OA
ATOM     13  C   UNL     1       6.958   0.233  24.601  0.00  0.00    +0.110 A 
ATOM     14  N   UNL     1       7.252   1.464  25.165  0.00  0.00    -0.338 N 
ATOM     15  C   UNL     1       8.334   2.055  24.506  0.00  0.00    +0.070 A 
ATOM     16  C   UNL     1       8.800   1.098  23.595  0.00  0.00    +0.007 A 
ATOM     17  C   UNL     1       9.852   1.423  22.712  0.00  0.00    +0.012 A 
ATOM     18  C   UNL     1      10.429   2.690  22.746  0.00  0.00    +0.022 A 
ATOM     19  C   UNL     1       9.993   3.631  23.672  0.00  0.00    +0.061 A 
ATOM     20 CL   UNL     1      10.781   5.175  23.637  0.00  0.00    -0.082 Cl
ATOM     21  C   UNL     1       8.950   3.335  24.578  0.00  0.00    +0.083 A 
ATOM     22 CL   UNL     1       8.431   4.528  25.717  0.00  0.00    -0.080 Cl
ATOM     23  C   UNL     1       6.505   2.087  26.238  0.00  0.00    +0.149 C 
ATOM     24  C   UNL     1       7.998  -0.069  23.746  0.00  0.00    +0.009 A 
ENDROOT
BRANCH   1  25
ATOM     25  C   UNL     1       9.421  -1.903  22.959  0.00  0.00    +0.073 C 
ATOM     26  N   UNL     1      10.502  -2.327  22.979  0.00  0.00    -0.196 NA
ENDBRANCH   1  25
TORSDOF 1
ENDMDL
MODEL 2
REMARK VINA RESULT:      -7.1      2.277      3.838
REMARK  Name = 
REMARK  3 active torsions:
REMARK  status: ('A' for Active; 'I' for Inactive)
REMARK    1  A    between atoms: C_2  and  C_3
REMARK    2  A    between atoms: N_7  and  C_8
REMARK    3  A    between atoms: N_23  and  C_24
REMARK                            x       y       z     vdW  Elec       q    Type
REMARK                         _______ _______ _______ _____ _____    ______ ____
ROOT
ATOM      1  C   UNL     1       7.063  -1.780  25.978  0.00  0.00    +0.147 C 
ATOM      2  C   UNL     1       7.406  -3.282  25.567  0.00  0.00    +0.057 C 
ATOM      3  C   UNL     1       6.373  -3.938  24.605  0.00  0.00    +0.043 C 
ATOM      4  C   UNL     1       6.347  -5.466  24.666  0.00  0.00    +0.086 C 
ATOM      5  N   UNL     1       6.201  -6.005  25.999  0.00  0.00    -0.305 NA
ATOM      6  C   UNL     1       4.875  -6.368  26.462  0.00  0.00    +0.104 C 
ATOM      7  C   UNL     1       7.103  -5.506  27.010  0.00  0.00    +0.086 C 
ATOM      8  C   UNL     1       7.478  -4.032  26.931  0.00  0.00    +0.043 C 
ATOM      9  N   UNL     1       8.751  -3.366  24.897  0.00  0.00    -0.303 N 
ATOM     10  H   UNL     1       9.144  -4.284  24.723  0.00  0.00    +0.150 HD
ATOM     11  C   UNL     1       9.350  -2.384  24.125  0.00  0.00    +0.261 C 
ATOM     12  O   UNL     1      10.295  -2.678  23.402  0.00  0.00    -0.269 OA
ATOM     13  C   UNL     1       8.832  -1.047  24.325  0.00  0.00    +0.110 A 
ATOM     14  N   UNL     1       9.274   0.158  23.803  0.00  0.00    -0.338 N 
ATOM     15  C   UNL     1       8.714   1.228  24.507  0.00  0.00    +0.070 A 
ATOM     16  C   UNL     1       7.798   0.662  25.404  0.00  0.00    +0.007 A 
ATOM     17  C   UNL     1       7.116   1.486  26.324  0.00  0.00    +0.012 A 
ATOM     18  C   UNL     1       7.347   2.860  26.340  0.00  0.00    +0.022 A 
ATOM     19  C   UNL     1       8.227   3.429  25.428  0.00  0.00    +0.061 A 
ATOM     20 CL   UNL     1       8.439   5.148  25.526  0.00  0.00    -0.082 Cl
ATOM     21  C   UNL     1       8.919   2.636  24.486  0.00  0.00    +0.083 A 
ATOM     22 CL   UNL     1      10.008   3.376  23.366  0.00  0.00    -0.080 Cl
ATOM     23  C   UNL     1      10.234   0.297  22.727  0.00  0.00    +0.149 C 
ATOM     24  C   UNL     1       7.808  -0.747  25.200  0.00  0.00    +0.009 A 
ENDROOT
BRANCH   1  25
ATOM     25  C   UNL     1       5.609  -1.501  25.976  0.00  0.00    +0.073 C 
ATOM     26  N   UNL     1       4.474  -1.249  25.959  0.00  0.00    -0.196 NA
ENDBRANCH   1  25
TORSDOF 1
ENDMDL
MODEL 3
REMARK VINA RESULT:      -7.0      4.293      7.200
REMARK  Name = 
REMARK  3 active torsions:
REMARK  status: ('A' for Active; 'I' for Inactive)
REMARK    1  A    between atoms: C_2  and  C_3
REMARK    2  A    between atoms: N_7  and  C_8
REMARK    3  A    between atoms: N_23  and  C_24
REMARK                            x       y       z     vdW  Elec       q    Type
REMARK                         _______ _______ _______ _____ _____    ______ ____
ROOT
ATOM      1  C   UNL     1       7.333  -1.042  24.346  0.00  0.00    +0.147 C 
ATOM      2  C   UNL     1       8.858  -0.787  23.958  0.00  0.00    +0.057 C 
ATOM      3  C   UNL     1       9.649   0.072  24.986  0.00  0.00    +0.043 C 
ATOM      4  C   UNL     1      10.860   0.796  24.394  0.00  0.00    +0.086 C 
ATOM      5  N   UNL     1      10.567   1.574  23.212  0.00  0.00    -0.305 NA
ATOM      6  C   UNL     1      10.303   2.992  23.360  0.00  0.00    +0.104 C 
ATOM      7  C   UNL     1       9.848   0.909  22.151  0.00  0.00    +0.086 C 
ATOM      8  C   UNL     1       8.774  -0.089  22.568  0.00  0.00    +0.043 C 
ATOM      9  N   UNL     1       9.601  -2.087  23.803  0.00  0.00    -0.303 N 
ATOM     10  H   UNL     1      10.537  -2.061  23.414  0.00  0.00    +0.150 HD
ATOM     11  C   UNL     1       9.347  -3.268  24.480  0.00  0.00    +0.261 C 
ATOM     12  O   UNL     1      10.193  -4.155  24.485  0.00  0.00    -0.269 OA
ATOM     13  C   UNL     1       8.024  -3.368  25.061  0.00  0.00    +0.110 A 
ATOM     14  N   UNL     1       7.419  -4.440  25.698  0.00  0.00    -0.338 N 
ATOM     15  C   UNL     1       6.041  -4.228  25.803  0.00  0.00    +0.070 A 
ATOM     16  C   UNL     1       5.814  -2.928  25.332  0.00  0.00    +0.007 A 
ATOM     17  C   UNL     1       4.495  -2.437  25.235  0.00  0.00    +0.012 A 
ATOM     18  C   UNL     1       3.419  -3.239  25.610  0.00  0.00    +0.022 A 
ATOM     19  C   UNL     1       3.643  -4.516  26.112  0.00  0.00    +0.061 A 
ATOM     20 CL   UNL     1       2.238  -5.431  26.556  0.00  0.00    -0.082 Cl
ATOM     21  C   UNL     1       4.951  -5.035  26.232  0.00  0.00    +0.083 A 
ATOM     22 CL   UNL     1       5.194  -6.628  26.858  0.00  0.00    -0.080 Cl
ATOM     23  C   UNL     1       8.100  -5.642  26.134  0.00  0.00    +0.149 C 
ATOM     24  C   UNL     1       7.075  -2.371  24.976  0.00  0.00    +0.009 A 
ENDROOT
BRANCH   1  25
ATOM     25  C   UNL     1       6.755   0.052  25.159  0.00  0.00    +0.073 C 
ATOM     26  N   UNL     1       6.275   0.913  25.774  0.00  0.00    -0.196 NA
ENDBRANCH   1  25
TORSDOF 1
ENDMDL
MODEL 4
REMARK VINA RESULT:      -6.9      1.908      3.546
REMARK  Name = 
REMARK  3 active torsions:
REMARK  status: ('A' for Active; 'I' for Inactive)
REMARK    1  A    between atoms: C_2  and  C_3
REMARK    2  A    between atoms: N_7  and  C_8
REMARK    3  A    between atoms: N_23  and  C_24
REMARK                            x       y       z     vdW  Elec       q    Type
REMARK                         _______ _______ _______ _____ _____    ______ ____
ROOT
ATOM      1  C   UNL     1       7.426  -1.054  25.372  0.00  0.00    +0.147 C 
ATOM      2  C   UNL     1       7.864  -2.421  24.678  0.00  0.00    +0.057 C 
ATOM      3  C   UNL     1       6.833  -2.985  23.659  0.00  0.00    +0.043 C 
ATOM      4  C   UNL     1       6.934  -4.496  23.440  0.00  0.00    +0.086 C 
ATOM      5  N   UNL     1       6.913  -5.275  24.657  0.00  0.00    -0.305 NA
ATOM      6  C   UNL     1       5.650  -5.834  25.103  0.00  0.00    +0.104 C 
ATOM      7  C   UNL     1       7.830  -4.885  25.701  0.00  0.00    +0.086 C 
ATOM      8  C   UNL     1       8.079  -3.393  25.877  0.00  0.00    +0.043 C 
ATOM      9  N   UNL     1       9.169  -2.261  23.946  0.00  0.00    -0.303 N 
ATOM     10  H   UNL     1       9.625  -3.094  23.589  0.00  0.00    +0.150 HD
ATOM     11  C   UNL     1       9.639  -1.107  23.340  0.00  0.00    +0.261 C 
ATOM     12  O   UNL     1      10.561  -1.180  22.535  0.00  0.00    -0.269 OA
ATOM     13  C   UNL     1       9.027   0.121  23.806  0.00  0.00    +0.110 A 
ATOM     14  N   UNL     1       9.338   1.434  23.494  0.00  0.00    -0.338 N 
ATOM     15  C   UNL     1       8.735   2.306  24.406  0.00  0.00    +0.070 A 
ATOM     16  C   UNL     1       7.924   1.508  25.223  0.00  0.00    +0.007 A 
ATOM     17  C   UNL     1       7.233   2.088  26.308  0.00  0.00    +0.012 A 
ATOM     18  C   UNL     1       7.353   3.453  26.566  0.00  0.00    +0.022 A 
ATOM     19  C   UNL     1       8.128   4.254  25.735  0.00  0.00    +0.061 A 
ATOM     20 CL   UNL     1       8.205   5.939  26.137  0.00  0.00    -0.082 Cl
ATOM     21  C   UNL     1       8.824   3.708  24.634  0.00  0.00    +0.083 A 
ATOM     22 CL   UNL     1       9.781   4.732  23.622  0.00  0.00    -0.080 Cl
ATOM     23  C   UNL     1      10.217   1.850  22.420  0.00  0.00    +0.149 C 
ATOM     24  C   UNL     1       8.037   0.165  24.765  0.00  0.00    +0.009 A 
ENDROOT
BRANCH   1  25
ATOM     25  C   UNL     1       5.956  -0.912  25.486  0.00  0.00    +0.073 C 
ATOM     26  N   UNL     1       4.808  -0.771  25.596  0.00  0.00    -0.196 NA
ENDBRANCH   1  25
TORSDOF 1
ENDMDL
MODEL 5
REMARK VINA RESULT:      -6.9      2.830      4.489
REMARK  Name = 
REMARK  3 active torsions:
REMARK  status: ('A' for Active; 'I' for Inactive)
REMARK    1  A    between atoms: C_2  and  C_3
REMARK    2  A    between atoms: N_7  and  C_8
REMARK    3  A    between atoms: N_23  and  C_24
REMARK                            x       y       z     vdW  Elec       q    Type
REMARK                         _______ _______ _______ _____ _____    ______ ____
ROOT
ATOM      1  C   UNL     1       6.402  -2.656  26.298  0.00  0.00    +0.147 C 
ATOM      2  C   UNL     1       6.528  -4.245  26.244  0.00  0.00    +0.057 C 
ATOM      3  C   UNL     1       5.510  -4.940  25.296  0.00  0.00    +0.043 C 
ATOM      4  C   UNL     1       5.219  -6.398  25.653  0.00  0.00    +0.086 C 
ATOM      5  N   UNL     1       4.842  -6.608  27.032  0.00  0.00    -0.305 NA
ATOM      6  C   UNL     1       3.431  -6.669  27.366  0.00  0.00    +0.104 C 
ATOM      7  C   UNL     1       5.701  -6.035  28.041  0.00  0.00    +0.086 C 
ATOM      8  C   UNL     1       6.326  -4.682  27.726  0.00  0.00    +0.043 C 
ATOM      9  N   UNL     1       7.904  -4.662  25.800  0.00  0.00    -0.303 N 
ATOM     10  H   UNL     1       8.154  -5.643  25.868  0.00  0.00    +0.150 HD
ATOM     11  C   UNL     1       8.740  -3.969  24.941  0.00  0.00    +0.261 C 
ATOM     12  O   UNL     1       9.695  -4.544  24.431  0.00  0.00    -0.269 OA
ATOM     13  C   UNL     1       8.437  -2.559  24.798  0.00  0.00    +0.110 A 
ATOM     14  N   UNL     1       9.130  -1.573  24.115  0.00  0.00    -0.338 N 
ATOM     15  C   UNL     1       8.686  -0.306  24.508  0.00  0.00    +0.070 A 
ATOM     16  C   UNL     1       7.596  -0.528  25.361  0.00  0.00    +0.007 A 
ATOM     17  C   UNL     1       6.968   0.565  25.995  0.00  0.00    +0.012 A 
ATOM     18  C   UNL     1       7.425   1.863  25.771  0.00  0.00    +0.022 A 
ATOM     19  C   UNL     1       8.482   2.089  24.898  0.00  0.00    +0.061 A 
ATOM     20 CL   UNL     1       8.969   3.739  24.683  0.00  0.00    -0.082 Cl
ATOM     21  C   UNL     1       9.127   1.019  24.238  0.00  0.00    +0.083 A 
ATOM     22 CL   UNL     1      10.440   1.335  23.158  0.00  0.00    -0.080 Cl
ATOM     23  C   UNL     1      10.210  -1.809  23.179  0.00  0.00    +0.149 C 
ATOM     24  C   UNL     1       7.390  -1.934  25.444  0.00  0.00    +0.009 A 
ENDROOT
BRANCH   1  25
ATOM     25  C   UNL     1       5.024  -2.179  26.036  0.00  0.00    +0.073 C 
ATOM     26  N   UNL     1       3.948  -1.780  25.856  0.00  0.00    -0.196 NA
ENDBRANCH   1  25
TORSDOF 1
ENDMDL
MODEL 6
REMARK VINA RESULT:      -6.7      4.354      7.161
REMARK  Name = 
REMARK  3 active torsions:
REMARK  status: ('A' for Active; 'I' for Inactive)
REMARK    1  A    between atoms: C_2  and  C_3
REMARK    2  A    between atoms: N_7  and  C_8
REMARK    3  A    between atoms: N_23  and  C_24
REMARK                            x       y       z     vdW  Elec       q    Type
REMARK                         _______ _______ _______ _____ _____    ______ ____
ROOT
ATOM      1  C   UNL     1       6.994  -1.609  24.522  0.00  0.00    +0.147 C 
ATOM      2  C   UNL     1       7.320  -1.110  23.043  0.00  0.00    +0.057 C 
ATOM      3  C   UNL     1       8.803  -1.300  22.613  0.00  0.00    +0.043 C 
ATOM      4  C   UNL     1       9.258  -0.348  21.505  0.00  0.00    +0.086 C 
ATOM      5  N   UNL     1       8.989   1.047  21.773  0.00  0.00    -0.305 NA
ATOM      6  C   UNL     1      10.044   1.860  22.347  0.00  0.00    +0.104 C 
ATOM      7  C   UNL     1       7.645   1.390  22.170  0.00  0.00    +0.086 C 
ATOM      8  C   UNL     1       6.915   0.394  23.062  0.00  0.00    +0.043 C 
ATOM      9  N   UNL     1       6.469  -1.828  22.031  0.00  0.00    -0.303 N 
ATOM     10  H   UNL     1       6.478  -1.495  21.073  0.00  0.00    +0.150 HD
ATOM     11  C   UNL     1       5.983  -3.121  22.130  0.00  0.00    +0.261 C 
ATOM     12  O   UNL     1       5.559  -3.686  21.128  0.00  0.00    -0.269 OA
ATOM     13  C   UNL     1       5.943  -3.658  23.475  0.00  0.00    +0.110 A 
ATOM     14  N   UNL     1       5.421  -4.858  23.931  0.00  0.00    -0.338 N 
ATOM     15  C   UNL     1       5.288  -4.832  25.323  0.00  0.00    +0.070 A 
ATOM     16  C   UNL     1       5.871  -3.629  25.743  0.00  0.00    +0.007 A 
ATOM     17  C   UNL     1       5.827  -3.267  27.106  0.00  0.00    +0.012 A 
ATOM     18  C   UNL     1       5.211  -4.104  28.034  0.00  0.00    +0.022 A 
ATOM     19  C   UNL     1       4.664  -5.315  27.626  0.00  0.00    +0.061 A 
ATOM     20 CL   UNL     1       3.927  -6.287  28.860  0.00  0.00    -0.082 Cl
ATOM     21  C   UNL     1       4.700  -5.714  26.271  0.00  0.00    +0.083 A 
ATOM     22 CL   UNL     1       4.009  -7.226  25.797  0.00  0.00    -0.080 Cl
ATOM     23  C   UNL     1       5.003  -5.959  23.087  0.00  0.00    +0.149 C 
ATOM     24  C   UNL     1       6.369  -2.963  24.588  0.00  0.00    +0.009 A 
ENDROOT
BRANCH   1  25
ATOM     25  C   UNL     1       8.159  -1.517  25.431  0.00  0.00    +0.073 C 
ATOM     26  N   UNL     1       9.052  -1.431  26.169  0.00  0.00    -0.196 NA
ENDBRANCH   1  25
TORSDOF 1
ENDMDL
MODEL 7
REMARK VINA RESULT:      -6.4      3.610      7.322
REMARK  Name = 
REMARK  3 active torsions:
REMARK  status: ('A' for Active; 'I' for Inactive)
REMARK    1  A    between atoms: C_2  and  C_3
REMARK    2  A    between atoms: N_7  and  C_8
REMARK    3  A    between atoms: N_23  and  C_24
REMARK                            x       y       z     vdW  Elec       q    Type
REMARK                         _______ _______ _______ _____ _____    ______ ____
ROOT
ATOM      1  C   UNL     1       7.001   2.048  23.996  0.00  0.00    +0.147 C 
ATOM      2  C   UNL     1       7.941   3.109  23.268  0.00  0.00    +0.057 C 
ATOM      3  C   UNL     1       8.863   3.918  24.226  0.00  0.00    +0.043 C 
ATOM      4  C   UNL     1       9.308   5.271  23.669  0.00  0.00    +0.086 C 
ATOM      5  N   UNL     1       8.226   6.104  23.196  0.00  0.00    -0.305 NA
ATOM      6  C   UNL     1       7.678   7.108  24.088  0.00  0.00    +0.104 C 
ATOM      7  C   UNL     1       7.288   5.500  22.279  0.00  0.00    +0.086 C 
ATOM      8  C   UNL     1       6.940   4.036  22.515  0.00  0.00    +0.043 C 
ATOM      9  N   UNL     1       8.832   2.438  22.257  0.00  0.00    -0.303 N 
ATOM     10  H   UNL     1       9.368   3.024  21.626  0.00  0.00    +0.150 HD
ATOM     11  C   UNL     1       9.331   1.148  22.325  0.00  0.00    +0.261 C 
ATOM     12  O   UNL     1      10.268   0.824  21.604  0.00  0.00    -0.269 OA
ATOM     13  C   UNL     1       8.608   0.259  23.211  0.00  0.00    +0.110 A 
ATOM     14  N   UNL     1       8.772  -1.100  23.423  0.00  0.00    -0.338 N 
ATOM     15  C   UNL     1       7.664  -1.625  24.096  0.00  0.00    +0.070 A 
ATOM     16  C   UNL     1       6.856  -0.527  24.422  0.00  0.00    +0.007 A 
ATOM     17  C   UNL     1       5.608  -0.736  25.045  0.00  0.00    +0.012 A 
ATOM     18  C   UNL     1       5.179  -2.028  25.342  0.00  0.00    +0.022 A 
ATOM     19  C   UNL     1       5.995  -3.116  25.054  0.00  0.00    +0.061 A 
ATOM     20 CL   UNL     1       5.372  -4.681  25.469  0.00  0.00    -0.082 Cl
ATOM     21  C   UNL     1       7.255  -2.943  24.439  0.00  0.00    +0.083 A 
ATOM     22 CL   UNL     1       8.243  -4.319  24.093  0.00  0.00    -0.080 Cl
ATOM     23  C   UNL     1       9.896  -1.887  22.956  0.00  0.00    +0.149 C 
ATOM     24  C   UNL     1       7.514   0.647  23.956  0.00  0.00    +0.009 A 
ENDROOT
BRANCH   1  25
ATOM     25  C   UNL     1       6.648   2.445  25.379  0.00  0.00    +0.073 C 
ATOM     26  N   UNL     1       6.336   2.747  26.456  0.00  0.00    -0.196 NA
ENDBRANCH   1  25
TORSDOF 1
ENDMDL
MODEL 8
REMARK VINA RESULT:      -6.4      1.834      2.499
REMARK  Name = 
REMARK  3 active torsions:
REMARK  status: ('A' for Active; 'I' for Inactive)
REMARK    1  A    between atoms: C_2  and  C_3
REMARK    2  A    between atoms: N_7  and  C_8
REMARK    3  A    between atoms: N_23  and  C_24
REMARK                            x       y       z     vdW  Elec       q    Type
REMARK                         _______ _______ _______ _____ _____    ______ ____
ROOT
ATOM      1  C   UNL     1       8.350   0.480  23.728  0.00  0.00    +0.147 C 
ATOM      2  C   UNL     1       6.912  -0.195  23.852  0.00  0.00    +0.057 C 
ATOM      3  C   UNL     1       6.650  -0.907  25.211  0.00  0.00    +0.043 C 
ATOM      4  C   UNL     1       5.589  -2.008  25.145  0.00  0.00    +0.086 C 
ATOM      5  N   UNL     1       5.811  -2.984  24.103  0.00  0.00    -0.305 NA
ATOM      6  C   UNL     1       6.490  -4.221  24.442  0.00  0.00    +0.104 C 
ATOM      7  C   UNL     1       6.053  -2.480  22.773  0.00  0.00    +0.086 C 
ATOM      8  C   UNL     1       6.869  -1.198  22.660  0.00  0.00    +0.043 C 
ATOM      9  N   UNL     1       5.819   0.823  23.668  0.00  0.00    -0.303 N 
ATOM     10  H   UNL     1       4.865   0.492  23.578  0.00  0.00    +0.150 HD
ATOM     11  C   UNL     1       5.878   2.166  24.001  0.00  0.00    +0.261 C 
ATOM     12  O   UNL     1       4.841   2.816  24.077  0.00  0.00    -0.269 OA
ATOM     13  C   UNL     1       7.216   2.702  24.145  0.00  0.00    +0.110 A 
ATOM     14  N   UNL     1       7.624   4.008  24.361  0.00  0.00    -0.338 N 
ATOM     15  C   UNL     1       8.992   4.139  24.103  0.00  0.00    +0.070 A 
ATOM     16  C   UNL     1       9.462   2.843  23.849  0.00  0.00    +0.007 A 
ATOM     17  C   UNL     1      10.807   2.645  23.474  0.00  0.00    +0.012 A 
ATOM     18  C   UNL     1      11.671   3.733  23.360  0.00  0.00    +0.022 A 
ATOM     19  C   UNL     1      11.217   5.016  23.647  0.00  0.00    +0.061 A 
ATOM     20 CL   UNL     1      12.372   6.300  23.482  0.00  0.00    -0.082 Cl
ATOM     21  C   UNL     1       9.880   5.249  24.035  0.00  0.00    +0.083 A 
ATOM     22 CL   UNL     1       9.348   6.857  24.383  0.00  0.00    -0.080 Cl
ATOM     23  C   UNL     1       6.751   5.104  24.732  0.00  0.00    +0.149 C 
ATOM     24  C   UNL     1       8.361   1.950  23.986  0.00  0.00    +0.009 A 
ENDROOT
BRANCH   1  25
ATOM     25  C   UNL     1       9.382  -0.209  24.537  0.00  0.00    +0.073 C 
ATOM     26  N   UNL     1      10.193  -0.721  25.193  0.00  0.00    -0.196 NA
ENDBRANCH   1  25
TORSDOF 1
ENDMDL
MODEL 9
REMARK VINA RESULT:      -6.4      3.568      6.492
REMARK  Name = 
REMARK  3 active torsions:
REMARK  status: ('A' for Active; 'I' for Inactive)
REMARK    1  A    between atoms: C_2  and  C_3
REMARK    2  A    between atoms: N_7  and  C_8
REMARK    3  A    between atoms: N_23  and  C_24
REMARK                            x       y       z     vdW  Elec       q    Type
REMARK                         _______ _______ _______ _____ _____    ______ ____
ROOT
ATOM      1  C   UNL     1       7.954   1.260  23.784  0.00  0.00    +0.147 C 
ATOM      2  C   UNL     1       6.965   2.500  23.942  0.00  0.00    +0.057 C 
ATOM      3  C   UNL     1       6.256   2.929  22.625  0.00  0.00    +0.043 C 
ATOM      4  C   UNL     1       5.798   4.389  22.610  0.00  0.00    +0.086 C 
ATOM      5  N   UNL     1       6.831   5.339  22.954  0.00  0.00    -0.305 NA
ATOM      6  C   UNL     1       7.568   5.983  21.884  0.00  0.00    +0.104 C 
ATOM      7  C   UNL     1       7.574   5.088  24.166  0.00  0.00    +0.086 C 
ATOM      8  C   UNL     1       7.878   3.633  24.498  0.00  0.00    +0.043 C 
ATOM      9  N   UNL     1       5.888   2.207  24.950  0.00  0.00    -0.303 N 
ATOM     10  H   UNL     1       5.287   2.969  25.247  0.00  0.00    +0.150 HD
ATOM     11  C   UNL     1       5.339   0.967  25.236  0.00  0.00    +0.261 C 
ATOM     12  O   UNL     1       4.282   0.902  25.852  0.00  0.00    -0.269 OA
ATOM     13  C   UNL     1       6.149  -0.166  24.837  0.00  0.00    +0.110 A 
ATOM     14  N   UNL     1       5.950  -1.517  25.069  0.00  0.00    -0.338 N 
ATOM     15  C   UNL     1       7.124  -2.232  24.811  0.00  0.00    +0.070 A 
ATOM     16  C   UNL     1       8.030  -1.306  24.279  0.00  0.00    +0.007 A 
ATOM     17  C   UNL     1       9.351  -1.706  23.985  0.00  0.00    +0.012 A 
ATOM     18  C   UNL     1       9.754  -3.020  24.217  0.00  0.00    +0.022 A 
ATOM     19  C   UNL     1       8.846  -3.950  24.710  0.00  0.00    +0.061 A 
ATOM     20 CL   UNL     1       9.445  -5.560  24.957  0.00  0.00    -0.082 Cl
ATOM     21  C   UNL     1       7.514  -3.587  25.006  0.00  0.00    +0.083 A 
ATOM     22 CL   UNL     1       6.411  -4.768  25.620  0.00  0.00    -0.080 Cl
ATOM     23  C   UNL     1       4.725  -2.104  25.573  0.00  0.00    +0.149 C 
ATOM     24  C   UNL     1       7.369  -0.048  24.204  0.00  0.00    +0.009 A 
ENDROOT
BRANCH   1  25
ATOM     25  C   UNL     1       8.548   1.166  22.430  0.00  0.00    +0.073 C 
ATOM     26  N   UNL     1       9.045   1.079  21.384  0.00  0.00    -0.196 NA
ENDBRANCH   1  25
TORSDOF 1
ENDMDL
