MODEL 1
REMARK VINA RESULT:      -6.7      0.000      0.000
REMARK  Name = 
REMARK  14 active torsions:
REMARK  status: ('A' for Active; 'I' for Inactive)
REMARK    1  A    between atoms: C_4  and  O_6
REMARK    2  A    between atoms: C_7  and  C_9
REMARK    3  A    between atoms: C_9  and  C_10
REMARK    4  A    between atoms: C_10  and  C_11
REMARK    5  A    between atoms: C_11  and  O_13
REMARK    6  A    between atoms: C_11  and  C_14
REMARK    7  A    between atoms: C_14  and  C_15
REMARK    8  A    between atoms: C_15  and  C_16
REMARK    9  A    between atoms: C_16  and  C_17
REMARK   10  A    between atoms: C_17  and  C_18
REMARK   11  A    between atoms: C_25  and  O_26
REMARK   12  A    between atoms: O_26  and  C_27
REMARK   13  A    between atoms: C_27  and  C_28
REMARK   14  A    between atoms: C_28  and  O_29
REMARK                            x       y       z     vdW  Elec       q    Type
REMARK                         _______ _______ _______ _____ _____    ______ ____
ROOT
ATOM      1  C   UNL     1       8.690  -2.416  24.862  0.00  0.00    -0.000 C 
ATOM      2  C   UNL     1       7.831  -3.538  25.418  0.00  0.00    +0.043 C 
ATOM      3  C   UNL     1       6.701  -4.030  24.548  0.00  0.00    -0.002 A 
ATOM      4  C   UNL     1       5.988  -5.227  24.808  0.00  0.00    +0.125 A 
ATOM      5  C   UNL     1       4.865  -5.549  24.026  0.00  0.00    +0.046 A 
ATOM      6  C   UNL     1       4.453  -4.734  22.977  0.00  0.00    +0.004 A 
ATOM      7  C   UNL     1       5.148  -3.565  22.708  0.00  0.00    +0.004 A 
ATOM      8  C   UNL     1       6.254  -3.192  23.492  0.00  0.00    -0.040 A 
ATOM      9  C   UNL     1       6.954  -1.908  23.099  0.00  0.00    +0.039 C 
ATOM     10  C   UNL     1       7.901  -1.325  24.157  0.00  0.00    +0.002 C 
ATOM     11  C   UNL     1       9.023  -0.476  23.505  0.00  0.00    +0.021 C 
ATOM     12  C   UNL     1      10.138  -1.504  23.178  0.00  0.00    +0.118 C 
ATOM     13  C   UNL     1       9.714  -2.835  23.807  0.00  0.00    +0.035 C 
ENDROOT
BRANCH  12  14
ATOM     14  O   UNL     1      10.256  -1.641  21.769  0.00  0.00    -0.391 OA
ATOM     15  H   UNL     1      10.955  -1.033  21.469  0.00  0.00    +0.210 HD
ENDBRANCH  12  14
BRANCH   4  16
ATOM     16  O   UNL     1       6.187  -6.162  25.797  0.00  0.00    -0.481 OA
BRANCH  16  17
ATOM     17  C   UNL     1       5.475  -6.019  27.021  0.00  0.00    +0.349 C 
BRANCH  17  18
ATOM     18  C   UNL     1       6.408  -5.771  28.199  0.00  0.00    +0.343 C 
ATOM     19  O   UNL     1       6.043  -5.323  29.276  0.00  0.00    -0.247 OA
BRANCH  18  20
ATOM     20  O   UNL     1       7.694  -6.087  27.939  0.00  0.00    -0.478 OA
ATOM     21  H   UNL     1       8.292  -5.504  28.449  0.00  0.00    +0.295 HD
ENDBRANCH  18  20
ENDBRANCH  17  18
ENDBRANCH  16  17
ENDBRANCH   4  16
BRANCH  11  22
ATOM     22  C   UNL     1       9.483   0.619  24.492  0.00  0.00    +0.009 C 
BRANCH  22  23
ATOM     23  C   UNL     1      10.602   1.533  23.989  0.00  0.00    +0.032 C 
BRANCH  23  24
ATOM     24  C   UNL     1      10.167   2.656  23.039  0.00  0.00    +0.115 C 
BRANCH  24  25
ATOM     25  O   UNL     1      10.157   2.167  21.699  0.00  0.00    -0.392 OA
ATOM     26  H   UNL     1       9.508   2.690  21.199  0.00  0.00    +0.210 HD
ENDBRANCH  24  25
BRANCH  24  27
ATOM     27  C   UNL     1       8.749   3.156  23.356  0.00  0.00    +0.031 C 
BRANCH  27  28
ATOM     28  C   UNL     1       7.798   3.026  22.167  0.00  0.00    +0.002 C 
BRANCH  28  29
ATOM     29  C   UNL     1       6.661   2.044  22.434  0.00  0.00    -0.000 C 
BRANCH  29  30
ATOM     30  C   UNL     1       5.826   2.523  23.622  0.00  0.00    -0.003 C 
ATOM     31  C   UNL     1       5.556   1.399  24.606  0.00  0.00    +0.004 C 
ENDBRANCH  29  30
ENDBRANCH  28  29
ENDBRANCH  27  28
ENDBRANCH  24  27
ENDBRANCH  23  24
ENDBRANCH  22  23
ENDBRANCH  11  22
TORSDOF 13
ENDMDL
MODEL 2
REMARK VINA RESULT:      -6.4      2.809      8.815
REMARK  Name = 
REMARK  14 active torsions:
REMARK  status: ('A' for Active; 'I' for Inactive)
REMARK    1  A    between atoms: C_4  and  O_6
REMARK    2  A    between atoms: C_7  and  C_9
REMARK    3  A    between atoms: C_9  and  C_10
REMARK    4  A    between atoms: C_10  and  C_11
REMARK    5  A    between atoms: C_11  and  O_13
REMARK    6  A    between atoms: C_11  and  C_14
REMARK    7  A    between atoms: C_14  and  C_15
REMARK    8  A    between atoms: C_15  and  C_16
REMARK    9  A    between atoms: C_16  and  C_17
REMARK   10  A    between atoms: C_17  and  C_18
REMARK   11  A    between atoms: C_25  and  O_26
REMARK   12  A    between atoms: O_26  and  C_27
REMARK   13  A    between atoms: C_27  and  C_28
REMARK   14  A    between atoms: C_28  and  O_29
REMARK                            x       y       z     vdW  Elec       q    Type
REMARK                         _______ _______ _______ _____ _____    ______ ____
ROOT
ATOM      1  C   UNL     1       9.668   1.380  23.658  0.00  0.00    -0.000 C 
ATOM      2  C   UNL     1      10.051   2.799  23.279  0.00  0.00    +0.043 C 
ATOM      3  C   UNL     1       9.491   3.911  24.131  0.00  0.00    -0.002 A 
ATOM      4  C   UNL     1       9.960   5.248  24.067  0.00  0.00    +0.125 A 
ATOM      5  C   UNL     1       9.300   6.249  24.799  0.00  0.00    +0.046 A 
ATOM      6  C   UNL     1       8.210   5.956  25.613  0.00  0.00    +0.004 A 
ATOM      7  C   UNL     1       7.749   4.650  25.690  0.00  0.00    +0.004 A 
ATOM      8  C   UNL     1       8.361   3.629  24.944  0.00  0.00    -0.040 A 
ATOM      9  C   UNL     1       7.792   2.236  25.117  0.00  0.00    +0.039 C 
ATOM     10  C   UNL     1       8.208   1.218  24.047  0.00  0.00    +0.002 C 
ATOM     11  C   UNL     1       8.173  -0.230  24.601  0.00  0.00    +0.021 C 
ATOM     12  C   UNL     1       9.576  -0.431  25.232  0.00  0.00    +0.118 C 
ATOM     13  C   UNL     1      10.410   0.801  24.863  0.00  0.00    +0.035 C 
ENDROOT
BRANCH  12  14
ATOM     14  O   UNL     1       9.449  -0.534  26.643  0.00  0.00    -0.391 OA
ATOM     15  H   UNL     1       9.380   0.369  27.001  0.00  0.00    +0.210 HD
ENDBRANCH  12  14
BRANCH   4  16
ATOM     16  O   UNL     1      10.985   5.776  23.319  0.00  0.00    -0.481 OA
BRANCH  16  17
ATOM     17  C   UNL     1      12.311   5.702  23.832  0.00  0.00    +0.349 C 
BRANCH  17  18
ATOM     18  C   UNL     1      13.327   5.379  22.746  0.00  0.00    +0.343 C 
ATOM     19  O   UNL     1      13.091   5.444  21.549  0.00  0.00    -0.247 OA
BRANCH  18  20
ATOM     20  O   UNL     1      14.528   4.999  23.233  0.00  0.00    -0.478 OA
ATOM     21  H   UNL     1      14.410   4.511  24.072  0.00  0.00    +0.295 HD
ENDBRANCH  18  20
ENDBRANCH  17  18
ENDBRANCH  16  17
ENDBRANCH   4  16
BRANCH  11  22
ATOM     22  C   UNL     1       7.884  -1.218  23.449  0.00  0.00    +0.009 C 
BRANCH  22  23
ATOM     23  C   UNL     1       6.407  -1.527  23.199  0.00  0.00    +0.032 C 
BRANCH  23  24
ATOM     24  C   UNL     1       6.070  -3.000  22.935  0.00  0.00    +0.115 C 
BRANCH  24  25
ATOM     25  O   UNL     1       5.416  -3.119  21.673  0.00  0.00    -0.392 OA
ATOM     26  H   UNL     1       5.722  -2.388  21.111  0.00  0.00    +0.210 HD
ENDBRANCH  24  25
BRANCH  24  27
ATOM     27  C   UNL     1       7.333  -3.874  22.881  0.00  0.00    +0.031 C 
BRANCH  27  28
ATOM     28  C   UNL     1       7.249  -5.091  23.801  0.00  0.00    +0.002 C 
BRANCH  28  29
ATOM     29  C   UNL     1       6.691  -4.743  25.178  0.00  0.00    -0.000 C 
BRANCH  29  30
ATOM     30  C   UNL     1       7.715  -5.088  26.260  0.00  0.00    -0.003 C 
ATOM     31  C   UNL     1       8.792  -4.026  26.370  0.00  0.00    +0.004 C 
ENDBRANCH  29  30
ENDBRANCH  28  29
ENDBRANCH  27  28
ENDBRANCH  24  27
ENDBRANCH  23  24
ENDBRANCH  22  23
ENDBRANCH  11  22
TORSDOF 13
ENDMDL
MODEL 3
REMARK VINA RESULT:      -6.4      1.427      2.386
REMARK  Name = 
REMARK  14 active torsions:
REMARK  status: ('A' for Active; 'I' for Inactive)
REMARK    1  A    between atoms: C_4  and  O_6
REMARK    2  A    between atoms: C_7  and  C_9
REMARK    3  A    between atoms: C_9  and  C_10
REMARK    4  A    between atoms: C_10  and  C_11
REMARK    5  A    between atoms: C_11  and  O_13
REMARK    6  A    between atoms: C_11  and  C_14
REMARK    7  A    between atoms: C_14  and  C_15
REMARK    8  A    between atoms: C_15  and  C_16
REMARK    9  A    between atoms: C_16  and  C_17
REMARK   10  A    between atoms: C_17  and  C_18
REMARK   11  A    between atoms: C_25  and  O_26
REMARK   12  A    between atoms: O_26  and  C_27
REMARK   13  A    between atoms: C_27  and  C_28
REMARK   14  A    between atoms: C_28  and  O_29
REMARK                            x       y       z     vdW  Elec       q    Type
REMARK                         _______ _______ _______ _____ _____    ______ ____
ROOT
ATOM      1  C   UNL     1       8.560  -2.331  25.025  0.00  0.00    -0.000 C 
ATOM      2  C   UNL     1       7.720  -3.421  25.666  0.00  0.00    +0.043 C 
ATOM      3  C   UNL     1       6.634  -4.035  24.819  0.00  0.00    -0.002 A 
ATOM      4  C   UNL     1       5.950  -5.225  25.177  0.00  0.00    +0.125 A 
ATOM      5  C   UNL     1       4.863  -5.660  24.400  0.00  0.00    +0.046 A 
ATOM      6  C   UNL     1       4.458  -4.967  23.264  0.00  0.00    +0.004 A 
ATOM      7  C   UNL     1       5.125  -3.807  22.899  0.00  0.00    +0.004 A 
ATOM      8  C   UNL     1       6.193  -3.322  23.673  0.00  0.00    -0.040 A 
ATOM      9  C   UNL     1       6.864  -2.059  23.173  0.00  0.00    +0.039 C 
ATOM     10  C   UNL     1       7.759  -1.343  24.194  0.00  0.00    +0.002 C 
ATOM     11  C   UNL     1       8.873  -0.523  23.491  0.00  0.00    +0.021 C 
ATOM     12  C   UNL     1      10.030  -1.540  23.300  0.00  0.00    +0.118 C 
ATOM     13  C   UNL     1       9.629  -2.817  24.046  0.00  0.00    +0.035 C 
ENDROOT
BRANCH  12  14
ATOM     14  O   UNL     1      10.196  -1.811  21.915  0.00  0.00    -0.391 OA
ATOM     15  H   UNL     1      10.818  -2.556  21.832  0.00  0.00    +0.210 HD
ENDBRANCH  12  14
BRANCH   4  16
ATOM     16  O   UNL     1       6.148  -6.050  26.259  0.00  0.00    -0.481 OA
BRANCH  16  17
ATOM     17  C   UNL     1       5.018  -6.692  26.840  0.00  0.00    +0.349 C 
BRANCH  17  18
ATOM     18  C   UNL     1       5.276  -7.110  28.281  0.00  0.00    +0.343 C 
ATOM     19  O   UNL     1       6.384  -7.131  28.797  0.00  0.00    -0.247 OA
BRANCH  18  20
ATOM     20  O   UNL     1       4.156  -7.468  28.944  0.00  0.00    -0.478 OA
ATOM     21  H   UNL     1       3.536  -7.918  28.334  0.00  0.00    +0.295 HD
ENDBRANCH  18  20
ENDBRANCH  17  18
ENDBRANCH  16  17
ENDBRANCH   4  16
BRANCH  11  22
ATOM     22  C   UNL     1       9.269   0.679  24.377  0.00  0.00    +0.009 C 
BRANCH  22  23
ATOM     23  C   UNL     1      10.536   1.422  23.954  0.00  0.00    +0.032 C 
BRANCH  23  24
ATOM     24  C   UNL     1      10.330   2.592  22.984  0.00  0.00    +0.115 C 
BRANCH  24  25
ATOM     25  O   UNL     1      10.199   2.089  21.655  0.00  0.00    -0.392 OA
ATOM     26  H   UNL     1      10.761   1.300  21.580  0.00  0.00    +0.210 HD
ENDBRANCH  24  25
BRANCH  24  27
ATOM     27  C   UNL     1       9.051   3.381  23.304  0.00  0.00    +0.031 C 
BRANCH  27  28
ATOM     28  C   UNL     1       9.261   4.426  24.399  0.00  0.00    +0.002 C 
BRANCH  28  29
ATOM     29  C   UNL     1       9.510   5.821  23.834  0.00  0.00    -0.000 C 
BRANCH  29  30
ATOM     30  C   UNL     1      10.807   6.393  24.406  0.00  0.00    -0.003 C 
ATOM     31  C   UNL     1      12.028   5.724  23.802  0.00  0.00    +0.004 C 
ENDBRANCH  29  30
ENDBRANCH  28  29
ENDBRANCH  27  28
ENDBRANCH  24  27
ENDBRANCH  23  24
ENDBRANCH  22  23
ENDBRANCH  11  22
TORSDOF 13
ENDMDL
MODEL 4
REMARK VINA RESULT:      -6.3      2.294      3.868
REMARK  Name = 
REMARK  14 active torsions:
REMARK  status: ('A' for Active; 'I' for Inactive)
REMARK    1  A    between atoms: C_4  and  O_6
REMARK    2  A    between atoms: C_7  and  C_9
REMARK    3  A    between atoms: C_9  and  C_10
REMARK    4  A    between atoms: C_10  and  C_11
REMARK    5  A    between atoms: C_11  and  O_13
REMARK    6  A    between atoms: C_11  and  C_14
REMARK    7  A    between atoms: C_14  and  C_15
REMARK    8  A    between atoms: C_15  and  C_16
REMARK    9  A    between atoms: C_16  and  C_17
REMARK   10  A    between atoms: C_17  and  C_18
REMARK   11  A    between atoms: C_25  and  O_26
REMARK   12  A    between atoms: O_26  and  C_27
REMARK   13  A    between atoms: C_27  and  C_28
REMARK   14  A    between atoms: C_28  and  O_29
REMARK                            x       y       z     vdW  Elec       q    Type
REMARK                         _______ _______ _______ _____ _____    ______ ____
ROOT
ATOM      1  C   UNL     1       8.988   0.521  24.611  0.00  0.00    -0.000 C 
ATOM      2  C   UNL     1       8.914  -0.898  25.147  0.00  0.00    +0.043 C 
ATOM      3  C   UNL     1       8.434  -1.965  24.194  0.00  0.00    -0.002 A 
ATOM      4  C   UNL     1       8.559  -3.353  24.458  0.00  0.00    +0.125 A 
ATOM      5  C   UNL     1       7.972  -4.280  23.580  0.00  0.00    +0.046 A 
ATOM      6  C   UNL     1       7.294  -3.870  22.437  0.00  0.00    +0.004 A 
ATOM      7  C   UNL     1       7.173  -2.516  22.165  0.00  0.00    +0.004 A 
ATOM      8  C   UNL     1       7.716  -1.559  23.038  0.00  0.00    -0.040 A 
ATOM      9  C   UNL     1       7.546  -0.109  22.635  0.00  0.00    +0.039 C 
ATOM     10  C   UNL     1       7.803   0.917  23.747  0.00  0.00    +0.002 C 
ATOM     11  C   UNL     1       8.260   2.280  23.165  0.00  0.00    +0.021 C 
ATOM     12  C   UNL     1       9.800   2.142  23.038  0.00  0.00    +0.118 C 
ATOM     13  C   UNL     1      10.185   0.819  23.709  0.00  0.00    +0.035 C 
ENDROOT
BRANCH  12  14
ATOM     14  O   UNL     1      10.161   2.120  21.664  0.00  0.00    -0.391 OA
ATOM     15  H   UNL     1      10.045   3.021  21.313  0.00  0.00    +0.210 HD
ENDBRANCH  12  14
BRANCH   4  16
ATOM     16  O   UNL     1       9.149  -3.987  25.526  0.00  0.00    -0.481 OA
BRANCH  16  17
ATOM     17  C   UNL     1       8.628  -5.244  25.943  0.00  0.00    +0.349 C 
BRANCH  17  18
ATOM     18  C   UNL     1       7.624  -5.100  27.077  0.00  0.00    +0.343 C 
ATOM     19  O   UNL     1       6.923  -4.113  27.247  0.00  0.00    -0.247 OA
BRANCH  18  20
ATOM     20  O   UNL     1       7.582  -6.173  27.895  0.00  0.00    -0.478 OA
ATOM     21  H   UNL     1       6.748  -6.171  28.407  0.00  0.00    +0.295 HD
ENDBRANCH  18  20
ENDBRANCH  17  18
ENDBRANCH  16  17
ENDBRANCH   4  16
BRANCH  11  22
ATOM     22  C   UNL     1       7.834   3.419  24.117  0.00  0.00    +0.009 C 
BRANCH  22  23
ATOM     23  C   UNL     1       7.206   4.641  23.446  0.00  0.00    +0.032 C 
BRANCH  23  24
ATOM     24  C   UNL     1       8.180   5.573  22.714  0.00  0.00    +0.115 C 
BRANCH  24  25
ATOM     25  O   UNL     1       7.580   6.031  21.504  0.00  0.00    -0.392 OA
ATOM     26  H   UNL     1       7.627   7.002  21.499  0.00  0.00    +0.210 HD
ENDBRANCH  24  25
BRANCH  24  27
ATOM     27  C   UNL     1       8.523   6.813  23.554  0.00  0.00    +0.031 C 
BRANCH  27  28
ATOM     28  C   UNL     1       9.836   6.663  24.320  0.00  0.00    +0.002 C 
BRANCH  28  29
ATOM     29  C   UNL     1      10.744   5.594  23.718  0.00  0.00    -0.000 C 
BRANCH  29  30
ATOM     30  C   UNL     1      12.209   5.941  23.986  0.00  0.00    -0.003 C 
ATOM     31  C   UNL     1      13.141   5.207  23.041  0.00  0.00    +0.004 C 
ENDBRANCH  29  30
ENDBRANCH  28  29
ENDBRANCH  27  28
ENDBRANCH  24  27
ENDBRANCH  23  24
ENDBRANCH  22  23
ENDBRANCH  11  22
TORSDOF 13
ENDMDL
MODEL 5
REMARK VINA RESULT:      -6.3      2.343      8.198
REMARK  Name = 
REMARK  14 active torsions:
REMARK  status: ('A' for Active; 'I' for Inactive)
REMARK    1  A    between atoms: C_4  and  O_6
REMARK    2  A    between atoms: C_7  and  C_9
REMARK    3  A    between atoms: C_9  and  C_10
REMARK    4  A    between atoms: C_10  and  C_11
REMARK    5  A    between atoms: C_11  and  O_13
REMARK    6  A    between atoms: C_11  and  C_14
REMARK    7  A    between atoms: C_14  and  C_15
REMARK    8  A    between atoms: C_15  and  C_16
REMARK    9  A    between atoms: C_16  and  C_17
REMARK   10  A    between atoms: C_17  and  C_18
REMARK   11  A    between atoms: C_25  and  O_26
REMARK   12  A    between atoms: O_26  and  C_27
REMARK   13  A    between atoms: C_27  and  C_28
REMARK   14  A    between atoms: C_28  and  O_29
REMARK                            x       y       z     vdW  Elec       q    Type
REMARK                         _______ _______ _______ _____ _____    ______ ____
ROOT
ATOM      1  C   UNL     1       9.309   0.572  24.407  0.00  0.00    -0.000 C 
ATOM      2  C   UNL     1       9.727   2.029  24.319  0.00  0.00    +0.043 C 
ATOM      3  C   UNL     1       8.750   2.985  23.680  0.00  0.00    -0.002 A 
ATOM      4  C   UNL     1       8.880   4.395  23.761  0.00  0.00    +0.125 A 
ATOM      5  C   UNL     1       8.002   5.214  23.031  0.00  0.00    +0.046 A 
ATOM      6  C   UNL     1       6.984   4.675  22.251  0.00  0.00    +0.004 A 
ATOM      7  C   UNL     1       6.843   3.298  22.172  0.00  0.00    +0.004 A 
ATOM      8  C   UNL     1       7.725   2.447  22.859  0.00  0.00    -0.040 A 
ATOM      9  C   UNL     1       7.468   0.960  22.721  0.00  0.00    +0.039 C 
ATOM     10  C   UNL     1       8.625   0.050  23.154  0.00  0.00    +0.002 C 
ATOM     11  C   UNL     1       8.111  -1.339  23.614  0.00  0.00    +0.021 C 
ATOM     12  C   UNL     1       7.794  -1.148  25.121  0.00  0.00    +0.118 C 
ATOM     13  C   UNL     1       8.301   0.245  25.509  0.00  0.00    +0.035 C 
ENDROOT
BRANCH  12  14
ATOM     14  O   UNL     1       6.390  -1.234  25.323  0.00  0.00    -0.391 OA
ATOM     15  H   UNL     1       6.227  -1.199  26.282  0.00  0.00    +0.210 HD
ENDBRANCH  12  14
BRANCH   4  16
ATOM     16  O   UNL     1       9.815   5.146  24.433  0.00  0.00    -0.481 OA
BRANCH  16  17
ATOM     17  C   UNL     1      10.690   5.978  23.679  0.00  0.00    +0.349 C 
BRANCH  17  18
ATOM     18  C   UNL     1      12.133   5.497  23.744  0.00  0.00    +0.343 C 
ATOM     19  O   UNL     1      12.544   4.493  23.183  0.00  0.00    -0.247 OA
BRANCH  18  20
ATOM     20  O   UNL     1      12.927   6.289  24.496  0.00  0.00    -0.478 OA
ATOM     21  H   UNL     1      12.406   6.697  25.217  0.00  0.00    +0.295 HD
ENDBRANCH  18  20
ENDBRANCH  17  18
ENDBRANCH  16  17
ENDBRANCH   4  16
BRANCH  11  22
ATOM     22  C   UNL     1       9.198  -2.405  23.358  0.00  0.00    +0.009 C 
BRANCH  22  23
ATOM     23  C   UNL     1       9.505  -3.331  24.535  0.00  0.00    +0.032 C 
BRANCH  23  24
ATOM     24  C   UNL     1       8.793  -4.690  24.517  0.00  0.00    +0.115 C 
BRANCH  24  25
ATOM     25  O   UNL     1       9.737  -5.725  24.787  0.00  0.00    -0.392 OA
ATOM     26  H   UNL     1      10.486  -5.326  25.260  0.00  0.00    +0.210 HD
ENDBRANCH  24  25
BRANCH  24  27
ATOM     27  C   UNL     1       7.698  -4.775  25.592  0.00  0.00    +0.031 C 
BRANCH  27  28
ATOM     28  C   UNL     1       6.365  -5.277  25.038  0.00  0.00    +0.002 C 
BRANCH  28  29
ATOM     29  C   UNL     1       6.242  -5.066  23.532  0.00  0.00    -0.000 C 
BRANCH  29  30
ATOM     30  C   UNL     1       5.341  -3.865  23.245  0.00  0.00    -0.003 C 
ATOM     31  C   UNL     1       5.676  -3.218  21.914  0.00  0.00    +0.004 C 
ENDBRANCH  29  30
ENDBRANCH  28  29
ENDBRANCH  27  28
ENDBRANCH  24  27
ENDBRANCH  23  24
ENDBRANCH  22  23
ENDBRANCH  11  22
TORSDOF 13
ENDMDL
MODEL 6
REMARK VINA RESULT:      -6.3      2.595      4.173
REMARK  Name = 
REMARK  14 active torsions:
REMARK  status: ('A' for Active; 'I' for Inactive)
REMARK    1  A    between atoms: C_4  and  O_6
REMARK    2  A    between atoms: C_7  and  C_9
REMARK    3  A    between atoms: C_9  and  C_10
REMARK    4  A    between atoms: C_10  and  C_11
REMARK    5  A    between atoms: C_11  and  O_13
REMARK    6  A    between atoms: C_11  and  C_14
REMARK    7  A    between atoms: C_14  and  C_15
REMARK    8  A    between atoms: C_15  and  C_16
REMARK    9  A    between atoms: C_16  and  C_17
REMARK   10  A    between atoms: C_17  and  C_18
REMARK   11  A    between atoms: C_25  and  O_26
REMARK   12  A    between atoms: O_26  and  C_27
REMARK   13  A    between atoms: C_27  and  C_28
REMARK   14  A    between atoms: C_28  and  O_29
REMARK                            x       y       z     vdW  Elec       q    Type
REMARK                         _______ _______ _______ _____ _____    ______ ____
ROOT
ATOM      1  C   UNL     1       6.535  -0.385  24.413  0.00  0.00    -0.000 C 
ATOM      2  C   UNL     1       6.589  -1.562  23.454  0.00  0.00    +0.043 C 
ATOM      3  C   UNL     1       7.284  -2.809  23.939  0.00  0.00    -0.002 A 
ATOM      4  C   UNL     1       7.189  -4.058  23.275  0.00  0.00    +0.125 A 
ATOM      5  C   UNL     1       7.971  -5.139  23.717  0.00  0.00    +0.046 A 
ATOM      6  C   UNL     1       8.818  -5.023  24.814  0.00  0.00    +0.004 A 
ATOM      7  C   UNL     1       8.912  -3.809  25.477  0.00  0.00    +0.004 A 
ATOM      8  C   UNL     1       8.173  -2.696  25.041  0.00  0.00    -0.040 A 
ATOM      9  C   UNL     1       8.335  -1.425  25.849  0.00  0.00    +0.039 C 
ATOM     10  C   UNL     1       7.831  -0.144  25.167  0.00  0.00    +0.002 C 
ATOM     11  C   UNL     1       7.412   0.924  26.211  0.00  0.00    +0.021 C 
ATOM     12  C   UNL     1       5.928   0.593  26.520  0.00  0.00    +0.118 C 
ATOM     13  C   UNL     1       5.502  -0.500  25.533  0.00  0.00    +0.035 C 
ENDROOT
BRANCH  12  14
ATOM     14  O   UNL     1       5.818   0.121  27.855  0.00  0.00    -0.391 OA
ATOM     15  H   UNL     1       4.870   0.024  28.057  0.00  0.00    +0.210 HD
ENDBRANCH  12  14
BRANCH   4  16
ATOM     16  O   UNL     1       6.454  -4.400  22.164  0.00  0.00    -0.481 OA
BRANCH  16  17
ATOM     17  C   UNL     1       5.971  -5.734  22.052  0.00  0.00    +0.349 C 
BRANCH  17  18
ATOM     18  C   UNL     1       4.658  -5.930  22.797  0.00  0.00    +0.343 C 
ATOM     19  O   UNL     1       3.756  -5.107  22.819  0.00  0.00    -0.247 OA
BRANCH  18  20
ATOM     20  O   UNL     1       4.584  -7.111  23.448  0.00  0.00    -0.478 OA
ATOM     21  H   UNL     1       5.425  -7.601  23.350  0.00  0.00    +0.295 HD
ENDBRANCH  18  20
ENDBRANCH  17  18
ENDBRANCH  16  17
ENDBRANCH   4  16
BRANCH  11  22
ATOM     22  C   UNL     1       7.602   2.335  25.612  0.00  0.00    +0.009 C 
BRANCH  22  23
ATOM     23  C   UNL     1       8.802   2.500  24.678  0.00  0.00    +0.032 C 
BRANCH  23  24
ATOM     24  C   UNL     1       8.513   3.187  23.337  0.00  0.00    +0.115 C 
BRANCH  24  25
ATOM     25  O   UNL     1       9.611   4.028  22.988  0.00  0.00    -0.392 OA
ATOM     26  H   UNL     1       9.528   4.246  22.044  0.00  0.00    +0.210 HD
ENDBRANCH  24  25
BRANCH  24  27
ATOM     27  C   UNL     1       8.335   2.169  22.200  0.00  0.00    +0.031 C 
BRANCH  27  28
ATOM     28  C   UNL     1       9.611   1.381  21.907  0.00  0.00    +0.002 C 
BRANCH  28  29
ATOM     29  C   UNL     1       9.323  -0.021  21.379  0.00  0.00    -0.000 C 
BRANCH  29  30
ATOM     30  C   UNL     1      10.062  -1.059  22.225  0.00  0.00    -0.003 C 
ATOM     31  C   UNL     1      10.770  -0.419  23.404  0.00  0.00    +0.004 C 
ENDBRANCH  29  30
ENDBRANCH  28  29
ENDBRANCH  27  28
ENDBRANCH  24  27
ENDBRANCH  23  24
ENDBRANCH  22  23
ENDBRANCH  11  22
TORSDOF 13
ENDMDL
MODEL 7
REMARK VINA RESULT:      -6.2      2.237      3.975
REMARK  Name = 
REMARK  14 active torsions:
REMARK  status: ('A' for Active; 'I' for Inactive)
REMARK    1  A    between atoms: C_4  and  O_6
REMARK    2  A    between atoms: C_7  and  C_9
REMARK    3  A    between atoms: C_9  and  C_10
REMARK    4  A    between atoms: C_10  and  C_11
REMARK    5  A    between atoms: C_11  and  O_13
REMARK    6  A    between atoms: C_11  and  C_14
REMARK    7  A    between atoms: C_14  and  C_15
REMARK    8  A    between atoms: C_15  and  C_16
REMARK    9  A    between atoms: C_16  and  C_17
REMARK   10  A    between atoms: C_17  and  C_18
REMARK   11  A    between atoms: C_25  and  O_26
REMARK   12  A    between atoms: O_26  and  C_27
REMARK   13  A    between atoms: C_27  and  C_28
REMARK   14  A    between atoms: C_28  and  O_29
REMARK                            x       y       z     vdW  Elec       q    Type
REMARK                         _______ _______ _______ _____ _____    ______ ____
ROOT
ATOM      1  C   UNL     1       6.353  -0.600  25.299  0.00  0.00    -0.000 C 
ATOM      2  C   UNL     1       5.831  -1.991  24.990  0.00  0.00    +0.043 C 
ATOM      3  C   UNL     1       6.565  -3.152  25.613  0.00  0.00    -0.002 A 
ATOM      4  C   UNL     1       6.051  -4.473  25.634  0.00  0.00    +0.125 A 
ATOM      5  C   UNL     1       6.853  -5.521  26.117  0.00  0.00    +0.046 A 
ATOM      6  C   UNL     1       8.134  -5.290  26.606  0.00  0.00    +0.004 A 
ATOM      7  C   UNL     1       8.644  -4.001  26.598  0.00  0.00    +0.004 A 
ATOM      8  C   UNL     1       7.885  -2.933  26.089  0.00  0.00    -0.040 A 
ATOM      9  C   UNL     1       8.529  -1.564  26.148  0.00  0.00    +0.039 C 
ATOM     10  C   UNL     1       7.869  -0.489  25.272  0.00  0.00    +0.002 C 
ATOM     11  C   UNL     1       8.106   0.932  25.846  0.00  0.00    +0.021 C 
ATOM     12  C   UNL     1       6.940   1.137  26.849  0.00  0.00    +0.118 C 
ATOM     13  C   UNL     1       5.994  -0.057  26.682  0.00  0.00    +0.035 C 
ENDROOT
BRANCH  12  14
ATOM     14  O   UNL     1       7.456   1.175  28.173  0.00  0.00    -0.391 OA
ATOM     15  H   UNL     1       7.351   0.286  28.556  0.00  0.00    +0.210 HD
ENDBRANCH  12  14
BRANCH   4  16
ATOM     16  O   UNL     1       4.841  -4.944  25.181  0.00  0.00    -0.481 OA
BRANCH  16  17
ATOM     17  C   UNL     1       4.279  -6.092  25.809  0.00  0.00    +0.349 C 
BRANCH  17  18
ATOM     18  C   UNL     1       4.019  -7.216  24.816  0.00  0.00    +0.343 C 
ATOM     19  O   UNL     1       3.217  -8.119  25.003  0.00  0.00    -0.247 OA
BRANCH  18  20
ATOM     20  O   UNL     1       4.770  -7.128  23.698  0.00  0.00    -0.478 OA
ATOM     21  H   UNL     1       4.283  -6.637  23.005  0.00  0.00    +0.295 HD
ENDBRANCH  18  20
ENDBRANCH  17  18
ENDBRANCH  16  17
ENDBRANCH   4  16
BRANCH  11  22
ATOM     22  C   UNL     1       8.100   1.963  24.696  0.00  0.00    +0.009 C 
BRANCH  22  23
ATOM     23  C   UNL     1       9.352   1.982  23.820  0.00  0.00    +0.032 C 
BRANCH  23  24
ATOM     24  C   UNL     1       9.110   1.870  22.309  0.00  0.00    +0.115 C 
BRANCH  24  25
ATOM     25  O   UNL     1      10.247   2.371  21.607  0.00  0.00    -0.392 OA
ATOM     26  H   UNL     1      10.466   3.240  21.982  0.00  0.00    +0.210 HD
ENDBRANCH  24  25
BRANCH  24  27
ATOM     27  C   UNL     1       8.907   0.411  21.870  0.00  0.00    +0.031 C 
BRANCH  27  28
ATOM     28  C   UNL     1      10.099  -0.481  22.215  0.00  0.00    +0.002 C 
BRANCH  28  29
ATOM     29  C   UNL     1       9.679  -1.904  22.569  0.00  0.00    -0.000 C 
BRANCH  29  30
ATOM     30  C   UNL     1       8.227  -2.139  22.154  0.00  0.00    -0.003 C 
ATOM     31  C   UNL     1       7.806  -3.580  22.379  0.00  0.00    +0.004 C 
ENDBRANCH  29  30
ENDBRANCH  28  29
ENDBRANCH  27  28
ENDBRANCH  24  27
ENDBRANCH  23  24
ENDBRANCH  22  23
ENDBRANCH  11  22
TORSDOF 13
ENDMDL
MODEL 8
REMARK VINA RESULT:      -6.1      2.521      8.547
REMARK  Name = 
REMARK  14 active torsions:
REMARK  status: ('A' for Active; 'I' for Inactive)
REMARK    1  A    between atoms: C_4  and  O_6
REMARK    2  A    between atoms: C_7  and  C_9
REMARK    3  A    between atoms: C_9  and  C_10
REMARK    4  A    between atoms: C_10  and  C_11
REMARK    5  A    between atoms: C_11  and  O_13
REMARK    6  A    between atoms: C_11  and  C_14
REMARK    7  A    between atoms: C_14  and  C_15
REMARK    8  A    between atoms: C_15  and  C_16
REMARK    9  A    between atoms: C_16  and  C_17
REMARK   10  A    between atoms: C_17  and  C_18
REMARK   11  A    between atoms: C_25  and  O_26
REMARK   12  A    between atoms: O_26  and  C_27
REMARK   13  A    between atoms: C_27  and  C_28
REMARK   14  A    between atoms: C_28  and  O_29
REMARK                            x       y       z     vdW  Elec       q    Type
REMARK                         _______ _______ _______ _____ _____    ______ ____
ROOT
ATOM      1  C   UNL     1       8.549   1.485  24.004  0.00  0.00    -0.000 C 
ATOM      2  C   UNL     1       8.376   2.935  24.418  0.00  0.00    +0.043 C 
ATOM      3  C   UNL     1       9.466   3.897  24.017  0.00  0.00    -0.002 A 
ATOM      4  C   UNL     1       9.326   5.306  24.097  0.00  0.00    +0.125 A 
ATOM      5  C   UNL     1      10.432   6.129  23.828  0.00  0.00    +0.046 A 
ATOM      6  C   UNL     1      11.661   5.595  23.452  0.00  0.00    +0.004 A 
ATOM      7  C   UNL     1      11.807   4.219  23.362  0.00  0.00    +0.004 A 
ATOM      8  C   UNL     1      10.733   3.363  23.659  0.00  0.00    -0.040 A 
ATOM      9  C   UNL     1      10.995   1.879  23.508  0.00  0.00    +0.039 C 
ATOM     10  C   UNL     1       9.964   0.959  24.176  0.00  0.00    +0.002 C 
ATOM     11  C   UNL     1       9.893  -0.419  23.467  0.00  0.00    +0.021 C 
ATOM     12  C   UNL     1       8.858  -0.209  22.330  0.00  0.00    +0.118 C 
ATOM     13  C   UNL     1       8.247   1.181  22.536  0.00  0.00    +0.035 C 
ENDROOT
BRANCH  12  14
ATOM     14  O   UNL     1       9.518  -0.275  21.073  0.00  0.00    -0.391 OA
ATOM     15  H   UNL     1      10.466  -0.414  21.243  0.00  0.00    +0.210 HD
ENDBRANCH  12  14
BRANCH   4  16
ATOM     16  O   UNL     1       8.233   6.052  24.472  0.00  0.00    -0.481 OA
BRANCH  16  17
ATOM     17  C   UNL     1       7.604   6.874  23.497  0.00  0.00    +0.349 C 
BRANCH  17  18
ATOM     18  C   UNL     1       6.930   6.054  22.406  0.00  0.00    +0.343 C 
ATOM     19  O   UNL     1       6.013   5.271  22.608  0.00  0.00    -0.247 OA
BRANCH  18  20
ATOM     20  O   UNL     1       7.450   6.265  21.178  0.00  0.00    -0.478 OA
ATOM     21  H   UNL     1       6.990   5.706  20.519  0.00  0.00    +0.295 HD
ENDBRANCH  18  20
ENDBRANCH  17  18
ENDBRANCH  16  17
ENDBRANCH   4  16
BRANCH  11  22
ATOM     22  C   UNL     1       9.462  -1.501  24.481  0.00  0.00    +0.009 C 
BRANCH  22  23
ATOM     23  C   UNL     1       9.616  -2.947  24.009  0.00  0.00    +0.032 C 
BRANCH  23  24
ATOM     24  C   UNL     1       9.209  -4.026  25.021  0.00  0.00    +0.115 C 
BRANCH  24  25
ATOM     25  O   UNL     1       8.475  -3.425  26.086  0.00  0.00    -0.392 OA
ATOM     26  H   UNL     1       8.567  -3.995  26.868  0.00  0.00    +0.210 HD
ENDBRANCH  24  25
BRANCH  24  27
ATOM     27  C   UNL     1       8.306  -5.094  24.386  0.00  0.00    +0.031 C 
BRANCH  27  28
ATOM     28  C   UNL     1       7.555  -4.579  23.159  0.00  0.00    +0.002 C 
BRANCH  28  29
ATOM     29  C   UNL     1       6.077  -4.958  23.177  0.00  0.00    -0.000 C 
BRANCH  29  30
ATOM     30  C   UNL     1       5.215  -3.697  23.226  0.00  0.00    -0.003 C 
ATOM     31  C   UNL     1       6.031  -2.449  22.944  0.00  0.00    +0.004 C 
ENDBRANCH  29  30
ENDBRANCH  28  29
ENDBRANCH  27  28
ENDBRANCH  24  27
ENDBRANCH  23  24
ENDBRANCH  22  23
ENDBRANCH  11  22
TORSDOF 13
ENDMDL
MODEL 9
REMARK VINA RESULT:      -5.7      2.519      7.704
REMARK  Name = 
REMARK  14 active torsions:
REMARK  status: ('A' for Active; 'I' for Inactive)
REMARK    1  A    between atoms: C_4  and  O_6
REMARK    2  A    between atoms: C_7  and  C_9
REMARK    3  A    between atoms: C_9  and  C_10
REMARK    4  A    between atoms: C_10  and  C_11
REMARK    5  A    between atoms: C_11  and  O_13
REMARK    6  A    between atoms: C_11  and  C_14
REMARK    7  A    between atoms: C_14  and  C_15
REMARK    8  A    between atoms: C_15  and  C_16
REMARK    9  A    between atoms: C_16  and  C_17
REMARK   10  A    between atoms: C_17  and  C_18
REMARK   11  A    between atoms: C_25  and  O_26
REMARK   12  A    between atoms: O_26  and  C_27
REMARK   13  A    between atoms: C_27  and  C_28
REMARK   14  A    between atoms: C_28  and  O_29
REMARK                            x       y       z     vdW  Elec       q    Type
REMARK                         _______ _______ _______ _____ _____    ______ ____
ROOT
ATOM      1  C   UNL     1       7.855  -0.318  23.321  0.00  0.00    -0.000 C 
ATOM      2  C   UNL     1       7.020   0.940  23.162  0.00  0.00    +0.043 C 
ATOM      3  C   UNL     1       7.752   2.258  23.208  0.00  0.00    -0.002 A 
ATOM      4  C   UNL     1       7.162   3.487  22.818  0.00  0.00    +0.125 A 
ATOM      5  C   UNL     1       7.866   4.687  23.013  0.00  0.00    +0.046 A 
ATOM      6  C   UNL     1       9.148   4.697  23.555  0.00  0.00    +0.004 A 
ATOM      7  C   UNL     1       9.738   3.501  23.932  0.00  0.00    +0.004 A 
ATOM      8  C   UNL     1       9.049   2.285  23.785  0.00  0.00    -0.040 A 
ATOM      9  C   UNL     1       9.794   1.036  24.209  0.00  0.00    +0.039 C 
ATOM     10  C   UNL     1       8.926  -0.216  24.394  0.00  0.00    +0.002 C 
ATOM     11  C   UNL     1       9.746  -1.512  24.166  0.00  0.00    +0.021 C 
ATOM     12  C   UNL     1       9.648  -1.761  22.637  0.00  0.00    +0.118 C 
ATOM     13  C   UNL     1       8.648  -0.740  22.084  0.00  0.00    +0.035 C 
ENDROOT
BRANCH  12  14
ATOM     14  O   UNL     1      10.925  -1.569  22.044  0.00  0.00    -0.391 OA
ATOM     15  H   UNL     1      11.277  -0.721  22.367  0.00  0.00    +0.210 HD
ENDBRANCH  12  14
BRANCH   4  16
ATOM     16  O   UNL     1       5.912   3.726  22.297  0.00  0.00    -0.481 OA
BRANCH  16  17
ATOM     17  C   UNL     1       4.879   4.158  23.176  0.00  0.00    +0.349 C 
BRANCH  17  18
ATOM     18  C   UNL     1       3.950   3.018  23.570  0.00  0.00    +0.343 C 
ATOM     19  O   UNL     1       4.108   2.319  24.560  0.00  0.00    -0.247 OA
BRANCH  18  20
ATOM     20  O   UNL     1       2.925   2.842  22.709  0.00  0.00    -0.478 OA
ATOM     21  H   UNL     1       2.147   2.485  23.183  0.00  0.00    +0.295 HD
ENDBRANCH  18  20
ENDBRANCH  17  18
ENDBRANCH  16  17
ENDBRANCH   4  16
BRANCH  11  22
ATOM     22  C   UNL     1       9.143  -2.662  25.002  0.00  0.00    +0.009 C 
BRANCH  22  23
ATOM     23  C   UNL     1       8.661  -3.875  24.206  0.00  0.00    +0.032 C 
BRANCH  23  24
ATOM     24  C   UNL     1       8.561  -5.190  24.991  0.00  0.00    +0.115 C 
BRANCH  24  25
ATOM     25  O   UNL     1       9.751  -5.952  24.792  0.00  0.00    -0.392 OA
ATOM     26  H   UNL     1      10.482  -5.328  24.650  0.00  0.00    +0.210 HD
ENDBRANCH  24  25
BRANCH  24  27
ATOM     27  C   UNL     1       8.420  -4.944  26.501  0.00  0.00    +0.031 C 
BRANCH  27  28
ATOM     28  C   UNL     1       7.078  -5.420  27.054  0.00  0.00    +0.002 C 
BRANCH  28  29
ATOM     29  C   UNL     1       5.964  -5.361  26.012  0.00  0.00    -0.000 C 
BRANCH  29  30
ATOM     30  C   UNL     1       5.037  -6.566  26.170  0.00  0.00    -0.003 C 
ATOM     31  C   UNL     1       4.445  -6.996  24.840  0.00  0.00    +0.004 C 
ENDBRANCH  29  30
ENDBRANCH  28  29
ENDBRANCH  27  28
ENDBRANCH  24  27
ENDBRANCH  23  24
ENDBRANCH  22  23
ENDBRANCH  11  22
TORSDOF 13
ENDMDL
