MODEL 1
REMARK VINA RESULT:      -5.1      0.000      0.000
REMARK  Name = 
REMARK  6 active torsions:
REMARK  status: ('A' for Active; 'I' for Inactive)
REMARK    1  A    between atoms: O_1  and  S_2
REMARK    2  A    between atoms: S_2  and  C_5
REMARK    3  A    between atoms: C_5  and  C_6
REMARK    4  A    between atoms: C_6  and  C_7
REMARK    5  A    between atoms: C_7  and  N_8
REMARK    6  A    between atoms: N_8  and  C_9
REMARK                            x       y       z     vdW  Elec       q    Type
REMARK                         _______ _______ _______ _____ _____    ______ ____
ROOT
ATOM      1  C   UNL     1       7.917  -2.816  23.029  0.00  0.00    +0.083 C 
ENDROOT
BRANCH   1   2
ATOM      2  N   UNL     1       8.415  -1.642  23.730  0.00  0.00    -0.313 NA
ATOM      3  H   UNL     1       8.121  -1.669  24.703  0.00  0.00    +0.122 HD
BRANCH   2   4
ATOM      4  C   UNL     1       9.841  -1.334  23.624  0.00  0.00    +0.054 C 
ATOM      5  C   UNL     1      10.307  -0.057  24.342  0.00  0.00    +0.019 C 
ATOM      6  C   UNL     1       9.790   1.239  23.714  0.00  0.00    +0.002 C 
ATOM      7  C   UNL     1      10.017   1.301  22.205  0.00  0.00    +0.000 C 
ATOM      8  C   UNL     1       9.523   0.046  21.496  0.00  0.00    +0.002 C 
ATOM      9  C   UNL     1      10.146  -1.209  22.115  0.00  0.00    +0.019 C 
ENDBRANCH   2   4
ENDBRANCH   1   2
BRANCH   1  10
ATOM     10  C   UNL     1       7.050  -3.554  24.053  0.00  0.00    +0.040 C 
BRANCH  10  11
ATOM     11  C   UNL     1       7.601  -4.908  24.470  0.00  0.00    +0.199 C 
BRANCH  11  12
ATOM     12  S   UNL     1       8.903  -4.677  25.684  0.00  0.00    +0.080 S 
ATOM     13  O   UNL     1      10.183  -5.023  25.118  0.00  0.00    -0.147 OA
ATOM     14  O   UNL     1       8.695  -3.442  26.412  0.00  0.00    -0.147 OA
BRANCH  12  15
ATOM     15  O   UNL     1       8.504  -5.872  26.690  0.00  0.00    -0.254 OA
ATOM     16  H   UNL     1       7.678  -6.288  26.354  0.00  0.00    +0.244 HD
ENDBRANCH  12  15
ENDBRANCH  11  12
ENDBRANCH  10  11
ENDBRANCH   1  10
TORSDOF 6
ENDMDL
MODEL 2
REMARK VINA RESULT:      -4.9      1.311      1.688
REMARK  Name = 
REMARK  6 active torsions:
REMARK  status: ('A' for Active; 'I' for Inactive)
REMARK    1  A    between atoms: O_1  and  S_2
REMARK    2  A    between atoms: S_2  and  C_5
REMARK    3  A    between atoms: C_5  and  C_6
REMARK    4  A    between atoms: C_6  and  C_7
REMARK    5  A    between atoms: C_7  and  N_8
REMARK    6  A    between atoms: N_8  and  C_9
REMARK                            x       y       z     vdW  Elec       q    Type
REMARK                         _______ _______ _______ _____ _____    ______ ____
ROOT
ATOM      1  C   UNL     1       7.912  -2.344  24.124  0.00  0.00    +0.083 C 
ENDROOT
BRANCH   1   2
ATOM      2  N   UNL     1       8.457  -1.002  23.976  0.00  0.00    -0.313 NA
ATOM      3  H   UNL     1       8.239  -0.447  24.799  0.00  0.00    +0.122 HD
BRANCH   2   4
ATOM      4  C   UNL     1       9.869  -0.873  23.617  0.00  0.00    +0.054 C 
ATOM      5  C   UNL     1      10.599   0.351  24.196  0.00  0.00    +0.019 C 
ATOM      6  C   UNL     1      10.136   1.689  23.615  0.00  0.00    +0.002 C 
ATOM      7  C   UNL     1      10.103   1.696  22.089  0.00  0.00    +0.000 C 
ATOM      8  C   UNL     1       9.351   0.498  21.522  0.00  0.00    +0.002 C 
ATOM      9  C   UNL     1       9.920  -0.812  22.074  0.00  0.00    +0.019 C 
ENDBRANCH   2   4
ENDBRANCH   1   2
BRANCH   1  10
ATOM     10  C   UNL     1       8.867  -3.058  25.087  0.00  0.00    +0.040 C 
BRANCH  10  11
ATOM     11  C   UNL     1       8.226  -3.466  26.404  0.00  0.00    +0.199 C 
BRANCH  11  12
ATOM     12  S   UNL     1       7.795  -5.207  26.346  0.00  0.00    +0.080 S 
ATOM     13  O   UNL     1       7.578  -5.714  27.678  0.00  0.00    -0.147 OA
ATOM     14  O   UNL     1       6.858  -5.457  25.269  0.00  0.00    -0.147 OA
BRANCH  12  15
ATOM     15  O   UNL     1       9.217  -5.787  25.857  0.00  0.00    -0.254 OA
ATOM     16  H   UNL     1       9.230  -5.769  24.873  0.00  0.00    +0.244 HD
ENDBRANCH  12  15
ENDBRANCH  11  12
ENDBRANCH  10  11
ENDBRANCH   1  10
TORSDOF 6
ENDMDL
MODEL 3
REMARK VINA RESULT:      -4.9      2.994      3.148
REMARK  Name = 
REMARK  6 active torsions:
REMARK  status: ('A' for Active; 'I' for Inactive)
REMARK    1  A    between atoms: O_1  and  S_2
REMARK    2  A    between atoms: S_2  and  C_5
REMARK    3  A    between atoms: C_5  and  C_6
REMARK    4  A    between atoms: C_6  and  C_7
REMARK    5  A    between atoms: C_7  and  N_8
REMARK    6  A    between atoms: N_8  and  C_9
REMARK                            x       y       z     vdW  Elec       q    Type
REMARK                         _______ _______ _______ _____ _____    ______ ____
ROOT
ATOM      1  C   UNL     1       8.467  -2.984  24.109  0.00  0.00    +0.083 C 
ENDROOT
BRANCH   1   2
ATOM      2  N   UNL     1       8.710  -1.562  23.920  0.00  0.00    -0.313 NA
ATOM      3  H   UNL     1       8.299  -1.035  24.686  0.00  0.00    +0.122 HD
BRANCH   2   4
ATOM      4  C   UNL     1      10.085  -1.130  23.668  0.00  0.00    +0.054 C 
ATOM      5  C   UNL     1      10.472   0.244  24.240  0.00  0.00    +0.019 C 
ATOM      6  C   UNL     1       9.779   1.424  23.557  0.00  0.00    +0.002 C 
ATOM      7  C   UNL     1       9.881   1.375  22.035  0.00  0.00    +0.000 C 
ATOM      8  C   UNL     1       9.465   0.021  21.472  0.00  0.00    +0.002 C 
ATOM      9  C   UNL     1      10.258  -1.109  22.134  0.00  0.00    +0.019 C 
ENDBRANCH   2   4
ENDBRANCH   1   2
BRANCH   1  10
ATOM     10  C   UNL     1       7.511  -3.379  22.979  0.00  0.00    +0.040 C 
BRANCH  10  11
ATOM     11  C   UNL     1       7.342  -4.880  22.808  0.00  0.00    +0.199 C 
BRANCH  11  12
ATOM     12  S   UNL     1       5.789  -5.216  21.972  0.00  0.00    +0.080 S 
ATOM     13  O   UNL     1       4.778  -4.281  22.399  0.00  0.00    -0.147 OA
ATOM     14  O   UNL     1       6.025  -5.503  20.571  0.00  0.00    -0.147 OA
BRANCH  12  15
ATOM     15  O   UNL     1       5.442  -6.625  22.674  0.00  0.00    -0.254 OA
ATOM     16  H   UNL     1       6.268  -6.973  23.080  0.00  0.00    +0.244 HD
ENDBRANCH  12  15
ENDBRANCH  11  12
ENDBRANCH  10  11
ENDBRANCH   1  10
TORSDOF 6
ENDMDL
MODEL 4
REMARK VINA RESULT:      -4.8      2.702      2.976
REMARK  Name = 
REMARK  6 active torsions:
REMARK  status: ('A' for Active; 'I' for Inactive)
REMARK    1  A    between atoms: O_1  and  S_2
REMARK    2  A    between atoms: S_2  and  C_5
REMARK    3  A    between atoms: C_5  and  C_6
REMARK    4  A    between atoms: C_6  and  C_7
REMARK    5  A    between atoms: C_7  and  N_8
REMARK    6  A    between atoms: N_8  and  C_9
REMARK                            x       y       z     vdW  Elec       q    Type
REMARK                         _______ _______ _______ _____ _____    ______ ____
ROOT
ATOM      1  C   UNL     1       8.493  -1.914  25.404  0.00  0.00    +0.083 C 
ENDROOT
BRANCH   1   2
ATOM      2  N   UNL     1       8.714  -1.063  24.244  0.00  0.00    -0.313 NA
ATOM      3  H   UNL     1       8.222  -0.182  24.362  0.00  0.00    +0.122 HD
BRANCH   2   4
ATOM      4  C   UNL     1      10.094  -0.838  23.814  0.00  0.00    +0.054 C 
ATOM      5  C   UNL     1      10.722   0.497  24.248  0.00  0.00    +0.019 C 
ATOM      6  C   UNL     1      10.113   1.726  23.568  0.00  0.00    +0.002 C 
ATOM      7  C   UNL     1      10.027   1.585  22.050  0.00  0.00    +0.000 C 
ATOM      8  C   UNL     1       9.375   0.275  21.628  0.00  0.00    +0.002 C 
ATOM      9  C   UNL     1      10.086  -0.919  22.272  0.00  0.00    +0.019 C 
ENDBRANCH   2   4
ENDBRANCH   1   2
BRANCH   1  10
ATOM     10  C   UNL     1       8.004  -3.249  24.832  0.00  0.00    +0.040 C 
BRANCH  10  11
ATOM     11  C   UNL     1       6.523  -3.268  24.486  0.00  0.00    +0.199 C 
BRANCH  11  12
ATOM     12  S   UNL     1       6.318  -2.994  22.723  0.00  0.00    +0.080 S 
ATOM     13  O   UNL     1       7.563  -3.221  22.033  0.00  0.00    -0.147 OA
ATOM     14  O   UNL     1       5.071  -3.574  22.268  0.00  0.00    -0.147 OA
BRANCH  12  15
ATOM     15  O   UNL     1       6.092  -1.398  22.757  0.00  0.00    -0.254 OA
ATOM     16  H   UNL     1       6.627  -1.001  22.033  0.00  0.00    +0.244 HD
ENDBRANCH  12  15
ENDBRANCH  11  12
ENDBRANCH  10  11
ENDBRANCH   1  10
TORSDOF 6
ENDMDL
MODEL 5
REMARK VINA RESULT:      -4.5      1.358      2.261
REMARK  Name = 
REMARK  6 active torsions:
REMARK  status: ('A' for Active; 'I' for Inactive)
REMARK    1  A    between atoms: O_1  and  S_2
REMARK    2  A    between atoms: S_2  and  C_5
REMARK    3  A    between atoms: C_5  and  C_6
REMARK    4  A    between atoms: C_6  and  C_7
REMARK    5  A    between atoms: C_7  and  N_8
REMARK    6  A    between atoms: N_8  and  C_9
REMARK                            x       y       z     vdW  Elec       q    Type
REMARK                         _______ _______ _______ _____ _____    ______ ____
ROOT
ATOM      1  C   UNL     1       7.846  -2.024  23.795  0.00  0.00    +0.083 C 
ENDROOT
BRANCH   1   2
ATOM      2  N   UNL     1       8.670  -0.834  23.639  0.00  0.00    -0.313 NA
ATOM      3  H   UNL     1       9.514  -1.063  23.120  0.00  0.00    +0.122 HD
BRANCH   2   4
ATOM      4  C   UNL     1       8.037   0.371  23.104  0.00  0.00    +0.054 C 
ATOM      5  C   UNL     1       8.650   0.931  21.809  0.00  0.00    +0.019 C 
ATOM      6  C   UNL     1      10.051   1.519  21.982  0.00  0.00    +0.002 C 
ATOM      7  C   UNL     1      10.145   2.502  23.146  0.00  0.00    +0.000 C 
ATOM      8  C   UNL     1       9.566   1.929  24.434  0.00  0.00    +0.002 C 
ATOM      9  C   UNL     1       8.131   1.439  24.214  0.00  0.00    +0.019 C 
ENDBRANCH   2   4
ENDBRANCH   1   2
BRANCH   1  10
ATOM     10  C   UNL     1       8.839  -3.186  23.903  0.00  0.00    +0.040 C 
BRANCH  10  11
ATOM     11  C   UNL     1       8.195  -4.521  24.240  0.00  0.00    +0.199 C 
BRANCH  11  12
ATOM     12  S   UNL     1       8.584  -4.962  25.936  0.00  0.00    +0.080 S 
ATOM     13  O   UNL     1       8.978  -3.792  26.680  0.00  0.00    -0.147 OA
ATOM     14  O   UNL     1       7.607  -5.902  26.446  0.00  0.00    -0.147 OA
BRANCH  12  15
ATOM     15  O   UNL     1       9.928  -5.808  25.659  0.00  0.00    -0.254 OA
ATOM     16  H   UNL     1      10.474  -5.787  26.477  0.00  0.00    +0.244 HD
ENDBRANCH  12  15
ENDBRANCH  11  12
ENDBRANCH  10  11
ENDBRANCH   1  10
TORSDOF 6
ENDMDL
MODEL 6
REMARK VINA RESULT:      -4.5      3.886      5.521
REMARK  Name = 
REMARK  6 active torsions:
REMARK  status: ('A' for Active; 'I' for Inactive)
REMARK    1  A    between atoms: O_1  and  S_2
REMARK    2  A    between atoms: S_2  and  C_5
REMARK    3  A    between atoms: C_5  and  C_6
REMARK    4  A    between atoms: C_6  and  C_7
REMARK    5  A    between atoms: C_7  and  N_8
REMARK    6  A    between atoms: N_8  and  C_9
REMARK                            x       y       z     vdW  Elec       q    Type
REMARK                         _______ _______ _______ _____ _____    ______ ____
ROOT
ATOM      1  C   UNL     1       9.590  -0.234  25.437  0.00  0.00    +0.083 C 
ENDROOT
BRANCH   1   2
ATOM      2  N   UNL     1       9.530  -1.400  24.569  0.00  0.00    -0.313 NA
ATOM      3  H   UNL     1      10.457  -1.805  24.468  0.00  0.00    +0.122 HD
BRANCH   2   4
ATOM      4  C   UNL     1       8.539  -2.431  24.875  0.00  0.00    +0.054 C 
ATOM      5  C   UNL     1       8.422  -3.573  23.851  0.00  0.00    +0.019 C 
ATOM      6  C   UNL     1       7.836  -3.148  22.503  0.00  0.00    +0.002 C 
ATOM      7  C   UNL     1       6.542  -2.351  22.640  0.00  0.00    +0.000 C 
ATOM      8  C   UNL     1       6.675  -1.201  23.631  0.00  0.00    +0.002 C 
ATOM      9  C   UNL     1       7.180  -1.707  24.986  0.00  0.00    +0.019 C 
ENDBRANCH   2   4
ENDBRANCH   1   2
BRANCH   1  10
ATOM     10  C   UNL     1      10.299   0.843  24.610  0.00  0.00    +0.040 C 
BRANCH  10  11
ATOM     11  C   UNL     1       9.355   1.763  23.852  0.00  0.00    +0.199 C 
BRANCH  11  12
ATOM     12  S   UNL     1       9.272   1.250  22.133  0.00  0.00    +0.080 S 
ATOM     13  O   UNL     1       9.920  -0.027  21.960  0.00  0.00    -0.147 OA
ATOM     14  O   UNL     1       7.956   1.522  21.592  0.00  0.00    -0.147 OA
BRANCH  12  15
ATOM     15  O   UNL     1      10.261   2.358  21.507  0.00  0.00    -0.254 OA
ATOM     16  H   UNL     1      11.010   1.888  21.075  0.00  0.00    +0.244 HD
ENDBRANCH  12  15
ENDBRANCH  11  12
ENDBRANCH  10  11
ENDBRANCH   1  10
TORSDOF 6
ENDMDL
MODEL 7
REMARK VINA RESULT:      -4.3      1.358      2.180
REMARK  Name = 
REMARK  6 active torsions:
REMARK  status: ('A' for Active; 'I' for Inactive)
REMARK    1  A    between atoms: O_1  and  S_2
REMARK    2  A    between atoms: S_2  and  C_5
REMARK    3  A    between atoms: C_5  and  C_6
REMARK    4  A    between atoms: C_6  and  C_7
REMARK    5  A    between atoms: C_7  and  N_8
REMARK    6  A    between atoms: N_8  and  C_9
REMARK                            x       y       z     vdW  Elec       q    Type
REMARK                         _______ _______ _______ _____ _____    ______ ____
ROOT
ATOM      1  C   UNL     1       7.345  -3.201  22.371  0.00  0.00    +0.083 C 
ENDROOT
BRANCH   1   2
ATOM      2  N   UNL     1       8.558  -2.546  22.836  0.00  0.00    -0.313 NA
ATOM      3  H   UNL     1       9.367  -3.126  22.628  0.00  0.00    +0.122 HD
BRANCH   2   4
ATOM      4  C   UNL     1       8.787  -1.161  22.427  0.00  0.00    +0.054 C 
ATOM      5  C   UNL     1      10.127  -0.545  22.866  0.00  0.00    +0.019 C 
ATOM      6  C   UNL     1      10.246  -0.315  24.374  0.00  0.00    +0.002 C 
ATOM      7  C   UNL     1       9.044   0.421  24.961  0.00  0.00    +0.000 C 
ATOM      8  C   UNL     1       7.721  -0.214  24.548  0.00  0.00    +0.002 C 
ATOM      9  C   UNL     1       7.628  -0.334  23.024  0.00  0.00    +0.019 C 
ENDBRANCH   2   4
ENDBRANCH   1   2
BRANCH   1  10
ATOM     10  C   UNL     1       7.435  -4.634  22.905  0.00  0.00    +0.040 C 
BRANCH  10  11
ATOM     11  C   UNL     1       6.923  -4.797  24.328  0.00  0.00    +0.199 C 
BRANCH  11  12
ATOM     12  S   UNL     1       8.309  -5.067  25.436  0.00  0.00    +0.080 S 
ATOM     13  O   UNL     1       7.866  -5.717  26.644  0.00  0.00    -0.147 OA
ATOM     14  O   UNL     1       9.462  -5.534  24.692  0.00  0.00    -0.147 OA
BRANCH  12  15
ATOM     15  O   UNL     1       8.607  -3.531  25.821  0.00  0.00    -0.254 OA
ATOM     16  H   UNL     1       8.658  -3.468  26.801  0.00  0.00    +0.244 HD
ENDBRANCH  12  15
ENDBRANCH  11  12
ENDBRANCH  10  11
ENDBRANCH   1  10
TORSDOF 6
ENDMDL
MODEL 8
REMARK VINA RESULT:      -4.3      2.198      2.964
REMARK  Name = 
REMARK  6 active torsions:
REMARK  status: ('A' for Active; 'I' for Inactive)
REMARK    1  A    between atoms: O_1  and  S_2
REMARK    2  A    between atoms: S_2  and  C_5
REMARK    3  A    between atoms: C_5  and  C_6
REMARK    4  A    between atoms: C_6  and  C_7
REMARK    5  A    between atoms: C_7  and  N_8
REMARK    6  A    between atoms: N_8  and  C_9
REMARK                            x       y       z     vdW  Elec       q    Type
REMARK                         _______ _______ _______ _____ _____    ______ ____
ROOT
ATOM      1  C   UNL     1       6.592  -1.190  23.626  0.00  0.00    +0.083 C 
ENDROOT
BRANCH   1   2
ATOM      2  N   UNL     1       7.724  -0.519  23.007  0.00  0.00    -0.313 NA
ATOM      3  H   UNL     1       8.025  -1.035  22.184  0.00  0.00    +0.122 HD
BRANCH   2   4
ATOM      4  C   UNL     1       7.597   0.907  22.711  0.00  0.00    +0.054 C 
ATOM      5  C   UNL     1       8.525   1.450  21.611  0.00  0.00    +0.019 C 
ATOM      6  C   UNL     1      10.005   1.472  21.996  0.00  0.00    +0.002 C 
ATOM      7  C   UNL     1      10.259   2.128  23.350  0.00  0.00    +0.000 C 
ATOM      8  C   UNL     1       9.359   1.563  24.443  0.00  0.00    +0.002 C 
ATOM      9  C   UNL     1       7.886   1.652  24.032  0.00  0.00    +0.019 C 
ENDBRANCH   2   4
ENDBRANCH   1   2
BRANCH   1  10
ATOM     10  C   UNL     1       6.370  -2.454  22.789  0.00  0.00    +0.040 C 
BRANCH  10  11
ATOM     11  C   UNL     1       7.635  -3.262  22.542  0.00  0.00    +0.199 C 
BRANCH  11  12
ATOM     12  S   UNL     1       7.475  -4.875  23.314  0.00  0.00    +0.080 S 
ATOM     13  O   UNL     1       8.706  -5.240  23.970  0.00  0.00    -0.147 OA
ATOM     14  O   UNL     1       6.191  -4.990  23.974  0.00  0.00    -0.147 OA
BRANCH  12  15
ATOM     15  O   UNL     1       7.382  -5.770  21.976  0.00  0.00    -0.254 OA
ATOM     16  H   UNL     1       8.103  -6.438  22.007  0.00  0.00    +0.244 HD
ENDBRANCH  12  15
ENDBRANCH  11  12
ENDBRANCH  10  11
ENDBRANCH   1  10
TORSDOF 6
ENDMDL
MODEL 9
REMARK VINA RESULT:      -4.2      3.045      3.513
REMARK  Name = 
REMARK  6 active torsions:
REMARK  status: ('A' for Active; 'I' for Inactive)
REMARK    1  A    between atoms: O_1  and  S_2
REMARK    2  A    between atoms: S_2  and  C_5
REMARK    3  A    between atoms: C_5  and  C_6
REMARK    4  A    between atoms: C_6  and  C_7
REMARK    5  A    between atoms: C_7  and  N_8
REMARK    6  A    between atoms: N_8  and  C_9
REMARK                            x       y       z     vdW  Elec       q    Type
REMARK                         _______ _______ _______ _____ _____    ______ ____
ROOT
ATOM      1  C   UNL     1       8.396  -2.549  22.883  0.00  0.00    +0.083 C 
ENDROOT
BRANCH   1   2
ATOM      2  N   UNL     1       8.824  -1.292  22.288  0.00  0.00    -0.313 NA
ATOM      3  H   UNL     1       8.770  -1.352  21.275  0.00  0.00    +0.122 HD
BRANCH   2   4
ATOM      4  C   UNL     1       8.203  -0.060  22.773  0.00  0.00    +0.054 C 
ATOM      5  C   UNL     1       8.490   1.206  21.946  0.00  0.00    +0.019 C 
ATOM      6  C   UNL     1       9.941   1.687  22.021  0.00  0.00    +0.002 C 
ATOM      7  C   UNL     1      10.460   1.793  23.452  0.00  0.00    +0.000 C 
ATOM      8  C   UNL     1      10.202   0.525  24.256  0.00  0.00    +0.002 C 
ATOM      9  C   UNL     1       8.718   0.148  24.214  0.00  0.00    +0.019 C 
ENDBRANCH   2   4
ENDBRANCH   1   2
BRANCH   1  10
ATOM     10  C   UNL     1       6.865  -2.512  22.838  0.00  0.00    +0.040 C 
BRANCH  10  11
ATOM     11  C   UNL     1       6.199  -3.761  23.393  0.00  0.00    +0.199 C 
BRANCH  11  12
ATOM     12  S   UNL     1       5.759  -4.856  22.039  0.00  0.00    +0.080 S 
ATOM     13  O   UNL     1       4.627  -5.671  22.403  0.00  0.00    -0.147 OA
ATOM     14  O   UNL     1       5.818  -4.144  20.779  0.00  0.00    -0.147 OA
BRANCH  12  15
ATOM     15  O   UNL     1       7.053  -5.816  22.082  0.00  0.00    -0.254 OA
ATOM     16  H   UNL     1       6.739  -6.748  22.098  0.00  0.00    +0.244 HD
ENDBRANCH  12  15
ENDBRANCH  11  12
ENDBRANCH  10  11
ENDBRANCH   1  10
TORSDOF 6
ENDMDL
