MODEL 1
REMARK VINA RESULT:      -7.9      0.000      0.000
REMARK  Name = 
REMARK  11 active torsions:
REMARK  status: ('A' for Active; 'I' for Inactive)
REMARK    1  A    between atoms: C_1  and  C_2
REMARK    2  A    between atoms: C_2  and  N_4
REMARK    3  A    between atoms: C_2  and  C_36
REMARK    4  A    between atoms: C_5  and  C_7
REMARK    5  A    between atoms: C_13  and  C_15
REMARK    6  A    between atoms: C_21  and  C_23
REMARK    7  A    between atoms: C_23  and  O_25
REMARK    8  A    between atoms: C_23  and  C_26
REMARK    9  A    between atoms: C_26  and  N_28
REMARK   10  A    between atoms: C_26  and  C_29
REMARK   11  A    between atoms: C_29  and  C_30
REMARK                            x       y       z     vdW  Elec       q    Type
REMARK                         _______ _______ _______ _____ _____    ______ ____
ROOT
ATOM      1  C   UNL     1       9.271  -0.543  24.478  0.00  0.00    +0.162 C 
ATOM      2  N   UNL     1       9.165  -1.983  24.803  0.00  0.00    -0.288 N 
ATOM      3  C   UNL     1       8.694  -2.448  26.021  0.00  0.00    +0.246 C 
ATOM      4  O   UNL     1       8.557  -1.693  26.988  0.00  0.00    -0.273 OA
ATOM      5  C   UNL     1       9.493  -2.805  23.642  0.00  0.00    +0.109 C 
ATOM      6  C   UNL     1       9.817  -1.809  22.540  0.00  0.00    +0.021 C 
ATOM      7  C   UNL     1      10.269  -0.585  23.326  0.00  0.00    +0.033 C 
ENDROOT
BRANCH   1  10
ATOM      8  C   UNL     1       8.399   2.107  22.866  0.00  0.00    +0.162 C 
ATOM      9  N   UNL     1       7.532   1.177  23.602  0.00  0.00    -0.288 N 
ATOM     10  C   UNL     1       7.815  -0.050  24.167  0.00  0.00    +0.237 C 
ATOM     11  O   UNL     1       6.847  -0.726  24.534  0.00  0.00    -0.274 OA
ATOM     12  C   UNL     1       6.133   1.581  23.487  0.00  0.00    +0.109 C 
ATOM     13  C   UNL     1       6.145   2.922  22.774  0.00  0.00    +0.021 C 
ATOM     14  C   UNL     1       7.432   2.878  21.968  0.00  0.00    +0.033 C 
BRANCH   8  17
ATOM     15  N   UNL     1      10.238   3.682  23.188  0.00  0.00    -0.303 N 
ATOM     16  H   UNL     1      10.478   3.372  22.261  0.00  0.00    +0.149 HD
ATOM     17  C   UNL     1       9.195   3.031  23.806  0.00  0.00    +0.234 C 
ATOM     18  O   UNL     1       8.910   3.170  24.990  0.00  0.00    -0.274 OA
BRANCH  15  20
ATOM     19  C   UNL     1      12.323   4.961  23.054  0.00  0.00    +0.038 C 
ATOM     20  C   UNL     1      11.039   4.720  23.829  0.00  0.00    +0.156 C 
BRANCH  20  21
ATOM     21  C   UNL     1      10.229   6.024  23.947  0.00  0.00    +0.231 C 
ATOM     22  O   UNL     1      10.422   6.844  24.838  0.00  0.00    -0.274 OA
ATOM     23  N   UNL     1       9.374   6.332  22.921  0.00  0.00    -0.328 N 
ATOM     24  H   UNL     1       8.806   7.162  23.029  0.00  0.00    +0.145 HD
ATOM     25  H   UNL     1       9.135   5.733  22.148  0.00  0.00    +0.145 HD
ENDBRANCH  20  21
ENDBRANCH  15  20
ENDBRANCH   8  17
ENDBRANCH   1  10
BRANCH   3  26
ATOM     26  C   UNL     1       8.404  -3.978  26.095  0.00  0.00    +0.217 C 
BRANCH  26  27
ATOM     27  O   UNL     1       9.332  -4.604  27.007  0.00  0.00    -0.381 OA
ATOM     28  H   UNL     1       8.804  -5.027  27.705  0.00  0.00    +0.210 HD
ENDBRANCH  26  27
BRANCH  26  29
ATOM     29  C   UNL     1       6.957  -4.357  26.522  0.00  0.00    +0.093 C 
BRANCH  29  30
ATOM     30  N   UNL     1       6.991  -5.033  27.846  0.00  0.00    -0.324 NA
ATOM     31  H   UNL     1       6.257  -4.630  28.431  0.00  0.00    +0.119 HD
ATOM     32  H   UNL     1       6.814  -6.027  27.746  0.00  0.00    +0.119 HD
ENDBRANCH  29  30
BRANCH  29  33
ATOM     33  C   UNL     1       6.164  -5.225  25.509  0.00  0.00    +0.056 C 
BRANCH  33  34
ATOM     34  C   UNL     1       6.212  -4.761  24.072  0.00  0.00    -0.046 A 
ATOM     35  C   UNL     1       6.911  -5.502  23.113  0.00  0.00    +0.004 A 
ATOM     36  C   UNL     1       6.895  -5.136  21.770  0.00  0.00    +0.000 A 
ATOM     37  C   UNL     1       6.196  -4.003  21.366  0.00  0.00    +0.000 A 
ATOM     38  C   UNL     1       5.527  -3.230  22.314  0.00  0.00    +0.000 A 
ATOM     39  C   UNL     1       5.535  -3.607  23.660  0.00  0.00    +0.004 A 
ENDBRANCH  33  34
ENDBRANCH  29  33
ENDBRANCH  26  29
ENDBRANCH   3  26
TORSDOF 10
ENDMDL
MODEL 2
REMARK VINA RESULT:      -7.3      1.808      2.653
REMARK  Name = 
REMARK  11 active torsions:
REMARK  status: ('A' for Active; 'I' for Inactive)
REMARK    1  A    between atoms: C_1  and  C_2
REMARK    2  A    between atoms: C_2  and  N_4
REMARK    3  A    between atoms: C_2  and  C_36
REMARK    4  A    between atoms: C_5  and  C_7
REMARK    5  A    between atoms: C_13  and  C_15
REMARK    6  A    between atoms: C_21  and  C_23
REMARK    7  A    between atoms: C_23  and  O_25
REMARK    8  A    between atoms: C_23  and  C_26
REMARK    9  A    between atoms: C_26  and  N_28
REMARK   10  A    between atoms: C_26  and  C_29
REMARK   11  A    between atoms: C_29  and  C_30
REMARK                            x       y       z     vdW  Elec       q    Type
REMARK                         _______ _______ _______ _____ _____    ______ ____
ROOT
ATOM      1  C   UNL     1       9.219   0.515  23.438  0.00  0.00    +0.162 C 
ATOM      2  N   UNL     1       9.238  -0.957  23.282  0.00  0.00    -0.288 N 
ATOM      3  C   UNL     1       9.058  -1.831  24.344  0.00  0.00    +0.246 C 
ATOM      4  O   UNL     1       9.105  -1.438  25.513  0.00  0.00    -0.273 OA
ATOM      5  C   UNL     1       9.338  -1.331  21.874  0.00  0.00    +0.109 C 
ATOM      6  C   UNL     1       9.381  -0.009  21.124  0.00  0.00    +0.021 C 
ATOM      7  C   UNL     1       9.946   0.944  22.168  0.00  0.00    +0.033 C 
ENDROOT
BRANCH   1  10
ATOM      8  C   UNL     1       7.878   3.360  22.741  0.00  0.00    +0.162 C 
ATOM      9  N   UNL     1       7.253   2.213  23.414  0.00  0.00    -0.288 N 
ATOM     10  C   UNL     1       7.713   0.924  23.592  0.00  0.00    +0.237 C 
ATOM     11  O   UNL     1       6.890   0.096  24.000  0.00  0.00    -0.274 OA
ATOM     12  C   UNL     1       5.854   2.499  23.720  0.00  0.00    +0.109 C 
ATOM     13  C   UNL     1       5.639   3.959  23.361  0.00  0.00    +0.021 C 
ATOM     14  C   UNL     1       6.692   4.216  22.295  0.00  0.00    +0.033 C 
BRANCH   8  17
ATOM     15  N   UNL     1       9.445   5.205  23.063  0.00  0.00    -0.303 N 
ATOM     16  H   UNL     1       9.335   5.286  22.066  0.00  0.00    +0.149 HD
ATOM     17  C   UNL     1       8.843   4.126  23.665  0.00  0.00    +0.234 C 
ATOM     18  O   UNL     1       9.040   3.795  24.830  0.00  0.00    -0.274 OA
BRANCH  15  20
ATOM     19  C   UNL     1       9.724   6.430  25.167  0.00  0.00    +0.038 C 
ATOM     20  C   UNL     1      10.278   6.170  23.776  0.00  0.00    +0.156 C 
BRANCH  20  21
ATOM     21  C   UNL     1      11.729   5.666  23.860  0.00  0.00    +0.231 C 
ATOM     22  O   UNL     1      12.117   4.666  23.264  0.00  0.00    -0.274 OA
ATOM     23  N   UNL     1      12.639   6.463  24.504  0.00  0.00    -0.328 N 
ATOM     24  H   UNL     1      13.578   6.101  24.602  0.00  0.00    +0.145 HD
ATOM     25  H   UNL     1      12.431   7.296  25.029  0.00  0.00    +0.145 HD
ENDBRANCH  20  21
ENDBRANCH  15  20
ENDBRANCH   8  17
ENDBRANCH   1  10
BRANCH   3  26
ATOM     26  C   UNL     1       8.847  -3.326  23.961  0.00  0.00    +0.217 C 
BRANCH  26  27
ATOM     27  O   UNL     1       9.827  -4.144  24.639  0.00  0.00    -0.381 OA
ATOM     28  H   UNL     1      10.448  -4.463  23.963  0.00  0.00    +0.210 HD
ENDBRANCH  26  27
BRANCH  26  29
ATOM     29  C   UNL     1       7.431  -3.894  24.267  0.00  0.00    +0.093 C 
BRANCH  29  30
ATOM     30  N   UNL     1       6.482  -2.771  24.483  0.00  0.00    -0.324 NA
ATOM     31  H   UNL     1       5.556  -3.068  24.168  0.00  0.00    +0.119 HD
ATOM     32  H   UNL     1       6.426  -2.532  25.467  0.00  0.00    +0.119 HD
ENDBRANCH  29  30
BRANCH  29  33
ATOM     33  C   UNL     1       7.349  -4.887  25.456  0.00  0.00    +0.056 C 
BRANCH  33  34
ATOM     34  C   UNL     1       6.093  -5.725  25.524  0.00  0.00    -0.046 A 
ATOM     35  C   UNL     1       5.550  -6.085  26.761  0.00  0.00    +0.004 A 
ATOM     36  C   UNL     1       4.348  -6.784  26.843  0.00  0.00    +0.000 A 
ATOM     37  C   UNL     1       3.682  -7.158  25.681  0.00  0.00    +0.000 A 
ATOM     38  C   UNL     1       4.229  -6.843  24.438  0.00  0.00    +0.000 A 
ATOM     39  C   UNL     1       5.429  -6.131  24.360  0.00  0.00    +0.004 A 
ENDBRANCH  33  34
ENDBRANCH  29  33
ENDBRANCH  26  29
ENDBRANCH   3  26
TORSDOF 10
ENDMDL
MODEL 3
REMARK VINA RESULT:      -7.2      2.283      9.255
REMARK  Name = 
REMARK  11 active torsions:
REMARK  status: ('A' for Active; 'I' for Inactive)
REMARK    1  A    between atoms: C_1  and  C_2
REMARK    2  A    between atoms: C_2  and  N_4
REMARK    3  A    between atoms: C_2  and  C_36
REMARK    4  A    between atoms: C_5  and  C_7
REMARK    5  A    between atoms: C_13  and  C_15
REMARK    6  A    between atoms: C_21  and  C_23
REMARK    7  A    between atoms: C_23  and  O_25
REMARK    8  A    between atoms: C_23  and  C_26
REMARK    9  A    between atoms: C_26  and  N_28
REMARK   10  A    between atoms: C_26  and  C_29
REMARK   11  A    between atoms: C_29  and  C_30
REMARK                            x       y       z     vdW  Elec       q    Type
REMARK                         _______ _______ _______ _____ _____    ______ ____
ROOT
ATOM      1  C   UNL     1       7.897  -1.262  22.827  0.00  0.00    +0.162 C 
ATOM      2  N   UNL     1       8.127   0.179  22.578  0.00  0.00    -0.288 N 
ATOM      3  C   UNL     1       7.358   1.177  23.157  0.00  0.00    +0.246 C 
ATOM      4  O   UNL     1       6.293   0.919  23.727  0.00  0.00    -0.273 OA
ATOM      5  C   UNL     1       9.324   0.384  21.768  0.00  0.00    +0.109 C 
ATOM      6  C   UNL     1       9.860  -1.015  21.507  0.00  0.00    +0.021 C 
ATOM      7  C   UNL     1       8.608  -1.873  21.625  0.00  0.00    +0.033 C 
ENDROOT
BRANCH   1  10
ATOM      8  C   UNL     1       7.818  -4.057  24.426  0.00  0.00    +0.162 C 
ATOM      9  N   UNL     1       8.264  -2.749  24.925  0.00  0.00    -0.288 N 
ATOM     10  C   UNL     1       8.478  -1.563  24.253  0.00  0.00    +0.237 C 
ATOM     11  O   UNL     1       9.068  -0.673  24.876  0.00  0.00    -0.274 OA
ATOM     12  C   UNL     1       8.739  -2.861  26.302  0.00  0.00    +0.109 C 
ATOM     13  C   UNL     1       8.424  -4.282  26.736  0.00  0.00    +0.021 C 
ATOM     14  C   UNL     1       8.406  -5.053  25.427  0.00  0.00    +0.033 C 
BRANCH   8  17
ATOM     15  N   UNL     1       5.812  -5.445  24.299  0.00  0.00    -0.303 N 
ATOM     16  H   UNL     1       6.496  -6.172  24.171  0.00  0.00    +0.149 HD
ATOM     17  C   UNL     1       6.283  -4.154  24.331  0.00  0.00    +0.234 C 
ATOM     18  O   UNL     1       5.562  -3.162  24.296  0.00  0.00    -0.274 OA
BRANCH  15  20
ATOM     19  C   UNL     1       3.837  -6.026  22.970  0.00  0.00    +0.038 C 
ATOM     20  C   UNL     1       4.395  -5.792  24.364  0.00  0.00    +0.156 C 
BRANCH  20  21
ATOM     21  C   UNL     1       4.189  -7.039  25.241  0.00  0.00    +0.231 C 
ATOM     22  O   UNL     1       3.507  -7.994  24.884  0.00  0.00    -0.274 OA
ATOM     23  N   UNL     1       4.928  -7.132  26.392  0.00  0.00    -0.328 N 
ATOM     24  H   UNL     1       4.749  -7.928  26.990  0.00  0.00    +0.145 HD
ATOM     25  H   UNL     1       5.512  -6.411  26.782  0.00  0.00    +0.145 HD
ENDBRANCH  20  21
ENDBRANCH  15  20
ENDBRANCH   8  17
ENDBRANCH   1  10
BRANCH   3  26
ATOM     26  C   UNL     1       7.900   2.629  22.996  0.00  0.00    +0.217 C 
BRANCH  26  27
ATOM     27  O   UNL     1       6.800   3.534  22.751  0.00  0.00    -0.381 OA
ATOM     28  H   UNL     1       6.182   3.076  22.157  0.00  0.00    +0.210 HD
ENDBRANCH  26  27
BRANCH  26  29
ATOM     29  C   UNL     1       8.724   3.166  24.202  0.00  0.00    +0.093 C 
BRANCH  29  30
ATOM     30  N   UNL     1       8.354   2.414  25.430  0.00  0.00    -0.324 NA
ATOM     31  H   UNL     1       8.164   1.445  25.167  0.00  0.00    +0.119 HD
ATOM     32  H   UNL     1       9.116   2.423  26.099  0.00  0.00    +0.119 HD
ENDBRANCH  29  30
BRANCH  29  33
ATOM     33  C   UNL     1       8.612   4.690  24.465  0.00  0.00    +0.056 C 
BRANCH  33  34
ATOM     34  C   UNL     1       9.924   5.436  24.563  0.00  0.00    -0.046 A 
ATOM     35  C   UNL     1      10.082   6.468  25.493  0.00  0.00    +0.004 A 
ATOM     36  C   UNL     1      11.308   7.108  25.656  0.00  0.00    +0.000 A 
ATOM     37  C   UNL     1      12.393   6.740  24.868  0.00  0.00    +0.000 A 
ATOM     38  C   UNL     1      12.243   5.741  23.908  0.00  0.00    +0.000 A 
ATOM     39  C   UNL     1      11.015   5.092  23.756  0.00  0.00    +0.004 A 
ENDBRANCH  33  34
ENDBRANCH  29  33
ENDBRANCH  26  29
ENDBRANCH   3  26
TORSDOF 10
ENDMDL
MODEL 4
REMARK VINA RESULT:      -6.9      3.328      9.120
REMARK  Name = 
REMARK  11 active torsions:
REMARK  status: ('A' for Active; 'I' for Inactive)
REMARK    1  A    between atoms: C_1  and  C_2
REMARK    2  A    between atoms: C_2  and  N_4
REMARK    3  A    between atoms: C_2  and  C_36
REMARK    4  A    between atoms: C_5  and  C_7
REMARK    5  A    between atoms: C_13  and  C_15
REMARK    6  A    between atoms: C_21  and  C_23
REMARK    7  A    between atoms: C_23  and  O_25
REMARK    8  A    between atoms: C_23  and  C_26
REMARK    9  A    between atoms: C_26  and  N_28
REMARK   10  A    between atoms: C_26  and  C_29
REMARK   11  A    between atoms: C_29  and  C_30
REMARK                            x       y       z     vdW  Elec       q    Type
REMARK                         _______ _______ _______ _____ _____    ______ ____
ROOT
ATOM      1  C   UNL     1       7.631  -4.549  24.140  0.00  0.00    +0.162 C 
ATOM      2  N   UNL     1       8.542  -3.482  23.669  0.00  0.00    -0.288 N 
ATOM      3  C   UNL     1       8.187  -2.564  22.691  0.00  0.00    +0.246 C 
ATOM      4  O   UNL     1       7.183  -2.727  21.992  0.00  0.00    -0.273 OA
ATOM      5  C   UNL     1       9.772  -3.460  24.456  0.00  0.00    +0.109 C 
ATOM      6  C   UNL     1       9.603  -4.581  25.470  0.00  0.00    +0.021 C 
ATOM      7  C   UNL     1       8.629  -5.517  24.766  0.00  0.00    +0.033 C 
ENDROOT
BRANCH   1  10
ATOM      8  C   UNL     1       5.233  -5.948  25.774  0.00  0.00    +0.162 C 
ATOM      9  N   UNL     1       5.501  -4.511  25.627  0.00  0.00    -0.288 N 
ATOM     10  C   UNL     1       6.590  -3.858  25.087  0.00  0.00    +0.237 C 
ATOM     11  O   UNL     1       6.660  -2.639  25.292  0.00  0.00    -0.274 OA
ATOM     12  C   UNL     1       4.526  -3.729  26.382  0.00  0.00    +0.109 C 
ATOM     13  C   UNL     1       3.502  -4.725  26.898  0.00  0.00    +0.021 C 
ATOM     14  C   UNL     1       4.285  -6.025  26.972  0.00  0.00    +0.033 C 
BRANCH   8  17
ATOM     15  N   UNL     1       3.345  -7.042  24.674  0.00  0.00    -0.303 N 
ATOM     16  H   UNL     1       3.010  -7.099  25.621  0.00  0.00    +0.149 HD
ATOM     17  C   UNL     1       4.623  -6.563  24.500  0.00  0.00    +0.234 C 
ATOM     18  O   UNL     1       5.230  -6.607  23.435  0.00  0.00    -0.274 OA
BRANCH  15  20
ATOM     19  C   UNL     1       1.531  -8.579  24.084  0.00  0.00    +0.038 C 
ATOM     20  C   UNL     1       2.507  -7.528  23.582  0.00  0.00    +0.156 C 
BRANCH  20  21
ATOM     21  C   UNL     1       1.749  -6.359  22.928  0.00  0.00    +0.231 C 
ATOM     22  O   UNL     1       2.190  -5.214  22.908  0.00  0.00    -0.274 OA
ATOM     23  N   UNL     1       0.619  -6.659  22.215  0.00  0.00    -0.328 N 
ATOM     24  H   UNL     1       0.096  -5.882  21.833  0.00  0.00    +0.145 HD
ATOM     25  H   UNL     1       0.167  -7.557  22.169  0.00  0.00    +0.145 HD
ENDBRANCH  20  21
ENDBRANCH  15  20
ENDBRANCH   8  17
ENDBRANCH   1  10
BRANCH   3  26
ATOM     26  C   UNL     1       9.160  -1.361  22.509  0.00  0.00    +0.217 C 
BRANCH  26  27
ATOM     27  O   UNL     1       9.553  -1.261  21.122  0.00  0.00    -0.381 OA
ATOM     28  H   UNL     1       8.780  -1.509  20.588  0.00  0.00    +0.210 HD
ENDBRANCH  26  27
BRANCH  26  29
ATOM     29  C   UNL     1       8.601   0.018  22.965  0.00  0.00    +0.093 C 
BRANCH  29  30
ATOM     30  N   UNL     1       7.222  -0.157  23.494  0.00  0.00    -0.324 NA
ATOM     31  H   UNL     1       6.767  -0.903  22.965  0.00  0.00    +0.119 HD
ATOM     32  H   UNL     1       7.245  -0.425  24.473  0.00  0.00    +0.119 HD
ENDBRANCH  29  30
BRANCH  29  33
ATOM     33  C   UNL     1       8.613   1.136  21.891  0.00  0.00    +0.056 C 
BRANCH  33  34
ATOM     34  C   UNL     1       8.367   2.537  22.401  0.00  0.00    -0.046 A 
ATOM     35  C   UNL     1       9.251   3.121  23.315  0.00  0.00    +0.004 A 
ATOM     36  C   UNL     1       9.088   4.440  23.731  0.00  0.00    +0.000 A 
ATOM     37  C   UNL     1       8.017   5.191  23.256  0.00  0.00    +0.000 A 
ATOM     38  C   UNL     1       7.104   4.612  22.376  0.00  0.00    +0.000 A 
ATOM     39  C   UNL     1       7.278   3.292  21.951  0.00  0.00    +0.004 A 
ENDBRANCH  33  34
ENDBRANCH  29  33
ENDBRANCH  26  29
ENDBRANCH   3  26
TORSDOF 10
ENDMDL
MODEL 5
REMARK VINA RESULT:      -6.8      2.344      3.129
REMARK  Name = 
REMARK  11 active torsions:
REMARK  status: ('A' for Active; 'I' for Inactive)
REMARK    1  A    between atoms: C_1  and  C_2
REMARK    2  A    between atoms: C_2  and  N_4
REMARK    3  A    between atoms: C_2  and  C_36
REMARK    4  A    between atoms: C_5  and  C_7
REMARK    5  A    between atoms: C_13  and  C_15
REMARK    6  A    between atoms: C_21  and  C_23
REMARK    7  A    between atoms: C_23  and  O_25
REMARK    8  A    between atoms: C_23  and  C_26
REMARK    9  A    between atoms: C_26  and  N_28
REMARK   10  A    between atoms: C_26  and  C_29
REMARK   11  A    between atoms: C_29  and  C_30
REMARK                            x       y       z     vdW  Elec       q    Type
REMARK                         _______ _______ _______ _____ _____    ______ ____
ROOT
ATOM      1  C   UNL     1       7.463  -0.401  25.792  0.00  0.00    +0.162 C 
ATOM      2  N   UNL     1       6.492  -1.428  26.233  0.00  0.00    -0.288 N 
ATOM      3  C   UNL     1       5.122  -1.291  26.069  0.00  0.00    +0.246 C 
ATOM      4  O   UNL     1       4.618  -0.207  25.761  0.00  0.00    -0.273 OA
ATOM      5  C   UNL     1       7.179  -2.619  26.724  0.00  0.00    +0.109 C 
ATOM      6  C   UNL     1       8.659  -2.302  26.574  0.00  0.00    +0.021 C 
ATOM      7  C   UNL     1       8.677  -0.781  26.633  0.00  0.00    +0.033 C 
ENDROOT
BRANCH   1  10
ATOM      8  C   UNL     1       9.285   1.351  23.796  0.00  0.00    +0.162 C 
ATOM      9  N   UNL     1       8.268   0.353  23.440  0.00  0.00    -0.288 N 
ATOM     10  C   UNL     1       7.578  -0.540  24.234  0.00  0.00    +0.237 C 
ATOM     11  O   UNL     1       6.940  -1.423  23.648  0.00  0.00    -0.274 OA
ATOM     12  C   UNL     1       8.189   0.197  21.990  0.00  0.00    +0.109 C 
ATOM     13  C   UNL     1       9.094   1.267  21.406  0.00  0.00    +0.021 C 
ATOM     14  C   UNL     1      10.103   1.516  22.515  0.00  0.00    +0.033 C 
BRANCH   8  17
ATOM     15  N   UNL     1       9.104   3.777  23.573  0.00  0.00    -0.303 N 
ATOM     16  H   UNL     1       9.890   3.637  22.960  0.00  0.00    +0.149 HD
ATOM     17  C   UNL     1       8.662   2.678  24.271  0.00  0.00    +0.234 C 
ATOM     18  O   UNL     1       7.844   2.731  25.183  0.00  0.00    -0.274 OA
BRANCH  15  20
ATOM     19  C   UNL     1       9.637   6.169  23.603  0.00  0.00    +0.038 C 
ATOM     20  C   UNL     1       8.548   5.117  23.737  0.00  0.00    +0.156 C 
BRANCH  20  21
ATOM     21  C   UNL     1       7.433   5.364  22.705  0.00  0.00    +0.231 C 
ATOM     22  O   UNL     1       6.280   4.983  22.875  0.00  0.00    -0.274 OA
ATOM     23  N   UNL     1       7.727   6.173  21.639  0.00  0.00    -0.328 N 
ATOM     24  H   UNL     1       7.007   6.287  20.937  0.00  0.00    +0.145 HD
ATOM     25  H   UNL     1       8.636   6.532  21.399  0.00  0.00    +0.145 HD
ENDBRANCH  20  21
ENDBRANCH  15  20
ENDBRANCH   8  17
ENDBRANCH   1  10
BRANCH   3  26
ATOM     26  C   UNL     1       4.276  -2.569  26.347  0.00  0.00    +0.217 C 
BRANCH  26  27
ATOM     27  O   UNL     1       3.112  -2.220  27.129  0.00  0.00    -0.381 OA
ATOM     28  H   UNL     1       2.361  -2.171  26.516  0.00  0.00    +0.210 HD
ENDBRANCH  26  27
BRANCH  26  29
ATOM     29  C   UNL     1       3.808  -3.342  25.080  0.00  0.00    +0.093 C 
BRANCH  29  30
ATOM     30  N   UNL     1       2.325  -3.291  24.988  0.00  0.00    -0.324 NA
ATOM     31  H   UNL     1       1.941  -3.377  25.931  0.00  0.00    +0.119 HD
ATOM     32  H   UNL     1       2.020  -2.406  24.596  0.00  0.00    +0.119 HD
ENDBRANCH  29  30
BRANCH  29  33
ATOM     33  C   UNL     1       4.290  -4.812  24.975  0.00  0.00    +0.056 C 
BRANCH  33  34
ATOM     34  C   UNL     1       5.311  -5.090  23.895  0.00  0.00    -0.046 A 
ATOM     35  C   UNL     1       6.677  -4.933  24.157  0.00  0.00    +0.004 A 
ATOM     36  C   UNL     1       7.635  -5.265  23.203  0.00  0.00    +0.000 A 
ATOM     37  C   UNL     1       7.238  -5.737  21.956  0.00  0.00    +0.000 A 
ATOM     38  C   UNL     1       5.881  -5.862  21.663  0.00  0.00    +0.000 A 
ATOM     39  C   UNL     1       4.922  -5.539  22.628  0.00  0.00    +0.004 A 
ENDBRANCH  33  34
ENDBRANCH  29  33
ENDBRANCH  26  29
ENDBRANCH   3  26
TORSDOF 10
ENDMDL
MODEL 6
REMARK VINA RESULT:      -6.8      3.052      8.709
REMARK  Name = 
REMARK  11 active torsions:
REMARK  status: ('A' for Active; 'I' for Inactive)
REMARK    1  A    between atoms: C_1  and  C_2
REMARK    2  A    between atoms: C_2  and  N_4
REMARK    3  A    between atoms: C_2  and  C_36
REMARK    4  A    between atoms: C_5  and  C_7
REMARK    5  A    between atoms: C_13  and  C_15
REMARK    6  A    between atoms: C_21  and  C_23
REMARK    7  A    between atoms: C_23  and  O_25
REMARK    8  A    between atoms: C_23  and  C_26
REMARK    9  A    between atoms: C_26  and  N_28
REMARK   10  A    between atoms: C_26  and  C_29
REMARK   11  A    between atoms: C_29  and  C_30
REMARK                            x       y       z     vdW  Elec       q    Type
REMARK                         _______ _______ _______ _____ _____    ______ ____
ROOT
ATOM      1  C   UNL     1       7.090  -3.643  24.629  0.00  0.00    +0.162 C 
ATOM      2  N   UNL     1       8.359  -3.160  24.039  0.00  0.00    -0.288 N 
ATOM      3  C   UNL     1       8.416  -2.130  23.112  0.00  0.00    +0.246 C 
ATOM      4  O   UNL     1       7.398  -1.714  22.550  0.00  0.00    -0.273 OA
ATOM      5  C   UNL     1       9.506  -3.818  24.658  0.00  0.00    +0.109 C 
ATOM      6  C   UNL     1       8.903  -4.758  25.690  0.00  0.00    +0.021 C 
ATOM      7  C   UNL     1       7.515  -5.022  25.123  0.00  0.00    +0.033 C 
ENDROOT
BRANCH   1  10
ATOM      8  C   UNL     1       4.840  -3.949  26.914  0.00  0.00    +0.162 C 
ATOM      9  N   UNL     1       5.587  -2.739  26.545  0.00  0.00    -0.288 N 
ATOM     10  C   UNL     1       6.667  -2.580  25.701  0.00  0.00    +0.237 C 
ATOM     11  O   UNL     1       7.244  -1.486  25.742  0.00  0.00    -0.274 OA
ATOM     12  C   UNL     1       5.208  -1.621  27.405  0.00  0.00    +0.109 C 
ATOM     13  C   UNL     1       4.050  -2.121  28.251  0.00  0.00    +0.021 C 
ATOM     14  C   UNL     1       4.272  -3.624  28.295  0.00  0.00    +0.033 C 
BRANCH   8  17
ATOM     15  N   UNL     1       3.706  -5.622  25.542  0.00  0.00    -0.303 N 
ATOM     16  H   UNL     1       4.480  -6.189  25.845  0.00  0.00    +0.149 HD
ATOM     17  C   UNL     1       3.741  -4.292  25.890  0.00  0.00    +0.234 C 
ATOM     18  O   UNL     1       2.972  -3.448  25.442  0.00  0.00    -0.274 OA
BRANCH  15  20
ATOM     19  C   UNL     1       3.025  -6.110  23.239  0.00  0.00    +0.038 C 
ATOM     20  C   UNL     1       2.662  -6.215  24.711  0.00  0.00    +0.156 C 
BRANCH  20  21
ATOM     21  C   UNL     1       2.434  -7.685  25.105  0.00  0.00    +0.231 C 
ATOM     22  O   UNL     1       2.730  -8.620  24.369  0.00  0.00    -0.274 OA
ATOM     23  N   UNL     1       2.029  -7.939  26.390  0.00  0.00    -0.328 N 
ATOM     24  H   UNL     1       1.830  -8.902  26.626  0.00  0.00    +0.145 HD
ATOM     25  H   UNL     1       1.754  -7.253  27.072  0.00  0.00    +0.145 HD
ENDBRANCH  20  21
ENDBRANCH  15  20
ENDBRANCH   8  17
ENDBRANCH   1  10
BRANCH   3  26
ATOM     26  C   UNL     1       9.840  -1.580  22.799  0.00  0.00    +0.217 C 
BRANCH  26  27
ATOM     27  O   UNL     1      10.097  -1.679  21.380  0.00  0.00    -0.381 OA
ATOM     28  H   UNL     1      10.174  -0.772  21.041  0.00  0.00    +0.210 HD
ENDBRANCH  26  27
BRANCH  26  29
ATOM     29  C   UNL     1      10.096  -0.113  23.248  0.00  0.00    +0.093 C 
BRANCH  29  30
ATOM     30  N   UNL     1       9.139   0.251  24.325  0.00  0.00    -0.324 NA
ATOM     31  H   UNL     1       9.347   1.203  24.632  0.00  0.00    +0.119 HD
ATOM     32  H   UNL     1       8.184   0.225  23.981  0.00  0.00    +0.119 HD
ENDBRANCH  29  30
BRANCH  29  33
ATOM     33  C   UNL     1      10.048   0.952  22.121  0.00  0.00    +0.056 C 
BRANCH  33  34
ATOM     34  C   UNL     1       9.147   2.138  22.378  0.00  0.00    -0.046 A 
ATOM     35  C   UNL     1       7.890   2.214  21.770  0.00  0.00    +0.004 A 
ATOM     36  C   UNL     1       7.012   3.255  22.062  0.00  0.00    +0.000 A 
ATOM     37  C   UNL     1       7.391   4.255  22.952  0.00  0.00    +0.000 A 
ATOM     38  C   UNL     1       8.657   4.216  23.536  0.00  0.00    +0.000 A 
ATOM     39  C   UNL     1       9.530   3.163  23.251  0.00  0.00    +0.004 A 
ENDBRANCH  33  34
ENDBRANCH  29  33
ENDBRANCH  26  29
ENDBRANCH   3  26
TORSDOF 10
ENDMDL
MODEL 7
REMARK VINA RESULT:      -6.8      2.200      3.325
REMARK  Name = 
REMARK  11 active torsions:
REMARK  status: ('A' for Active; 'I' for Inactive)
REMARK    1  A    between atoms: C_1  and  C_2
REMARK    2  A    between atoms: C_2  and  N_4
REMARK    3  A    between atoms: C_2  and  C_36
REMARK    4  A    between atoms: C_5  and  C_7
REMARK    5  A    between atoms: C_13  and  C_15
REMARK    6  A    between atoms: C_21  and  C_23
REMARK    7  A    between atoms: C_23  and  O_25
REMARK    8  A    between atoms: C_23  and  C_26
REMARK    9  A    between atoms: C_26  and  N_28
REMARK   10  A    between atoms: C_26  and  C_29
REMARK   11  A    between atoms: C_29  and  C_30
REMARK                            x       y       z     vdW  Elec       q    Type
REMARK                         _______ _______ _______ _____ _____    ______ ____
ROOT
ATOM      1  C   UNL     1       6.811  -1.720  24.367  0.00  0.00    +0.162 C 
ATOM      2  N   UNL     1       6.839  -3.127  24.826  0.00  0.00    -0.288 N 
ATOM      3  C   UNL     1       7.379  -3.512  26.045  0.00  0.00    +0.246 C 
ATOM      4  O   UNL     1       8.074  -2.740  26.711  0.00  0.00    -0.273 OA
ATOM      5  C   UNL     1       6.121  -3.994  23.898  0.00  0.00    +0.109 C 
ATOM      6  C   UNL     1       5.621  -3.062  22.804  0.00  0.00    +0.021 C 
ATOM      7  C   UNL     1       6.623  -1.916  22.867  0.00  0.00    +0.033 C 
ENDROOT
BRANCH   1  10
ATOM      8  C   UNL     1       6.138   1.428  24.477  0.00  0.00    +0.162 C 
ATOM      9  N   UNL     1       5.536   0.353  25.276  0.00  0.00    -0.288 N 
ATOM     10  C   UNL     1       5.657  -1.017  25.163  0.00  0.00    +0.237 C 
ATOM     11  O   UNL     1       4.864  -1.698  25.825  0.00  0.00    -0.274 OA
ATOM     12  C   UNL     1       4.501   0.888  26.157  0.00  0.00    +0.109 C 
ATOM     13  C   UNL     1       4.572   2.398  26.014  0.00  0.00    +0.021 C 
ATOM     14  C   UNL     1       5.156   2.591  24.624  0.00  0.00    +0.033 C 
BRANCH   8  17
ATOM     15  N   UNL     1       8.552   1.376  24.106  0.00  0.00    -0.303 N 
ATOM     16  H   UNL     1       8.282   0.751  23.366  0.00  0.00    +0.149 HD
ATOM     17  C   UNL     1       7.556   1.790  24.959  0.00  0.00    +0.234 C 
ATOM     18  O   UNL     1       7.760   2.398  26.005  0.00  0.00    -0.274 OA
BRANCH  15  20
ATOM     19  C   UNL     1      10.818   0.487  24.390  0.00  0.00    +0.038 C 
ATOM     20  C   UNL     1       9.958   1.734  24.268  0.00  0.00    +0.156 C 
BRANCH  20  21
ATOM     21  C   UNL     1      10.431   2.599  23.087  0.00  0.00    +0.231 C 
ATOM     22  O   UNL     1      11.200   3.545  23.225  0.00  0.00    -0.274 OA
ATOM     23  N   UNL     1      10.090   2.186  21.825  0.00  0.00    -0.328 N 
ATOM     24  H   UNL     1      10.358   2.787  21.057  0.00  0.00    +0.145 HD
ATOM     25  H   UNL     1       9.463   1.432  21.597  0.00  0.00    +0.145 HD
ENDBRANCH  20  21
ENDBRANCH  15  20
ENDBRANCH   8  17
ENDBRANCH   1  10
BRANCH   3  26
ATOM     26  C   UNL     1       7.090  -4.980  26.479  0.00  0.00    +0.217 C 
BRANCH  26  27
ATOM     27  O   UNL     1       8.327  -5.726  26.522  0.00  0.00    -0.381 OA
ATOM     28  H   UNL     1       8.811  -5.428  27.310  0.00  0.00    +0.210 HD
ENDBRANCH  26  27
BRANCH  26  29
ATOM     29  C   UNL     1       6.370  -5.136  27.849  0.00  0.00    +0.093 C 
BRANCH  29  30
ATOM     30  N   UNL     1       6.831  -6.384  28.513  0.00  0.00    -0.324 NA
ATOM     31  H   UNL     1       7.396  -6.126  29.324  0.00  0.00    +0.119 HD
ATOM     32  H   UNL     1       6.040  -6.933  28.833  0.00  0.00    +0.119 HD
ENDBRANCH  29  30
BRANCH  29  33
ATOM     33  C   UNL     1       4.820  -5.109  27.800  0.00  0.00    +0.056 C 
BRANCH  33  34
ATOM     34  C   UNL     1       4.198  -5.589  26.508  0.00  0.00    -0.046 A 
ATOM     35  C   UNL     1       3.212  -4.826  25.873  0.00  0.00    +0.004 A 
ATOM     36  C   UNL     1       2.689  -5.209  24.641  0.00  0.00    +0.000 A 
ATOM     37  C   UNL     1       3.129  -6.381  24.034  0.00  0.00    +0.000 A 
ATOM     38  C   UNL     1       4.082  -7.175  24.672  0.00  0.00    +0.000 A 
ATOM     39  C   UNL     1       4.613  -6.780  25.903  0.00  0.00    +0.004 A 
ENDBRANCH  33  34
ENDBRANCH  29  33
ENDBRANCH  26  29
ENDBRANCH   3  26
TORSDOF 10
ENDMDL
MODEL 8
REMARK VINA RESULT:      -6.8      2.743      8.442
REMARK  Name = 
REMARK  11 active torsions:
REMARK  status: ('A' for Active; 'I' for Inactive)
REMARK    1  A    between atoms: C_1  and  C_2
REMARK    2  A    between atoms: C_2  and  N_4
REMARK    3  A    between atoms: C_2  and  C_36
REMARK    4  A    between atoms: C_5  and  C_7
REMARK    5  A    between atoms: C_13  and  C_15
REMARK    6  A    between atoms: C_21  and  C_23
REMARK    7  A    between atoms: C_23  and  O_25
REMARK    8  A    between atoms: C_23  and  C_26
REMARK    9  A    between atoms: C_26  and  N_28
REMARK   10  A    between atoms: C_26  and  C_29
REMARK   11  A    between atoms: C_29  and  C_30
REMARK                            x       y       z     vdW  Elec       q    Type
REMARK                         _______ _______ _______ _____ _____    ______ ____
ROOT
ATOM      1  C   UNL     1       7.631  -2.212  25.285  0.00  0.00    +0.162 C 
ATOM      2  N   UNL     1       8.191  -1.019  24.610  0.00  0.00    -0.288 N 
ATOM      3  C   UNL     1       7.921  -0.704  23.287  0.00  0.00    +0.246 C 
ATOM      4  O   UNL     1       7.390  -1.520  22.528  0.00  0.00    -0.273 OA
ATOM      5  C   UNL     1       8.933  -0.187  25.553  0.00  0.00    +0.109 C 
ATOM      6  C   UNL     1       8.819  -0.914  26.885  0.00  0.00    +0.021 C 
ATOM      7  C   UNL     1       8.600  -2.358  26.453  0.00  0.00    +0.033 C 
ENDROOT
BRANCH   1  10
ATOM      8  C   UNL     1       5.531  -4.010  26.939  0.00  0.00    +0.162 C 
ATOM      9  N   UNL     1       5.264  -2.771  26.195  0.00  0.00    -0.288 N 
ATOM     10  C   UNL     1       6.135  -1.875  25.612  0.00  0.00    +0.237 C 
ATOM     11  O   UNL     1       5.653  -0.797  25.241  0.00  0.00    -0.274 OA
ATOM     12  C   UNL     1       3.860  -2.391  26.324  0.00  0.00    +0.109 C 
ATOM     13  C   UNL     1       3.183  -3.536  27.056  0.00  0.00    +0.021 C 
ATOM     14  C   UNL     1       4.316  -4.160  27.854  0.00  0.00    +0.033 C 
BRANCH   8  17
ATOM     15  N   UNL     1       5.573  -4.922  24.673  0.00  0.00    -0.303 N 
ATOM     16  H   UNL     1       5.201  -4.013  24.453  0.00  0.00    +0.149 HD
ATOM     17  C   UNL     1       5.721  -5.222  26.007  0.00  0.00    +0.234 C 
ATOM     18  O   UNL     1       5.985  -6.342  26.431  0.00  0.00    -0.274 OA
BRANCH  15  20
ATOM     19  C   UNL     1       4.711  -5.893  22.595  0.00  0.00    +0.038 C 
ATOM     20  C   UNL     1       5.855  -5.865  23.595  0.00  0.00    +0.156 C 
BRANCH  20  21
ATOM     21  C   UNL     1       7.174  -5.497  22.893  0.00  0.00    +0.231 C 
ATOM     22  O   UNL     1       8.210  -5.272  23.508  0.00  0.00    -0.274 OA
ATOM     23  N   UNL     1       7.207  -5.582  21.525  0.00  0.00    -0.328 N 
ATOM     24  H   UNL     1       8.059  -5.288  21.067  0.00  0.00    +0.145 HD
ATOM     25  H   UNL     1       6.419  -5.751  20.922  0.00  0.00    +0.145 HD
ENDBRANCH  20  21
ENDBRANCH  15  20
ENDBRANCH   8  17
ENDBRANCH   1  10
BRANCH   3  26
ATOM     26  C   UNL     1       8.375   0.713  22.823  0.00  0.00    +0.217 C 
BRANCH  26  27
ATOM     27  O   UNL     1       8.770   0.664  21.434  0.00  0.00    -0.381 OA
ATOM     28  H   UNL     1       9.644   1.084  21.371  0.00  0.00    +0.210 HD
ENDBRANCH  26  27
BRANCH  26  29
ATOM     29  C   UNL     1       7.315   1.838  22.998  0.00  0.00    +0.093 C 
BRANCH  29  30
ATOM     30  N   UNL     1       5.951   1.250  22.931  0.00  0.00    -0.324 NA
ATOM     31  H   UNL     1       5.971   0.468  22.273  0.00  0.00    +0.119 HD
ATOM     32  H   UNL     1       5.667   0.898  23.840  0.00  0.00    +0.119 HD
ENDBRANCH  29  30
BRANCH  29  33
ATOM     33  C   UNL     1       7.425   3.024  22.005  0.00  0.00    +0.056 C 
BRANCH  33  34
ATOM     34  C   UNL     1       7.825   4.350  22.610  0.00  0.00    -0.046 A 
ATOM     35  C   UNL     1       8.802   4.404  23.609  0.00  0.00    +0.004 A 
ATOM     36  C   UNL     1       9.244   5.623  24.118  0.00  0.00    +0.000 A 
ATOM     37  C   UNL     1       8.692   6.811  23.650  0.00  0.00    +0.000 A 
ATOM     38  C   UNL     1       7.688   6.774  22.684  0.00  0.00    +0.000 A 
ATOM     39  C   UNL     1       7.257   5.550  22.167  0.00  0.00    +0.004 A 
ENDBRANCH  33  34
ENDBRANCH  29  33
ENDBRANCH  26  29
ENDBRANCH   3  26
TORSDOF 10
ENDMDL
MODEL 9
REMARK VINA RESULT:      -6.7      2.469      8.447
REMARK  Name = 
REMARK  11 active torsions:
REMARK  status: ('A' for Active; 'I' for Inactive)
REMARK    1  A    between atoms: C_1  and  C_2
REMARK    2  A    between atoms: C_2  and  N_4
REMARK    3  A    between atoms: C_2  and  C_36
REMARK    4  A    between atoms: C_5  and  C_7
REMARK    5  A    between atoms: C_13  and  C_15
REMARK    6  A    between atoms: C_21  and  C_23
REMARK    7  A    between atoms: C_23  and  O_25
REMARK    8  A    between atoms: C_23  and  C_26
REMARK    9  A    between atoms: C_26  and  N_28
REMARK   10  A    between atoms: C_26  and  C_29
REMARK   11  A    between atoms: C_29  and  C_30
REMARK                            x       y       z     vdW  Elec       q    Type
REMARK                         _______ _______ _______ _____ _____    ______ ____
ROOT
ATOM      1  C   UNL     1       9.384  -0.521  23.725  0.00  0.00    +0.162 C 
ATOM      2  N   UNL     1       8.779   0.821  23.572  0.00  0.00    -0.288 N 
ATOM      3  C   UNL     1       7.470   1.016  23.161  0.00  0.00    +0.246 C 
ATOM      4  O   UNL     1       6.805   0.096  22.675  0.00  0.00    -0.273 OA
ATOM      5  C   UNL     1       9.695   1.861  24.032  0.00  0.00    +0.109 C 
ATOM      6  C   UNL     1      10.934   1.110  24.495  0.00  0.00    +0.021 C 
ATOM      7  C   UNL     1      10.867  -0.171  23.675  0.00  0.00    +0.033 C 
ENDROOT
BRANCH   1  10
ATOM      8  C   UNL     1       8.707  -3.603  24.375  0.00  0.00    +0.162 C 
ATOM      9  N   UNL     1       8.412  -2.425  25.202  0.00  0.00    -0.288 N 
ATOM     10  C   UNL     1       8.817  -1.113  25.062  0.00  0.00    +0.237 C 
ATOM     11  O   UNL     1       8.608  -0.365  26.025  0.00  0.00    -0.274 OA
ATOM     12  C   UNL     1       7.773  -2.825  26.452  0.00  0.00    +0.109 C 
ATOM     13  C   UNL     1       7.512  -4.315  26.329  0.00  0.00    +0.021 C 
ATOM     14  C   UNL     1       8.575  -4.776  25.346  0.00  0.00    +0.033 C 
BRANCH   8  17
ATOM     15  N   UNL     1       6.779  -4.682  23.332  0.00  0.00    -0.303 N 
ATOM     16  H   UNL     1       6.882  -5.304  24.116  0.00  0.00    +0.149 HD
ATOM     17  C   UNL     1       7.753  -3.725  23.171  0.00  0.00    +0.234 C 
ATOM     18  O   UNL     1       7.862  -3.022  22.171  0.00  0.00    -0.274 OA
BRANCH  15  20
ATOM     19  C   UNL     1       6.013  -5.954  21.383  0.00  0.00    +0.038 C 
ATOM     20  C   UNL     1       5.673  -4.877  22.399  0.00  0.00    +0.156 C 
BRANCH  20  21
ATOM     21  C   UNL     1       4.388  -5.244  23.161  0.00  0.00    +0.231 C 
ATOM     22  O   UNL     1       3.495  -5.923  22.664  0.00  0.00    -0.274 OA
ATOM     23  N   UNL     1       4.328  -4.921  24.492  0.00  0.00    -0.328 N 
ATOM     24  H   UNL     1       3.460  -5.117  24.973  0.00  0.00    +0.145 HD
ATOM     25  H   UNL     1       4.996  -4.364  24.998  0.00  0.00    +0.145 HD
ENDBRANCH  20  21
ENDBRANCH  15  20
ENDBRANCH   8  17
ENDBRANCH   1  10
BRANCH   3  26
ATOM     26  C   UNL     1       6.923   2.468  23.308  0.00  0.00    +0.217 C 
BRANCH  26  27
ATOM     27  O   UNL     1       6.266   2.866  22.084  0.00  0.00    -0.381 OA
ATOM     28  H   UNL     1       6.838   2.586  21.350  0.00  0.00    +0.210 HD
ENDBRANCH  26  27
BRANCH  26  29
ATOM     29  C   UNL     1       5.939   2.689  24.493  0.00  0.00    +0.093 C 
BRANCH  29  30
ATOM     30  N   UNL     1       4.622   2.082  24.163  0.00  0.00    -0.324 NA
ATOM     31  H   UNL     1       4.001   2.209  24.964  0.00  0.00    +0.119 HD
ATOM     32  H   UNL     1       4.207   2.541  23.358  0.00  0.00    +0.119 HD
ENDBRANCH  29  30
BRANCH  29  33
ATOM     33  C   UNL     1       5.743   4.162  24.937  0.00  0.00    +0.056 C 
BRANCH  33  34
ATOM     34  C   UNL     1       6.927   5.075  24.717  0.00  0.00    -0.046 A 
ATOM     35  C   UNL     1       8.043   4.998  25.556  0.00  0.00    +0.004 A 
ATOM     36  C   UNL     1       9.177   5.771  25.318  0.00  0.00    +0.000 A 
ATOM     37  C   UNL     1       9.201   6.656  24.245  0.00  0.00    +0.000 A 
ATOM     38  C   UNL     1       8.082   6.776  23.422  0.00  0.00    +0.000 A 
ATOM     39  C   UNL     1       6.950   5.989  23.657  0.00  0.00    +0.004 A 
ENDBRANCH  33  34
ENDBRANCH  29  33
ENDBRANCH  26  29
ENDBRANCH   3  26
TORSDOF 10
ENDMDL
