MODEL 1
REMARK VINA RESULT:      -6.6      0.000      0.000
REMARK  Name = 
REMARK  10 active torsions:
REMARK  status: ('A' for Active; 'I' for Inactive)
REMARK    1  A    between atoms: C_1  and  C_2
REMARK    2  A    between atoms: C_2  and  C_3
REMARK    3  A    between atoms: C_2  and  C_4
REMARK    4  A    between atoms: C_2  and  N_5
REMARK    5  A    between atoms: N_5  and  C_6
REMARK    6  A    between atoms: C_6  and  C_7
REMARK    7  A    between atoms: C_7  and  O_8
REMARK    8  A    between atoms: C_7  and  C_9
REMARK    9  A    between atoms: C_9  and  O_10
REMARK   10  A    between atoms: O_10  and  C_11
REMARK                            x       y       z     vdW  Elec       q    Type
REMARK                         _______ _______ _______ _____ _____    ______ ____
ROOT
ATOM      1  O   UNL     1       9.506  -3.885  23.971  0.00  0.00    -0.489 OA
ENDROOT
BRANCH   1   2
ATOM      2  C   UNL     1       8.558  -4.446  24.791  0.00  0.00    +0.126 A 
ATOM      3  C   UNL     1       7.380  -4.910  24.171  0.00  0.00    +0.016 A 
ATOM      4  C   UNL     1       7.166  -4.792  22.680  0.00  0.00    +0.050 C 
ATOM      5  C   UNL     1       6.097  -5.748  22.168  0.00  0.00    +0.101 C 
ATOM      6  C   UNL     1       4.875  -5.771  23.049  0.00  0.00    +0.218 C 
ATOM      7  N   UNL     1       5.103  -5.727  24.395  0.00  0.00    -0.285 N 
ATOM      8  H   UNL     1       4.298  -5.894  24.984  0.00  0.00    +0.155 HD
ATOM      9  O   UNL     1       3.740  -5.942  22.605  0.00  0.00    -0.275 OA
ATOM     10  C   UNL     1       6.332  -5.390  24.970  0.00  0.00    +0.040 A 
ATOM     11  C   UNL     1       6.468  -5.481  26.354  0.00  0.00    +0.024 A 
ATOM     12  C   UNL     1       7.658  -5.084  26.955  0.00  0.00    +0.005 A 
ATOM     13  C   UNL     1       8.692  -4.560  26.180  0.00  0.00    +0.046 A 
ENDBRANCH   1   2
BRANCH   1  14
ATOM     14  C   UNL     1       9.597  -2.450  23.970  0.00  0.00    +0.261 C 
BRANCH  14  15
ATOM     15  C   UNL     1       9.336  -1.921  22.551  0.00  0.00    +0.166 C 
BRANCH  15  16
ATOM     16  O   UNL     1      10.582  -1.707  21.874  0.00  0.00    -0.387 OA
ATOM     17  H   UNL     1      10.849  -0.790  22.071  0.00  0.00    +0.210 HD
ENDBRANCH  15  16
BRANCH  15  18
ATOM     18  C   UNL     1       8.544  -0.601  22.615  0.00  0.00    +0.116 C 
BRANCH  18  19
ATOM     19  N   UNL     1       8.796   0.124  23.867  0.00  0.00    -0.309 NA
ATOM     20  H   UNL     1       7.895   0.436  24.240  0.00  0.00    +0.123 HD
BRANCH  19  22
ATOM     21  C   UNL     1       9.937   1.705  22.294  0.00  0.00    +0.027 C 
ATOM     22  C   UNL     1       9.732   1.259  23.752  0.00  0.00    +0.011 C 
ATOM     23  C   UNL     1       9.113   2.436  24.531  0.00  0.00    +0.027 C 
ATOM     24  C   UNL     1      11.087   0.918  24.394  0.00  0.00    +0.027 C 
ENDBRANCH  19  22
ENDBRANCH  18  19
ENDBRANCH  15  18
ENDBRANCH  14  15
ENDBRANCH   1  14
TORSDOF 7
ENDMDL
MODEL 2
REMARK VINA RESULT:      -6.5      1.700      2.967
REMARK  Name = 
REMARK  10 active torsions:
REMARK  status: ('A' for Active; 'I' for Inactive)
REMARK    1  A    between atoms: C_1  and  C_2
REMARK    2  A    between atoms: C_2  and  C_3
REMARK    3  A    between atoms: C_2  and  C_4
REMARK    4  A    between atoms: C_2  and  N_5
REMARK    5  A    between atoms: N_5  and  C_6
REMARK    6  A    between atoms: C_6  and  C_7
REMARK    7  A    between atoms: C_7  and  O_8
REMARK    8  A    between atoms: C_7  and  C_9
REMARK    9  A    between atoms: C_9  and  O_10
REMARK   10  A    between atoms: O_10  and  C_11
REMARK                            x       y       z     vdW  Elec       q    Type
REMARK                         _______ _______ _______ _____ _____    ______ ____
ROOT
ATOM      1  O   UNL     1       8.578  -2.913  22.754  0.00  0.00    -0.489 OA
ENDROOT
BRANCH   1   2
ATOM      2  C   UNL     1       7.576  -3.813  23.018  0.00  0.00    +0.126 A 
ATOM      3  C   UNL     1       7.470  -4.270  24.347  0.00  0.00    +0.016 A 
ATOM      4  C   UNL     1       8.413  -3.798  25.429  0.00  0.00    +0.050 C 
ATOM      5  C   UNL     1       7.853  -4.020  26.828  0.00  0.00    +0.101 C 
ATOM      6  C   UNL     1       7.231  -5.383  26.990  0.00  0.00    +0.218 C 
ATOM      7  N   UNL     1       6.504  -5.842  25.929  0.00  0.00    -0.285 N 
ATOM      8  H   UNL     1       5.966  -6.682  26.094  0.00  0.00    +0.155 HD
ATOM      9  O   UNL     1       7.263  -6.004  28.051  0.00  0.00    -0.275 OA
ATOM     10  C   UNL     1       6.537  -5.273  24.651  0.00  0.00    +0.040 A 
ATOM     11  C   UNL     1       5.672  -5.768  23.678  0.00  0.00    +0.024 A 
ATOM     12  C   UNL     1       5.736  -5.267  22.382  0.00  0.00    +0.005 A 
ATOM     13  C   UNL     1       6.689  -4.303  22.052  0.00  0.00    +0.046 A 
ENDBRANCH   1   2
BRANCH   1  14
ATOM     14  C   UNL     1       8.181  -1.628  22.247  0.00  0.00    +0.261 C 
BRANCH  14  15
ATOM     15  C   UNL     1       9.353  -0.997  21.477  0.00  0.00    +0.166 C 
BRANCH  15  16
ATOM     16  O   UNL     1      10.576  -1.663  21.820  0.00  0.00    -0.387 OA
ATOM     17  H   UNL     1      11.131  -1.649  21.018  0.00  0.00    +0.210 HD
ENDBRANCH  15  16
BRANCH  15  18
ATOM     18  C   UNL     1       9.462   0.502  21.816  0.00  0.00    +0.116 C 
BRANCH  18  19
ATOM     19  N   UNL     1       8.675   0.851  23.005  0.00  0.00    -0.309 NA
ATOM     20  H   UNL     1       7.955   1.522  22.723  0.00  0.00    +0.123 HD
BRANCH  19  22
ATOM     21  C   UNL     1      10.596   2.306  23.687  0.00  0.00    +0.027 C 
ATOM     22  C   UNL     1       9.459   1.374  24.140  0.00  0.00    +0.011 C 
ATOM     23  C   UNL     1       8.492   2.190  25.020  0.00  0.00    +0.027 C 
ATOM     24  C   UNL     1      10.026   0.224  24.990  0.00  0.00    +0.027 C 
ENDBRANCH  19  22
ENDBRANCH  18  19
ENDBRANCH  15  18
ENDBRANCH  14  15
ENDBRANCH   1  14
TORSDOF 7
ENDMDL
MODEL 3
REMARK VINA RESULT:      -6.3      2.237      6.279
REMARK  Name = 
REMARK  10 active torsions:
REMARK  status: ('A' for Active; 'I' for Inactive)
REMARK    1  A    between atoms: C_1  and  C_2
REMARK    2  A    between atoms: C_2  and  C_3
REMARK    3  A    between atoms: C_2  and  C_4
REMARK    4  A    between atoms: C_2  and  N_5
REMARK    5  A    between atoms: N_5  and  C_6
REMARK    6  A    between atoms: C_6  and  C_7
REMARK    7  A    between atoms: C_7  and  O_8
REMARK    8  A    between atoms: C_7  and  C_9
REMARK    9  A    between atoms: C_9  and  O_10
REMARK   10  A    between atoms: O_10  and  C_11
REMARK                            x       y       z     vdW  Elec       q    Type
REMARK                         _______ _______ _______ _____ _____    ______ ____
ROOT
ATOM      1  O   UNL     1       7.938  -2.737  24.765  0.00  0.00    -0.489 OA
ENDROOT
BRANCH   1   2
ATOM      2  C   UNL     1       8.576  -1.898  23.885  0.00  0.00    +0.126 A 
ATOM      3  C   UNL     1       7.916  -0.692  23.570  0.00  0.00    +0.016 A 
ATOM      4  C   UNL     1       6.574  -0.340  24.167  0.00  0.00    +0.050 C 
ATOM      5  C   UNL     1       6.275   1.151  24.088  0.00  0.00    +0.101 C 
ATOM      6  C   UNL     1       6.616   1.737  22.742  0.00  0.00    +0.218 C 
ATOM      7  N   UNL     1       7.767   1.283  22.163  0.00  0.00    -0.285 N 
ATOM      8  H   UNL     1       8.071   1.782  21.338  0.00  0.00    +0.155 HD
ATOM      9  O   UNL     1       5.974   2.657  22.237  0.00  0.00    -0.275 OA
ATOM     10  C   UNL     1       8.466   0.151  22.593  0.00  0.00    +0.040 A 
ATOM     11  C   UNL     1       9.683  -0.151  21.986  0.00  0.00    +0.024 A 
ATOM     12  C   UNL     1      10.362  -1.310  22.347  0.00  0.00    +0.005 A 
ATOM     13  C   UNL     1       9.807  -2.183  23.283  0.00  0.00    +0.046 A 
ENDBRANCH   1   2
BRANCH   1  14
ATOM     14  C   UNL     1       8.771  -3.584  25.575  0.00  0.00    +0.261 C 
BRANCH  14  15
ATOM     15  C   UNL     1       8.435  -5.056  25.291  0.00  0.00    +0.166 C 
BRANCH  15  16
ATOM     16  O   UNL     1       9.489  -5.657  24.525  0.00  0.00    -0.387 OA
ATOM     17  H   UNL     1      10.294  -5.602  25.074  0.00  0.00    +0.210 HD
ENDBRANCH  15  16
BRANCH  15  18
ATOM     18  C   UNL     1       7.107  -5.156  24.517  0.00  0.00    +0.116 C 
BRANCH  18  19
ATOM     19  N   UNL     1       7.320  -5.139  23.064  0.00  0.00    -0.309 NA
ATOM     20  H   UNL     1       8.033  -4.435  22.856  0.00  0.00    +0.123 HD
BRANCH  19  22
ATOM     21  C   UNL     1       5.946  -3.428  21.857  0.00  0.00    +0.027 C 
ATOM     22  C   UNL     1       6.106  -4.904  22.259  0.00  0.00    +0.011 C 
ATOM     23  C   UNL     1       6.248  -5.740  20.972  0.00  0.00    +0.027 C 
ATOM     24  C   UNL     1       4.851  -5.386  23.008  0.00  0.00    +0.027 C 
ENDBRANCH  19  22
ENDBRANCH  18  19
ENDBRANCH  15  18
ENDBRANCH  14  15
ENDBRANCH   1  14
TORSDOF 7
ENDMDL
MODEL 4
REMARK VINA RESULT:      -6.2      2.475      3.111
REMARK  Name = 
REMARK  10 active torsions:
REMARK  status: ('A' for Active; 'I' for Inactive)
REMARK    1  A    between atoms: C_1  and  C_2
REMARK    2  A    between atoms: C_2  and  C_3
REMARK    3  A    between atoms: C_2  and  C_4
REMARK    4  A    between atoms: C_2  and  N_5
REMARK    5  A    between atoms: N_5  and  C_6
REMARK    6  A    between atoms: C_6  and  C_7
REMARK    7  A    between atoms: C_7  and  O_8
REMARK    8  A    between atoms: C_7  and  C_9
REMARK    9  A    between atoms: C_9  and  O_10
REMARK   10  A    between atoms: O_10  and  C_11
REMARK                            x       y       z     vdW  Elec       q    Type
REMARK                         _______ _______ _______ _____ _____    ______ ____
ROOT
ATOM      1  O   UNL     1       6.388  -1.468  25.350  0.00  0.00    -0.489 OA
ENDROOT
BRANCH   1   2
ATOM      2  C   UNL     1       7.184  -2.554  25.083  0.00  0.00    +0.126 A 
ATOM      3  C   UNL     1       6.898  -3.273  23.905  0.00  0.00    +0.016 A 
ATOM      4  C   UNL     1       5.771  -2.874  22.982  0.00  0.00    +0.050 C 
ATOM      5  C   UNL     1       5.930  -3.454  21.583  0.00  0.00    +0.101 C 
ATOM      6  C   UNL     1       6.334  -4.905  21.603  0.00  0.00    +0.218 C 
ATOM      7  N   UNL     1       7.251  -5.261  22.552  0.00  0.00    -0.285 N 
ATOM      8  H   UNL     1       7.631  -6.194  22.468  0.00  0.00    +0.155 HD
ATOM      9  O   UNL     1       5.965  -5.708  20.748  0.00  0.00    -0.275 OA
ATOM     10  C   UNL     1       7.605  -4.456  23.639  0.00  0.00    +0.040 A 
ATOM     11  C   UNL     1       8.628  -4.886  24.482  0.00  0.00    +0.024 A 
ATOM     12  C   UNL     1       8.950  -4.137  25.609  0.00  0.00    +0.005 A 
ATOM     13  C   UNL     1       8.226  -2.984  25.913  0.00  0.00    +0.046 A 
ENDBRANCH   1   2
BRANCH   1  14
ATOM     14  C   UNL     1       7.041  -0.293  25.860  0.00  0.00    +0.261 C 
BRANCH  14  15
ATOM     15  C   UNL     1       6.599   0.933  25.047  0.00  0.00    +0.166 C 
BRANCH  15  16
ATOM     16  O   UNL     1       5.330   0.676  24.428  0.00  0.00    -0.387 OA
ATOM     17  H   UNL     1       5.449  -0.121  23.878  0.00  0.00    +0.210 HD
ENDBRANCH  15  16
BRANCH  15  18
ATOM     18  C   UNL     1       7.649   1.259  23.967  0.00  0.00    +0.116 C 
BRANCH  18  19
ATOM     19  N   UNL     1       7.865   0.126  23.058  0.00  0.00    -0.309 NA
ATOM     20  H   UNL     1       7.436  -0.704  23.477  0.00  0.00    +0.123 HD
BRANCH  19  22
ATOM     21  C   UNL     1      10.147  -0.385  23.956  0.00  0.00    +0.027 C 
ATOM     22  C   UNL     1       9.275  -0.135  22.713  0.00  0.00    +0.011 C 
ATOM     23  C   UNL     1       9.300  -1.409  21.847  0.00  0.00    +0.027 C 
ATOM     24  C   UNL     1       9.859   1.021  21.884  0.00  0.00    +0.027 C 
ENDBRANCH  19  22
ENDBRANCH  18  19
ENDBRANCH  15  18
ENDBRANCH  14  15
ENDBRANCH   1  14
TORSDOF 7
ENDMDL
MODEL 5
REMARK VINA RESULT:      -6.0      2.331      6.150
REMARK  Name = 
REMARK  10 active torsions:
REMARK  status: ('A' for Active; 'I' for Inactive)
REMARK    1  A    between atoms: C_1  and  C_2
REMARK    2  A    between atoms: C_2  and  C_3
REMARK    3  A    between atoms: C_2  and  C_4
REMARK    4  A    between atoms: C_2  and  N_5
REMARK    5  A    between atoms: N_5  and  C_6
REMARK    6  A    between atoms: C_6  and  C_7
REMARK    7  A    between atoms: C_7  and  O_8
REMARK    8  A    between atoms: C_7  and  C_9
REMARK    9  A    between atoms: C_9  and  O_10
REMARK   10  A    between atoms: O_10  and  C_11
REMARK                            x       y       z     vdW  Elec       q    Type
REMARK                         _______ _______ _______ _____ _____    ______ ____
ROOT
ATOM      1  O   UNL     1       9.232  -2.859  25.377  0.00  0.00    -0.489 OA
ENDROOT
BRANCH   1   2
ATOM      2  C   UNL     1       8.719  -1.588  25.473  0.00  0.00    +0.126 A 
ATOM      3  C   UNL     1       9.102  -0.675  24.470  0.00  0.00    +0.016 A 
ATOM      4  C   UNL     1      10.033  -1.069  23.348  0.00  0.00    +0.050 C 
ATOM      5  C   UNL     1       9.937  -0.128  22.154  0.00  0.00    +0.101 C 
ATOM      6  C   UNL     1       9.912   1.322  22.564  0.00  0.00    +0.218 C 
ATOM      7  N   UNL     1       9.176   1.620  23.675  0.00  0.00    -0.285 N 
ATOM      8  H   UNL     1       9.038   2.604  23.860  0.00  0.00    +0.155 HD
ATOM      9  O   UNL     1      10.417   2.212  21.881  0.00  0.00    -0.275 OA
ATOM     10  C   UNL     1       8.700   0.665  24.578  0.00  0.00    +0.040 A 
ATOM     11  C   UNL     1       7.873   1.085  25.618  0.00  0.00    +0.024 A 
ATOM     12  C   UNL     1       7.444   0.165  26.569  0.00  0.00    +0.005 A 
ATOM     13  C   UNL     1       7.873  -1.161  26.503  0.00  0.00    +0.046 A 
ENDBRANCH   1   2
BRANCH   1  14
ATOM     14  C   UNL     1       8.737  -3.832  26.312  0.00  0.00    +0.261 C 
BRANCH  14  15
ATOM     15  C   UNL     1       8.989  -5.245  25.762  0.00  0.00    +0.166 C 
BRANCH  15  16
ATOM     16  O   UNL     1      10.308  -5.322  25.204  0.00  0.00    -0.387 OA
ATOM     17  H   UNL     1      10.272  -4.858  24.348  0.00  0.00    +0.210 HD
ENDBRANCH  15  16
BRANCH  15  18
ATOM     18  C   UNL     1       7.945  -5.586  24.682  0.00  0.00    +0.116 C 
BRANCH  18  19
ATOM     19  N   UNL     1       8.181  -4.839  23.441  0.00  0.00    -0.309 NA
ATOM     20  H   UNL     1       8.765  -4.028  23.664  0.00  0.00    +0.123 HD
BRANCH  19  22
ATOM     21  C   UNL     1       6.604  -5.370  21.569  0.00  0.00    +0.027 C 
ATOM     22  C   UNL     1       6.961  -4.419  22.724  0.00  0.00    +0.011 C 
ATOM     23  C   UNL     1       5.806  -4.448  23.744  0.00  0.00    +0.027 C 
ATOM     24  C   UNL     1       7.103  -2.981  22.199  0.00  0.00    +0.027 C 
ENDBRANCH  19  22
ENDBRANCH  18  19
ENDBRANCH  15  18
ENDBRANCH  14  15
ENDBRANCH   1  14
TORSDOF 7
ENDMDL
MODEL 6
REMARK VINA RESULT:      -5.9      1.960      3.098
REMARK  Name = 
REMARK  10 active torsions:
REMARK  status: ('A' for Active; 'I' for Inactive)
REMARK    1  A    between atoms: C_1  and  C_2
REMARK    2  A    between atoms: C_2  and  C_3
REMARK    3  A    between atoms: C_2  and  C_4
REMARK    4  A    between atoms: C_2  and  N_5
REMARK    5  A    between atoms: N_5  and  C_6
REMARK    6  A    between atoms: C_6  and  C_7
REMARK    7  A    between atoms: C_7  and  O_8
REMARK    8  A    between atoms: C_7  and  C_9
REMARK    9  A    between atoms: C_9  and  O_10
REMARK   10  A    between atoms: O_10  and  C_11
REMARK                            x       y       z     vdW  Elec       q    Type
REMARK                         _______ _______ _______ _____ _____    ______ ____
ROOT
ATOM      1  O   UNL     1       7.744  -3.534  25.283  0.00  0.00    -0.489 OA
ENDROOT
BRANCH   1   2
ATOM      2  C   UNL     1       7.193  -4.147  24.186  0.00  0.00    +0.126 A 
ATOM      3  C   UNL     1       6.170  -5.085  24.433  0.00  0.00    +0.016 A 
ATOM      4  C   UNL     1       5.705  -5.405  25.835  0.00  0.00    +0.050 C 
ATOM      5  C   UNL     1       4.324  -6.047  25.858  0.00  0.00    +0.101 C 
ATOM      6  C   UNL     1       4.169  -7.118  24.810  0.00  0.00    +0.218 C 
ATOM      7  N   UNL     1       4.732  -6.855  23.594  0.00  0.00    -0.285 N 
ATOM      8  H   UNL     1       4.500  -7.502  22.852  0.00  0.00    +0.155 HD
ATOM      9  O   UNL     1       3.476  -8.120  24.983  0.00  0.00    -0.275 OA
ATOM     10  C   UNL     1       5.648  -5.824  23.361  0.00  0.00    +0.040 A 
ATOM     11  C   UNL     1       6.073  -5.592  22.055  0.00  0.00    +0.024 A 
ATOM     12  C   UNL     1       7.036  -4.619  21.808  0.00  0.00    +0.005 A 
ATOM     13  C   UNL     1       7.600  -3.908  22.868  0.00  0.00    +0.046 A 
ENDBRANCH   1   2
BRANCH   1  14
ATOM     14  C   UNL     1       7.548  -2.114  25.402  0.00  0.00    +0.261 C 
BRANCH  14  15
ATOM     15  C   UNL     1       8.892  -1.435  25.707  0.00  0.00    +0.166 C 
BRANCH  15  16
ATOM     16  O   UNL     1       8.664  -0.145  26.293  0.00  0.00    -0.387 OA
ATOM     17  H   UNL     1       7.790   0.150  25.977  0.00  0.00    +0.210 HD
ENDBRANCH  15  16
BRANCH  15  18
ATOM     18  C   UNL     1       9.714  -1.282  24.413  0.00  0.00    +0.116 C 
BRANCH  18  19
ATOM     19  N   UNL     1       9.793   0.118  23.980  0.00  0.00    -0.309 NA
ATOM     20  H   UNL     1       9.301   0.693  24.670  0.00  0.00    +0.123 HD
BRANCH  19  22
ATOM     21  C   UNL     1       9.929   1.615  21.976  0.00  0.00    +0.027 C 
ATOM     22  C   UNL     1       9.277   0.381  22.622  0.00  0.00    +0.011 C 
ATOM     23  C   UNL     1       9.623  -0.850  21.762  0.00  0.00    +0.027 C 
ATOM     24  C   UNL     1       7.747   0.541  22.640  0.00  0.00    +0.027 C 
ENDBRANCH  19  22
ENDBRANCH  18  19
ENDBRANCH  15  18
ENDBRANCH  14  15
ENDBRANCH   1  14
TORSDOF 7
ENDMDL
MODEL 7
REMARK VINA RESULT:      -5.9      1.944      2.681
REMARK  Name = 
REMARK  10 active torsions:
REMARK  status: ('A' for Active; 'I' for Inactive)
REMARK    1  A    between atoms: C_1  and  C_2
REMARK    2  A    between atoms: C_2  and  C_3
REMARK    3  A    between atoms: C_2  and  C_4
REMARK    4  A    between atoms: C_2  and  N_5
REMARK    5  A    between atoms: N_5  and  C_6
REMARK    6  A    between atoms: C_6  and  C_7
REMARK    7  A    between atoms: C_7  and  O_8
REMARK    8  A    between atoms: C_7  and  C_9
REMARK    9  A    between atoms: C_9  and  O_10
REMARK   10  A    between atoms: O_10  and  C_11
REMARK                            x       y       z     vdW  Elec       q    Type
REMARK                         _______ _______ _______ _____ _____    ______ ____
ROOT
ATOM      1  O   UNL     1       8.098  -3.224  25.804  0.00  0.00    -0.489 OA
ENDROOT
BRANCH   1   2
ATOM      2  C   UNL     1       7.167  -4.231  25.741  0.00  0.00    +0.126 A 
ATOM      3  C   UNL     1       6.865  -4.732  24.458  0.00  0.00    +0.016 A 
ATOM      4  C   UNL     1       7.526  -4.187  23.214  0.00  0.00    +0.050 C 
ATOM      5  C   UNL     1       7.432  -5.148  22.036  0.00  0.00    +0.101 C 
ATOM      6  C   UNL     1       6.058  -5.748  21.890  0.00  0.00    +0.218 C 
ATOM      7  N   UNL     1       5.427  -6.094  23.051  0.00  0.00    -0.285 N 
ATOM      8  H   UNL     1       4.576  -6.631  22.946  0.00  0.00    +0.155 HD
ATOM      9  O   UNL     1       5.570  -6.029  20.796  0.00  0.00    -0.275 OA
ATOM     10  C   UNL     1       5.841  -5.682  24.321  0.00  0.00    +0.040 A 
ATOM     11  C   UNL     1       5.175  -6.186  25.436  0.00  0.00    +0.024 A 
ATOM     12  C   UNL     1       5.523  -5.737  26.705  0.00  0.00    +0.005 A 
ATOM     13  C   UNL     1       6.506  -4.757  26.856  0.00  0.00    +0.046 A 
ENDBRANCH   1   2
BRANCH   1  14
ATOM     14  C   UNL     1       7.704  -2.016  26.476  0.00  0.00    +0.261 C 
BRANCH  14  15
ATOM     15  C   UNL     1       8.928  -1.103  26.651  0.00  0.00    +0.166 C 
BRANCH  15  16
ATOM     16  O   UNL     1       8.760  -0.280  27.813  0.00  0.00    -0.387 OA
ATOM     17  H   UNL     1       9.517   0.335  27.827  0.00  0.00    +0.210 HD
ENDBRANCH  15  16
BRANCH  15  18
ATOM     18  C   UNL     1       9.108  -0.215  25.405  0.00  0.00    +0.116 C 
BRANCH  18  19
ATOM     19  N   UNL     1       9.634  -0.975  24.265  0.00  0.00    -0.309 NA
ATOM     20  H   UNL     1      10.657  -0.950  24.310  0.00  0.00    +0.123 HD
BRANCH  19  22
ATOM     21  C   UNL     1       7.630  -0.377  22.885  0.00  0.00    +0.027 C 
ATOM     22  C   UNL     1       9.161  -0.522  22.942  0.00  0.00    +0.011 C 
ATOM     23  C   UNL     1       9.784   0.864  22.689  0.00  0.00    +0.027 C 
ATOM     24  C   UNL     1       9.642  -1.474  21.834  0.00  0.00    +0.027 C 
ENDBRANCH  19  22
ENDBRANCH  18  19
ENDBRANCH  15  18
ENDBRANCH  14  15
ENDBRANCH   1  14
TORSDOF 7
ENDMDL
MODEL 8
REMARK VINA RESULT:      -5.9      2.032      3.368
REMARK  Name = 
REMARK  10 active torsions:
REMARK  status: ('A' for Active; 'I' for Inactive)
REMARK    1  A    between atoms: C_1  and  C_2
REMARK    2  A    between atoms: C_2  and  C_3
REMARK    3  A    between atoms: C_2  and  C_4
REMARK    4  A    between atoms: C_2  and  N_5
REMARK    5  A    between atoms: N_5  and  C_6
REMARK    6  A    between atoms: C_6  and  C_7
REMARK    7  A    between atoms: C_7  and  O_8
REMARK    8  A    between atoms: C_7  and  C_9
REMARK    9  A    between atoms: C_9  and  O_10
REMARK   10  A    between atoms: O_10  and  C_11
REMARK                            x       y       z     vdW  Elec       q    Type
REMARK                         _______ _______ _______ _____ _____    ______ ____
ROOT
ATOM      1  O   UNL     1       9.551  -1.937  24.551  0.00  0.00    -0.489 OA
ENDROOT
BRANCH   1   2
ATOM      2  C   UNL     1       8.518  -2.633  23.972  0.00  0.00    +0.126 A 
ATOM      3  C   UNL     1       7.835  -3.549  24.797  0.00  0.00    +0.016 A 
ATOM      4  C   UNL     1       8.218  -3.760  26.243  0.00  0.00    +0.050 C 
ATOM      5  C   UNL     1       7.100  -4.399  27.055  0.00  0.00    +0.101 C 
ATOM      6  C   UNL     1       6.446  -5.548  26.332  0.00  0.00    +0.218 C 
ATOM      7  N   UNL     1       6.248  -5.380  24.991  0.00  0.00    -0.285 N 
ATOM      8  H   UNL     1       5.678  -6.082  24.539  0.00  0.00    +0.155 HD
ATOM      9  O   UNL     1       6.001  -6.533  26.919  0.00  0.00    -0.275 OA
ATOM     10  C   UNL     1       6.846  -4.369  24.232  0.00  0.00    +0.040 A 
ATOM     11  C   UNL     1       6.484  -4.239  22.893  0.00  0.00    +0.024 A 
ATOM     12  C   UNL     1       7.117  -3.288  22.099  0.00  0.00    +0.005 A 
ATOM     13  C   UNL     1       8.135  -2.497  22.633  0.00  0.00    +0.046 A 
ENDBRANCH   1   2
BRANCH   1  14
ATOM     14  C   UNL     1      10.225  -0.970  23.727  0.00  0.00    +0.261 C 
BRANCH  14  15
ATOM     15  C   UNL     1      10.518   0.292  24.553  0.00  0.00    +0.166 C 
BRANCH  15  16
ATOM     16  O   UNL     1       9.639   0.348  25.685  0.00  0.00    -0.387 OA
ATOM     17  H   UNL     1       9.791   1.213  26.110  0.00  0.00    +0.210 HD
ENDBRANCH  15  16
BRANCH  15  18
ATOM     18  C   UNL     1      10.327   1.550  23.683  0.00  0.00    +0.116 C 
BRANCH  18  19
ATOM     19  N   UNL     1       9.028   2.187  23.924  0.00  0.00    -0.309 NA
ATOM     20  H   UNL     1       8.646   1.811  24.796  0.00  0.00    +0.123 HD
BRANCH  19  22
ATOM     21  C   UNL     1       7.349   3.375  22.493  0.00  0.00    +0.027 C 
ATOM     22  C   UNL     1       8.052   2.048  22.826  0.00  0.00    +0.011 C 
ATOM     23  C   UNL     1       8.835   1.594  21.579  0.00  0.00    +0.027 C 
ATOM     24  C   UNL     1       7.008   0.967  23.156  0.00  0.00    +0.027 C 
ENDBRANCH  19  22
ENDBRANCH  18  19
ENDBRANCH  15  18
ENDBRANCH  14  15
ENDBRANCH   1  14
TORSDOF 7
ENDMDL
MODEL 9
REMARK VINA RESULT:      -5.8      2.002      7.024
REMARK  Name = 
REMARK  10 active torsions:
REMARK  status: ('A' for Active; 'I' for Inactive)
REMARK    1  A    between atoms: C_1  and  C_2
REMARK    2  A    between atoms: C_2  and  C_3
REMARK    3  A    between atoms: C_2  and  C_4
REMARK    4  A    between atoms: C_2  and  N_5
REMARK    5  A    between atoms: N_5  and  C_6
REMARK    6  A    between atoms: C_6  and  C_7
REMARK    7  A    between atoms: C_7  and  O_8
REMARK    8  A    between atoms: C_7  and  C_9
REMARK    9  A    between atoms: C_9  and  O_10
REMARK   10  A    between atoms: O_10  and  C_11
REMARK                            x       y       z     vdW  Elec       q    Type
REMARK                         _______ _______ _______ _____ _____    ______ ____
ROOT
ATOM      1  O   UNL     1       8.131  -2.690  22.255  0.00  0.00    -0.489 OA
ENDROOT
BRANCH   1   2
ATOM      2  C   UNL     1       8.413  -1.991  23.403  0.00  0.00    +0.126 A 
ATOM      3  C   UNL     1       8.950  -0.698  23.240  0.00  0.00    +0.016 A 
ATOM      4  C   UNL     1       9.207  -0.109  21.872  0.00  0.00    +0.050 C 
ATOM      5  C   UNL     1       9.322   1.409  21.904  0.00  0.00    +0.101 C 
ATOM      6  C   UNL     1      10.175   1.899  23.046  0.00  0.00    +0.218 C 
ATOM      7  N   UNL     1      10.021   1.243  24.234  0.00  0.00    -0.285 N 
ATOM      8  H   UNL     1      10.478   1.665  25.032  0.00  0.00    +0.155 HD
ATOM      9  O   UNL     1      10.880   2.903  22.964  0.00  0.00    -0.275 OA
ATOM     10  C   UNL     1       9.361   0.018  24.374  0.00  0.00    +0.040 A 
ATOM     11  C   UNL     1       9.180  -0.499  25.655  0.00  0.00    +0.024 A 
ATOM     12  C   UNL     1       8.590  -1.748  25.814  0.00  0.00    +0.005 A 
ATOM     13  C   UNL     1       8.218  -2.494  24.694  0.00  0.00    +0.046 A 
ENDBRANCH   1   2
BRANCH   1  14
ATOM     14  C   UNL     1       6.800  -3.217  22.126  0.00  0.00    +0.261 C 
BRANCH  14  15
ATOM     15  C   UNL     1       6.871  -4.736  21.897  0.00  0.00    +0.166 C 
BRANCH  15  16
ATOM     16  O   UNL     1       5.987  -5.109  20.831  0.00  0.00    -0.387 OA
ATOM     17  H   UNL     1       5.089  -5.130  21.212  0.00  0.00    +0.210 HD
ENDBRANCH  15  16
BRANCH  15  18
ATOM     18  C   UNL     1       6.478  -5.484  23.186  0.00  0.00    +0.116 C 
BRANCH  18  19
ATOM     19  N   UNL     1       5.291  -6.324  22.988  0.00  0.00    -0.309 NA
ATOM     20  H   UNL     1       5.003  -6.242  22.009  0.00  0.00    +0.123 HD
BRANCH  19  22
ATOM     21  C   UNL     1       2.818  -5.955  23.141  0.00  0.00    +0.027 C 
ATOM     22  C   UNL     1       4.160  -6.027  23.889  0.00  0.00    +0.011 C 
ATOM     23  C   UNL     1       4.080  -7.180  24.908  0.00  0.00    +0.027 C 
ATOM     24  C   UNL     1       4.405  -4.719  24.661  0.00  0.00    +0.027 C 
ENDBRANCH  19  22
ENDBRANCH  18  19
ENDBRANCH  15  18
ENDBRANCH  14  15
ENDBRANCH   1  14
TORSDOF 7
ENDMDL
