MODEL 1
REMARK VINA RESULT:      -6.8      0.000      0.000
REMARK  Name = 
REMARK  10 active torsions:
REMARK  status: ('A' for Active; 'I' for Inactive)
REMARK    1  A    between atoms: C_2  and  C_25
REMARK    2  A    between atoms: C_3  and  C_5
REMARK    3  A    between atoms: C_8  and  C_9
REMARK    4  A    between atoms: C_9  and  N_10
REMARK    5  A    between atoms: N_10  and  C_11
REMARK    6  A    between atoms: C_11  and  C_12
REMARK    7  A    between atoms: C_12  and  C_13
REMARK    8  A    between atoms: C_14  and  C_15
REMARK    9  A    between atoms: C_25  and  O_26
REMARK   10  A    between atoms: N_27  and  O_28
REMARK                            x       y       z     vdW  Elec       q    Type
REMARK                         _______ _______ _______ _____ _____    ______ ____
ROOT
ATOM      1  C   UNL     1       8.415  -4.735  26.535  0.00  0.00    +0.116 C 
ENDROOT
BRANCH   1   5
ATOM      2  C   UNL     1       9.784  -1.169  24.548  0.00  0.00    -0.025 A 
ATOM      3  C   UNL     1       9.909  -2.410  23.918  0.00  0.00    +0.008 A 
ATOM      4  C   UNL     1       9.411  -3.560  24.534  0.00  0.00    +0.005 A 
ATOM      5  C   UNL     1       8.787  -3.479  25.787  0.00  0.00    -0.034 A 
ATOM      6  C   UNL     1       8.625  -2.223  26.390  0.00  0.00    +0.005 A 
ATOM      7  C   UNL     1       9.120  -1.074  25.773  0.00  0.00    +0.008 A 
BRANCH   2   9
ATOM      8  C   UNL     1       9.643   1.014  23.489  0.00  0.00    +0.070 C 
ATOM      9  C   UNL     1      10.404   0.021  23.973  0.00  0.00    +0.013 C 
BRANCH   8  10
ATOM     10  C   UNL     1      10.299   2.185  22.889  0.00  0.00    +0.248 C 
ATOM     11  N   UNL     1      10.961   3.077  23.547  0.00  0.00    -0.049 NA
BRANCH  11  12
ATOM     12  O   UNL     1      11.475   4.060  22.690  0.00  0.00    -0.406 OA
ATOM     13  H   UNL     1      12.178   4.458  23.232  0.00  0.00    +0.328 HD
ENDBRANCH  11  12
BRANCH  10  14
ATOM     14  O   UNL     1      10.128   2.231  21.551  0.00  0.00    -0.490 OA
ATOM     15  H   UNL     1      10.941   2.412  21.059  0.00  0.00    +0.294 HD
ENDBRANCH  10  14
ENDBRANCH   8  10
ENDBRANCH   2   9
ENDBRANCH   1   5
BRANCH   1  16
ATOM     16  N   UNL     1       7.618  -5.656  25.725  0.00  0.00    -0.312 NA
ATOM     17  H   UNL     1       7.932  -6.605  25.927  0.00  0.00    +0.122 HD
BRANCH  16  18
ATOM     18  C   UNL     1       6.184  -5.554  26.041  0.00  0.00    +0.086 C 
BRANCH  18  19
ATOM     19  C   UNL     1       5.293  -5.375  24.801  0.00  0.00    +0.052 C 
BRANCH  19  20
ATOM     20  C   UNL     1       5.792  -4.307  23.879  0.00  0.00    -0.018 A 
ATOM     21  C   UNL     1       5.763  -2.899  24.148  0.00  0.00    +0.003 A 
ATOM     22  C   UNL     1       6.374  -2.256  23.076  0.00  0.00    +0.047 A 
ATOM     23  C   UNL     1       6.546  -0.868  23.021  0.00  0.00    +0.026 A 
ATOM     24  C   UNL     1       6.065  -0.113  24.094  0.00  0.00    +0.002 A 
ATOM     25  C   UNL     1       5.437  -0.723  25.178  0.00  0.00    +0.001 A 
ATOM     26  N   UNL     1       6.737  -3.229  22.176  0.00  0.00    -0.358 N 
ATOM     27  H   UNL     1       7.203  -3.045  21.300  0.00  0.00    +0.166 HD
ATOM     28  C   UNL     1       5.282  -2.114  25.218  0.00  0.00    +0.010 A 
ATOM     29  C   UNL     1       6.388  -4.474  22.638  0.00  0.00    +0.017 A 
ATOM     30  C   UNL     1       6.684  -5.688  21.835  0.00  0.00    +0.063 C 
ENDBRANCH  19  20
ENDBRANCH  18  19
ENDBRANCH  16  18
ENDBRANCH   1  16
TORSDOF 9
ENDMDL
MODEL 2
REMARK VINA RESULT:      -6.7      3.562      6.546
REMARK  Name = 
REMARK  10 active torsions:
REMARK  status: ('A' for Active; 'I' for Inactive)
REMARK    1  A    between atoms: C_2  and  C_25
REMARK    2  A    between atoms: C_3  and  C_5
REMARK    3  A    between atoms: C_8  and  C_9
REMARK    4  A    between atoms: C_9  and  N_10
REMARK    5  A    between atoms: N_10  and  C_11
REMARK    6  A    between atoms: C_11  and  C_12
REMARK    7  A    between atoms: C_12  and  C_13
REMARK    8  A    between atoms: C_14  and  C_15
REMARK    9  A    between atoms: C_25  and  O_26
REMARK   10  A    between atoms: N_27  and  O_28
REMARK                            x       y       z     vdW  Elec       q    Type
REMARK                         _______ _______ _______ _____ _____    ______ ____
ROOT
ATOM      1  C   UNL     1       9.889   1.369  21.892  0.00  0.00    +0.116 C 
ENDROOT
BRANCH   1   5
ATOM      2  C   UNL     1       9.119  -2.414  23.797  0.00  0.00    -0.025 A 
ATOM      3  C   UNL     1       8.724  -2.207  22.474  0.00  0.00    +0.008 A 
ATOM      4  C   UNL     1       9.026  -1.003  21.834  0.00  0.00    +0.005 A 
ATOM      5  C   UNL     1       9.723   0.005  22.514  0.00  0.00    -0.034 A 
ATOM      6  C   UNL     1      10.156  -0.230  23.827  0.00  0.00    +0.005 A 
ATOM      7  C   UNL     1       9.857  -1.434  24.465  0.00  0.00    +0.008 A 
BRANCH   2   9
ATOM      8  C   UNL     1       8.817  -3.680  25.851  0.00  0.00    +0.070 C 
ATOM      9  C   UNL     1       8.708  -3.617  24.515  0.00  0.00    +0.013 C 
BRANCH   8  10
ATOM     10  C   UNL     1       8.423  -4.917  26.539  0.00  0.00    +0.248 C 
ATOM     11  N   UNL     1       7.589  -4.981  27.523  0.00  0.00    -0.049 NA
BRANCH  11  12
ATOM     12  O   UNL     1       7.413  -6.303  27.954  0.00  0.00    -0.406 OA
ATOM     13  H   UNL     1       8.303  -6.678  27.835  0.00  0.00    +0.328 HD
ENDBRANCH  11  12
BRANCH  10  14
ATOM     14  O   UNL     1       9.042  -6.001  26.026  0.00  0.00    -0.490 OA
ATOM     15  H   UNL     1       9.394  -5.866  25.135  0.00  0.00    +0.294 HD
ENDBRANCH  10  14
ENDBRANCH   8  10
ENDBRANCH   2   9
ENDBRANCH   1   5
BRANCH   1  16
ATOM     16  N   UNL     1       8.677   1.826  21.211  0.00  0.00    -0.312 NA
ATOM     17  H   UNL     1       8.052   1.026  21.110  0.00  0.00    +0.122 HD
BRANCH  16  18
ATOM     18  C   UNL     1       7.986   2.873  21.980  0.00  0.00    +0.086 C 
BRANCH  18  19
ATOM     19  C   UNL     1       6.774   2.356  22.772  0.00  0.00    +0.052 C 
BRANCH  19  20
ATOM     20  C   UNL     1       7.123   1.966  24.175  0.00  0.00    -0.018 A 
ATOM     21  C   UNL     1       6.738   0.743  24.816  0.00  0.00    +0.003 A 
ATOM     22  C   UNL     1       7.311   0.738  26.084  0.00  0.00    +0.047 A 
ATOM     23  C   UNL     1       7.165  -0.329  26.978  0.00  0.00    +0.026 A 
ATOM     24  C   UNL     1       6.395  -1.420  26.565  0.00  0.00    +0.002 A 
ATOM     25  C   UNL     1       5.797  -1.442  25.307  0.00  0.00    +0.001 A 
ATOM     26  N   UNL     1       7.995   1.921  26.222  0.00  0.00    -0.358 N 
ATOM     27  H   UNL     1       8.511   2.185  27.049  0.00  0.00    +0.166 HD
ATOM     28  C   UNL     1       5.962  -0.370  24.423  0.00  0.00    +0.010 A 
ATOM     29  C   UNL     1       7.889   2.681  25.083  0.00  0.00    +0.017 A 
ATOM     30  C   UNL     1       8.552   4.007  24.995  0.00  0.00    +0.063 C 
ENDBRANCH  19  20
ENDBRANCH  18  19
ENDBRANCH  16  18
ENDBRANCH   1  16
TORSDOF 9
ENDMDL
MODEL 3
REMARK VINA RESULT:      -6.6      3.548      5.911
REMARK  Name = 
REMARK  10 active torsions:
REMARK  status: ('A' for Active; 'I' for Inactive)
REMARK    1  A    between atoms: C_2  and  C_25
REMARK    2  A    between atoms: C_3  and  C_5
REMARK    3  A    between atoms: C_8  and  C_9
REMARK    4  A    between atoms: C_9  and  N_10
REMARK    5  A    between atoms: N_10  and  C_11
REMARK    6  A    between atoms: C_11  and  C_12
REMARK    7  A    between atoms: C_12  and  C_13
REMARK    8  A    between atoms: C_14  and  C_15
REMARK    9  A    between atoms: C_25  and  O_26
REMARK   10  A    between atoms: N_27  and  O_28
REMARK                            x       y       z     vdW  Elec       q    Type
REMARK                         _______ _______ _______ _____ _____    ______ ____
ROOT
ATOM      1  C   UNL     1       4.973   2.942  24.868  0.00  0.00    +0.116 C 
ENDROOT
BRANCH   1   5
ATOM      2  C   UNL     1       8.637   4.933  23.797  0.00  0.00    -0.025 A 
ATOM      3  C   UNL     1       7.538   4.983  22.936  0.00  0.00    +0.008 A 
ATOM      4  C   UNL     1       6.330   4.390  23.308  0.00  0.00    +0.005 A 
ATOM      5  C   UNL     1       6.212   3.739  24.543  0.00  0.00    -0.034 A 
ATOM      6  C   UNL     1       7.305   3.735  25.421  0.00  0.00    +0.005 A 
ATOM      7  C   UNL     1       8.511   4.330  25.051  0.00  0.00    +0.008 A 
BRANCH   2   9
ATOM      8  C   UNL     1      11.062   4.997  23.951  0.00  0.00    +0.070 C 
ATOM      9  C   UNL     1       9.937   5.444  23.373  0.00  0.00    +0.013 C 
BRANCH   8  10
ATOM     10  C   UNL     1      12.352   5.555  23.521  0.00  0.00    +0.248 C 
ATOM     11  N   UNL     1      12.885   5.371  22.360  0.00  0.00    -0.049 NA
BRANCH  11  12
ATOM     12  O   UNL     1      14.110   6.043  22.252  0.00  0.00    -0.406 OA
ATOM     13  H   UNL     1      14.043   6.709  22.958  0.00  0.00    +0.328 HD
ENDBRANCH  11  12
BRANCH  10  14
ATOM     14  O   UNL     1      12.934   6.291  24.491  0.00  0.00    -0.490 OA
ATOM     15  H   UNL     1      12.312   6.824  25.006  0.00  0.00    +0.294 HD
ENDBRANCH  10  14
ENDBRANCH   8  10
ENDBRANCH   2   9
ENDBRANCH   1   5
BRANCH   1  16
ATOM     16  N   UNL     1       5.018   1.586  24.322  0.00  0.00    -0.312 NA
ATOM     17  H   UNL     1       5.733   1.564  23.594  0.00  0.00    +0.122 HD
BRANCH  16  18
ATOM     18  C   UNL     1       5.364   0.596  25.354  0.00  0.00    +0.086 C 
BRANCH  18  19
ATOM     19  C   UNL     1       6.310  -0.507  24.856  0.00  0.00    +0.052 C 
BRANCH  19  20
ATOM     20  C   UNL     1       7.741  -0.066  24.814  0.00  0.00    -0.018 A 
ATOM     21  C   UNL     1       8.365   0.616  23.718  0.00  0.00    +0.003 A 
ATOM     22  C   UNL     1       9.673   0.903  24.097  0.00  0.00    +0.047 A 
ATOM     23  C   UNL     1      10.566   1.596  23.272  0.00  0.00    +0.026 A 
ATOM     24  C   UNL     1      10.109   1.997  22.014  0.00  0.00    +0.002 A 
ATOM     25  C   UNL     1       8.810   1.716  21.598  0.00  0.00    +0.001 A 
ATOM     26  N   UNL     1       9.849   0.392  25.359  0.00  0.00    -0.358 N 
ATOM     27  H   UNL     1      10.710   0.457  25.883  0.00  0.00    +0.166 HD
ATOM     28  C   UNL     1       7.928   1.029  22.441  0.00  0.00    +0.010 A 
ATOM     29  C   UNL     1       8.696  -0.204  25.808  0.00  0.00    +0.017 A 
ATOM     30  C   UNL     1       8.643  -0.826  27.156  0.00  0.00    +0.063 C 
ENDBRANCH  19  20
ENDBRANCH  18  19
ENDBRANCH  16  18
ENDBRANCH   1  16
TORSDOF 9
ENDMDL
MODEL 4
REMARK VINA RESULT:      -6.6      3.645      6.647
REMARK  Name = 
REMARK  10 active torsions:
REMARK  status: ('A' for Active; 'I' for Inactive)
REMARK    1  A    between atoms: C_2  and  C_25
REMARK    2  A    between atoms: C_3  and  C_5
REMARK    3  A    between atoms: C_8  and  C_9
REMARK    4  A    between atoms: C_9  and  N_10
REMARK    5  A    between atoms: N_10  and  C_11
REMARK    6  A    between atoms: C_11  and  C_12
REMARK    7  A    between atoms: C_12  and  C_13
REMARK    8  A    between atoms: C_14  and  C_15
REMARK    9  A    between atoms: C_25  and  O_26
REMARK   10  A    between atoms: N_27  and  O_28
REMARK                            x       y       z     vdW  Elec       q    Type
REMARK                         _______ _______ _______ _____ _____    ______ ____
ROOT
ATOM      1  C   UNL     1       9.412  -0.283  21.505  0.00  0.00    +0.116 C 
ENDROOT
BRANCH   1   5
ATOM      2  C   UNL     1       8.558  -3.606  24.106  0.00  0.00    -0.025 A 
ATOM      3  C   UNL     1       7.593  -3.165  23.198  0.00  0.00    +0.008 A 
ATOM      4  C   UNL     1       7.888  -2.128  22.312  0.00  0.00    +0.005 A 
ATOM      5  C   UNL     1       9.150  -1.519  22.329  0.00  0.00    -0.034 A 
ATOM      6  C   UNL     1      10.129  -2.000  23.212  0.00  0.00    +0.005 A 
ATOM      7  C   UNL     1       9.835  -3.039  24.095  0.00  0.00    +0.008 A 
BRANCH   2   9
ATOM      8  C   UNL     1       6.967  -4.725  25.565  0.00  0.00    +0.070 C 
ATOM      9  C   UNL     1       8.226  -4.607  25.116  0.00  0.00    +0.013 C 
BRANCH   8  10
ATOM     10  C   UNL     1       6.674  -5.722  26.604  0.00  0.00    +0.248 C 
ATOM     11  N   UNL     1       5.591  -6.422  26.670  0.00  0.00    -0.049 NA
BRANCH  11  12
ATOM     12  O   UNL     1       5.616  -7.292  27.768  0.00  0.00    -0.406 OA
ATOM     13  H   UNL     1       6.506  -7.679  27.704  0.00  0.00    +0.328 HD
ENDBRANCH  11  12
BRANCH  10  14
ATOM     14  O   UNL     1       7.675  -5.827  27.502  0.00  0.00    -0.490 OA
ATOM     15  H   UNL     1       8.440  -5.268  27.304  0.00  0.00    +0.294 HD
ENDBRANCH  10  14
ENDBRANCH   8  10
ENDBRANCH   2   9
ENDBRANCH   1   5
BRANCH   1  16
ATOM     16  N   UNL     1      10.267   0.682  22.197  0.00  0.00    -0.312 NA
ATOM     17  H   UNL     1      11.143   0.752  21.680  0.00  0.00    +0.122 HD
BRANCH  16  18
ATOM     18  C   UNL     1       9.643   2.014  22.256  0.00  0.00    +0.086 C 
BRANCH  18  19
ATOM     19  C   UNL     1       9.076   2.366  23.641  0.00  0.00    +0.052 C 
BRANCH  19  20
ATOM     20  C   UNL     1       7.848   1.578  23.979  0.00  0.00    -0.018 A 
ATOM     21  C   UNL     1       7.770   0.555  24.982  0.00  0.00    +0.003 A 
ATOM     22  C   UNL     1       6.450   0.117  25.028  0.00  0.00    +0.047 A 
ATOM     23  C   UNL     1       6.008  -0.864  25.923  0.00  0.00    +0.026 A 
ATOM     24  C   UNL     1       6.951  -1.423  26.791  0.00  0.00    +0.002 A 
ATOM     25  C   UNL     1       8.283  -1.016  26.762  0.00  0.00    +0.001 A 
ATOM     26  N   UNL     1       5.757   0.821  24.075  0.00  0.00    -0.358 N 
ATOM     27  H   UNL     1       4.771   0.707  23.889  0.00  0.00    +0.166 HD
ATOM     28  C   UNL     1       8.705  -0.027  25.866  0.00  0.00    +0.010 A 
ATOM     29  C   UNL     1       6.584   1.704  23.425  0.00  0.00    +0.017 A 
ATOM     30  C   UNL     1       6.056   2.583  22.350  0.00  0.00    +0.063 C 
ENDBRANCH  19  20
ENDBRANCH  18  19
ENDBRANCH  16  18
ENDBRANCH   1  16
TORSDOF 9
ENDMDL
MODEL 5
REMARK VINA RESULT:      -6.5      2.217      4.126
REMARK  Name = 
REMARK  10 active torsions:
REMARK  status: ('A' for Active; 'I' for Inactive)
REMARK    1  A    between atoms: C_2  and  C_25
REMARK    2  A    between atoms: C_3  and  C_5
REMARK    3  A    between atoms: C_8  and  C_9
REMARK    4  A    between atoms: C_9  and  N_10
REMARK    5  A    between atoms: N_10  and  C_11
REMARK    6  A    between atoms: C_11  and  C_12
REMARK    7  A    between atoms: C_12  and  C_13
REMARK    8  A    between atoms: C_14  and  C_15
REMARK    9  A    between atoms: C_25  and  O_26
REMARK   10  A    between atoms: N_27  and  O_28
REMARK                            x       y       z     vdW  Elec       q    Type
REMARK                         _______ _______ _______ _____ _____    ______ ____
ROOT
ATOM      1  C   UNL     1       4.136  -6.214  23.205  0.00  0.00    +0.116 C 
ENDROOT
BRANCH   1   5
ATOM      2  C   UNL     1       7.178  -3.233  22.581  0.00  0.00    -0.025 A 
ATOM      3  C   UNL     1       5.873  -2.843  22.887  0.00  0.00    +0.008 A 
ATOM      4  C   UNL     1       4.898  -3.808  23.150  0.00  0.00    +0.005 A 
ATOM      5  C   UNL     1       5.221  -5.171  23.105  0.00  0.00    -0.034 A 
ATOM      6  C   UNL     1       6.545  -5.552  22.843  0.00  0.00    +0.005 A 
ATOM      7  C   UNL     1       7.519  -4.588  22.583  0.00  0.00    +0.008 A 
BRANCH   2   9
ATOM      8  C   UNL     1       7.972  -0.939  22.436  0.00  0.00    +0.070 C 
ATOM      9  C   UNL     1       8.176  -2.242  22.189  0.00  0.00    +0.013 C 
BRANCH   8  10
ATOM     10  C   UNL     1       8.983   0.034  22.000  0.00  0.00    +0.248 C 
ATOM     11  N   UNL     1       8.840   1.316  22.044  0.00  0.00    -0.049 NA
BRANCH  11  12
ATOM     12  O   UNL     1       9.985   1.971  21.570  0.00  0.00    -0.406 OA
ATOM     13  H   UNL     1      10.695   1.364  21.839  0.00  0.00    +0.328 HD
ENDBRANCH  11  12
BRANCH  10  14
ATOM     14  O   UNL     1      10.097  -0.568  21.534  0.00  0.00    -0.490 OA
ATOM     15  H   UNL     1      10.825   0.044  21.351  0.00  0.00    +0.294 HD
ENDBRANCH  10  14
ENDBRANCH   8  10
ENDBRANCH   2   9
ENDBRANCH   1   5
BRANCH   1  16
ATOM     16  N   UNL     1       4.488  -7.305  24.115  0.00  0.00    -0.312 NA
ATOM     17  H   UNL     1       5.502  -7.303  24.230  0.00  0.00    +0.122 HD
BRANCH  16  18
ATOM     18  C   UNL     1       3.861  -7.133  25.435  0.00  0.00    +0.086 C 
BRANCH  18  19
ATOM     19  C   UNL     1       4.860  -6.782  26.549  0.00  0.00    +0.052 C 
BRANCH  19  20
ATOM     20  C   UNL     1       5.141  -5.314  26.631  0.00  0.00    -0.018 A 
ATOM     21  C   UNL     1       6.431  -4.707  26.475  0.00  0.00    +0.003 A 
ATOM     22  C   UNL     1       6.257  -3.329  26.557  0.00  0.00    +0.047 A 
ATOM     23  C   UNL     1       7.313  -2.421  26.416  0.00  0.00    +0.026 A 
ATOM     24  C   UNL     1       8.591  -2.942  26.196  0.00  0.00    +0.002 A 
ATOM     25  C   UNL     1       8.803  -4.317  26.121  0.00  0.00    +0.001 A 
ATOM     26  N   UNL     1       4.921  -3.104  26.783  0.00  0.00    -0.358 N 
ATOM     27  H   UNL     1       4.509  -2.188  26.884  0.00  0.00    +0.166 HD
ATOM     28  C   UNL     1       7.733  -5.209  26.256  0.00  0.00    +0.010 A 
ATOM     29  C   UNL     1       4.230  -4.290  26.837  0.00  0.00    +0.017 A 
ATOM     30  C   UNL     1       2.763  -4.299  27.069  0.00  0.00    +0.063 C 
ENDBRANCH  19  20
ENDBRANCH  18  19
ENDBRANCH  16  18
ENDBRANCH   1  16
TORSDOF 9
ENDMDL
MODEL 6
REMARK VINA RESULT:      -6.5      3.731      6.698
REMARK  Name = 
REMARK  10 active torsions:
REMARK  status: ('A' for Active; 'I' for Inactive)
REMARK    1  A    between atoms: C_2  and  C_25
REMARK    2  A    between atoms: C_3  and  C_5
REMARK    3  A    between atoms: C_8  and  C_9
REMARK    4  A    between atoms: C_9  and  N_10
REMARK    5  A    between atoms: N_10  and  C_11
REMARK    6  A    between atoms: C_11  and  C_12
REMARK    7  A    between atoms: C_12  and  C_13
REMARK    8  A    between atoms: C_14  and  C_15
REMARK    9  A    between atoms: C_25  and  O_26
REMARK   10  A    between atoms: N_27  and  O_28
REMARK                            x       y       z     vdW  Elec       q    Type
REMARK                         _______ _______ _______ _____ _____    ______ ____
ROOT
ATOM      1  C   UNL     1       9.950  -0.834  21.864  0.00  0.00    +0.116 C 
ENDROOT
BRANCH   1   5
ATOM      2  C   UNL     1       7.979  -3.957  24.079  0.00  0.00    -0.025 A 
ATOM      3  C   UNL     1       7.440  -3.512  22.870  0.00  0.00    +0.008 A 
ATOM      4  C   UNL     1       8.108  -2.543  22.120  0.00  0.00    +0.005 A 
ATOM      5  C   UNL     1       9.321  -2.007  22.574  0.00  0.00    -0.034 A 
ATOM      6  C   UNL     1       9.879  -2.493  23.766  0.00  0.00    +0.005 A 
ATOM      7  C   UNL     1       9.212  -3.464  24.514  0.00  0.00    +0.008 A 
BRANCH   2   9
ATOM      8  C   UNL     1       7.516  -4.973  26.238  0.00  0.00    +0.070 C 
ATOM      9  C   UNL     1       7.235  -4.880  24.929  0.00  0.00    +0.013 C 
BRANCH   8  10
ATOM     10  C   UNL     1       6.768  -5.935  27.059  0.00  0.00    +0.248 C 
ATOM     11  N   UNL     1       5.629  -6.452  26.736  0.00  0.00    -0.049 NA
BRANCH  11  12
ATOM     12  O   UNL     1       5.179  -7.342  27.721  0.00  0.00    -0.406 OA
ATOM     13  H   UNL     1       4.579  -7.919  27.218  0.00  0.00    +0.328 HD
ENDBRANCH  11  12
BRANCH  10  14
ATOM     14  O   UNL     1       7.407  -6.222  28.212  0.00  0.00    -0.490 OA
ATOM     15  H   UNL     1       7.939  -7.029  28.175  0.00  0.00    +0.294 HD
ENDBRANCH  10  14
ENDBRANCH   8  10
ENDBRANCH   2   9
ENDBRANCH   1   5
BRANCH   1  16
ATOM     16  N   UNL     1       8.994  -0.103  21.032  0.00  0.00    -0.312 NA
ATOM     17  H   UNL     1       8.083  -0.553  21.131  0.00  0.00    +0.122 HD
BRANCH  16  18
ATOM     18  C   UNL     1       8.875   1.302  21.451  0.00  0.00    +0.086 C 
BRANCH  18  19
ATOM     19  C   UNL     1       7.739   1.551  22.456  0.00  0.00    +0.052 C 
BRANCH  19  20
ATOM     20  C   UNL     1       8.081   1.092  23.840  0.00  0.00    -0.018 A 
ATOM     21  C   UNL     1       7.305   0.178  24.626  0.00  0.00    +0.003 A 
ATOM     22  C   UNL     1       7.992  -0.036  25.816  0.00  0.00    +0.047 A 
ATOM     23  C   UNL     1       7.531  -0.905  26.812  0.00  0.00    +0.026 A 
ATOM     24  C   UNL     1       6.321  -1.566  26.587  0.00  0.00    +0.002 A 
ATOM     25  C   UNL     1       5.601  -1.366  25.411  0.00  0.00    +0.001 A 
ATOM     26  N   UNL     1       9.126   0.737  25.772  0.00  0.00    -0.358 N 
ATOM     27  H   UNL     1       9.815   0.776  26.509  0.00  0.00    +0.166 HD
ATOM     28  C   UNL     1       6.082  -0.499  24.423  0.00  0.00    +0.010 A 
ATOM     29  C   UNL     1       9.196   1.431  24.590  0.00  0.00    +0.017 A 
ATOM     30  C   UNL     1      10.342   2.335  24.311  0.00  0.00    +0.063 C 
ENDBRANCH  19  20
ENDBRANCH  18  19
ENDBRANCH  16  18
ENDBRANCH   1  16
TORSDOF 9
ENDMDL
MODEL 7
REMARK VINA RESULT:      -6.5      1.557      2.737
REMARK  Name = 
REMARK  10 active torsions:
REMARK  status: ('A' for Active; 'I' for Inactive)
REMARK    1  A    between atoms: C_2  and  C_25
REMARK    2  A    between atoms: C_3  and  C_5
REMARK    3  A    between atoms: C_8  and  C_9
REMARK    4  A    between atoms: C_9  and  N_10
REMARK    5  A    between atoms: N_10  and  C_11
REMARK    6  A    between atoms: C_11  and  C_12
REMARK    7  A    between atoms: C_12  and  C_13
REMARK    8  A    between atoms: C_14  and  C_15
REMARK    9  A    between atoms: C_25  and  O_26
REMARK   10  A    between atoms: N_27  and  O_28
REMARK                            x       y       z     vdW  Elec       q    Type
REMARK                         _______ _______ _______ _____ _____    ______ ____
ROOT
ATOM      1  C   UNL     1       6.754  -3.273  26.908  0.00  0.00    +0.116 C 
ENDROOT
BRANCH   1   5
ATOM      2  C   UNL     1       7.770   0.463  25.024  0.00  0.00    -0.025 A 
ATOM      3  C   UNL     1       6.557  -0.162  24.726  0.00  0.00    +0.008 A 
ATOM      4  C   UNL     1       6.198  -1.342  25.380  0.00  0.00    +0.005 A 
ATOM      5  C   UNL     1       7.050  -1.909  26.336  0.00  0.00    -0.034 A 
ATOM      6  C   UNL     1       8.245  -1.250  26.663  0.00  0.00    +0.005 A 
ATOM      7  C   UNL     1       8.602  -0.070  26.012  0.00  0.00    +0.008 A 
BRANCH   2   9
ATOM      8  C   UNL     1       9.454   2.109  24.423  0.00  0.00    +0.070 C 
ATOM      9  C   UNL     1       8.211   1.629  24.266  0.00  0.00    +0.013 C 
BRANCH   8  10
ATOM     10  C   UNL     1       9.856   3.303  23.666  0.00  0.00    +0.248 C 
ATOM     11  N   UNL     1       9.629   4.520  24.033  0.00  0.00    -0.049 NA
BRANCH  11  12
ATOM     12  O   UNL     1      10.145   5.434  23.104  0.00  0.00    -0.406 OA
ATOM     13  H   UNL     1       9.418   6.075  23.021  0.00  0.00    +0.328 HD
ENDBRANCH  11  12
BRANCH  10  14
ATOM     14  O   UNL     1      10.495   2.986  22.521  0.00  0.00    -0.490 OA
ATOM     15  H   UNL     1      10.520   2.036  22.336  0.00  0.00    +0.294 HD
ENDBRANCH  10  14
ENDBRANCH   8  10
ENDBRANCH   2   9
ENDBRANCH   1   5
BRANCH   1  16
ATOM     16  N   UNL     1       7.937  -4.132  26.954  0.00  0.00    -0.312 NA
ATOM     17  H   UNL     1       8.054  -4.454  27.915  0.00  0.00    +0.122 HD
BRANCH  16  18
ATOM     18  C   UNL     1       7.792  -5.303  26.076  0.00  0.00    +0.086 C 
BRANCH  18  19
ATOM     19  C   UNL     1       8.677  -5.245  24.821  0.00  0.00    +0.052 C 
BRANCH  19  20
ATOM     20  C   UNL     1       8.175  -4.265  23.805  0.00  0.00    -0.018 A 
ATOM     21  C   UNL     1       8.873  -3.089  23.373  0.00  0.00    +0.003 A 
ATOM     22  C   UNL     1       8.103  -2.488  22.382  0.00  0.00    +0.047 A 
ATOM     23  C   UNL     1       8.502  -1.325  21.713  0.00  0.00    +0.026 A 
ATOM     24  C   UNL     1       9.722  -0.752  22.080  0.00  0.00    +0.002 A 
ATOM     25  C   UNL     1      10.512  -1.321  23.077  0.00  0.00    +0.001 A 
ATOM     26  N   UNL     1       6.969  -3.249  22.235  0.00  0.00    -0.358 N 
ATOM     27  H   UNL     1       6.230  -3.045  21.578  0.00  0.00    +0.166 HD
ATOM     28  C   UNL     1      10.101  -2.489  23.729  0.00  0.00    +0.010 A 
ATOM     29  C   UNL     1       6.990  -4.324  23.090  0.00  0.00    +0.017 A 
ATOM     30  C   UNL     1       5.867  -5.296  23.108  0.00  0.00    +0.063 C 
ENDBRANCH  19  20
ENDBRANCH  18  19
ENDBRANCH  16  18
ENDBRANCH   1  16
TORSDOF 9
ENDMDL
MODEL 8
REMARK VINA RESULT:      -6.4      3.826      6.920
REMARK  Name = 
REMARK  10 active torsions:
REMARK  status: ('A' for Active; 'I' for Inactive)
REMARK    1  A    between atoms: C_2  and  C_25
REMARK    2  A    between atoms: C_3  and  C_5
REMARK    3  A    between atoms: C_8  and  C_9
REMARK    4  A    between atoms: C_9  and  N_10
REMARK    5  A    between atoms: N_10  and  C_11
REMARK    6  A    between atoms: C_11  and  C_12
REMARK    7  A    between atoms: C_12  and  C_13
REMARK    8  A    between atoms: C_14  and  C_15
REMARK    9  A    between atoms: C_25  and  O_26
REMARK   10  A    between atoms: N_27  and  O_28
REMARK                            x       y       z     vdW  Elec       q    Type
REMARK                         _______ _______ _______ _____ _____    ______ ____
ROOT
ATOM      1  C   UNL     1       6.427   1.356  24.060  0.00  0.00    +0.116 C 
ENDROOT
BRANCH   1   5
ATOM      2  C   UNL     1       6.544  -2.244  26.418  0.00  0.00    -0.025 A 
ATOM      3  C   UNL     1       7.247  -1.113  26.837  0.00  0.00    +0.008 A 
ATOM      4  C   UNL     1       7.162   0.074  26.107  0.00  0.00    +0.005 A 
ATOM      5  C   UNL     1       6.376   0.138  24.949  0.00  0.00    -0.034 A 
ATOM      6  C   UNL     1       5.637  -0.989  24.561  0.00  0.00    +0.005 A 
ATOM      7  C   UNL     1       5.719  -2.174  25.292  0.00  0.00    +0.008 A 
BRANCH   2   9
ATOM      8  C   UNL     1       5.973  -4.583  26.755  0.00  0.00    +0.070 C 
ATOM      9  C   UNL     1       6.716  -3.522  27.102  0.00  0.00    +0.013 C 
BRANCH   8  10
ATOM     10  C   UNL     1       6.151  -5.846  27.486  0.00  0.00    +0.248 C 
ATOM     11  N   UNL     1       5.211  -6.699  27.723  0.00  0.00    -0.049 NA
BRANCH  11  12
ATOM     12  O   UNL     1       5.699  -7.806  28.431  0.00  0.00    -0.406 OA
ATOM     13  H   UNL     1       5.513  -7.560  29.353  0.00  0.00    +0.328 HD
ENDBRANCH  11  12
BRANCH  10  14
ATOM     14  O   UNL     1       7.425  -6.019  27.895  0.00  0.00    -0.490 OA
ATOM     15  H   UNL     1       7.953  -6.576  27.306  0.00  0.00    +0.294 HD
ENDBRANCH  10  14
ENDBRANCH   8  10
ENDBRANCH   2   9
ENDBRANCH   1   5
BRANCH   1  16
ATOM     16  N   UNL     1       6.558   1.012  22.644  0.00  0.00    -0.312 NA
ATOM     17  H   UNL     1       5.745   1.385  22.153  0.00  0.00    +0.122 HD
BRANCH  16  18
ATOM     18  C   UNL     1       7.775   1.594  22.055  0.00  0.00    +0.086 C 
BRANCH  18  19
ATOM     19  C   UNL     1       8.812   0.544  21.625  0.00  0.00    +0.052 C 
BRANCH  19  20
ATOM     20  C   UNL     1       9.217  -0.361  22.747  0.00  0.00    -0.018 A 
ATOM     21  C   UNL     1       8.771  -1.712  22.924  0.00  0.00    +0.003 A 
ATOM     22  C   UNL     1       9.422  -2.224  24.041  0.00  0.00    +0.047 A 
ATOM     23  C   UNL     1       9.243  -3.538  24.489  0.00  0.00    +0.026 A 
ATOM     24  C   UNL     1       8.357  -4.350  23.775  0.00  0.00    +0.002 A 
ATOM     25  C   UNL     1       7.678  -3.866  22.660  0.00  0.00    +0.001 A 
ATOM     26  N   UNL     1      10.213  -1.219  24.543  0.00  0.00    -0.358 N 
ATOM     27  H   UNL     1      10.803  -1.314  25.357  0.00  0.00    +0.166 HD
ATOM     28  C   UNL     1       7.877  -2.551  22.222  0.00  0.00    +0.010 A 
ATOM     29  C   UNL     1      10.099  -0.083  23.780  0.00  0.00    +0.017 A 
ATOM     30  C   UNL     1      10.867   1.140  24.127  0.00  0.00    +0.063 C 
ENDBRANCH  19  20
ENDBRANCH  18  19
ENDBRANCH  16  18
ENDBRANCH   1  16
TORSDOF 9
ENDMDL
MODEL 9
REMARK VINA RESULT:      -6.3      3.807      6.691
REMARK  Name = 
REMARK  10 active torsions:
REMARK  status: ('A' for Active; 'I' for Inactive)
REMARK    1  A    between atoms: C_2  and  C_25
REMARK    2  A    between atoms: C_3  and  C_5
REMARK    3  A    between atoms: C_8  and  C_9
REMARK    4  A    between atoms: C_9  and  N_10
REMARK    5  A    between atoms: N_10  and  C_11
REMARK    6  A    between atoms: C_11  and  C_12
REMARK    7  A    between atoms: C_12  and  C_13
REMARK    8  A    between atoms: C_14  and  C_15
REMARK    9  A    between atoms: C_25  and  O_26
REMARK   10  A    between atoms: N_27  and  O_28
REMARK                            x       y       z     vdW  Elec       q    Type
REMARK                         _______ _______ _______ _____ _____    ______ ____
ROOT
ATOM      1  C   UNL     1      10.554  -1.332  22.525  0.00  0.00    +0.116 C 
ENDROOT
BRANCH   1   5
ATOM      2  C   UNL     1       7.406  -4.028  23.690  0.00  0.00    -0.025 A 
ATOM      3  C   UNL     1       8.601  -3.997  24.413  0.00  0.00    +0.008 A 
ATOM      4  C   UNL     1       9.599  -3.082  24.075  0.00  0.00    +0.005 A 
ATOM      5  C   UNL     1       9.413  -2.192  23.009  0.00  0.00    -0.034 A 
ATOM      6  C   UNL     1       8.192  -2.198  22.319  0.00  0.00    +0.005 A 
ATOM      7  C   UNL     1       7.193  -3.110  22.658  0.00  0.00    +0.008 A 
BRANCH   2   9
ATOM      8  C   UNL     1       5.471  -5.346  23.036  0.00  0.00    +0.070 C 
ATOM      9  C   UNL     1       6.404  -5.056  23.955  0.00  0.00    +0.013 C 
BRANCH   8  10
ATOM     10  C   UNL     1       4.458  -6.365  23.348  0.00  0.00    +0.248 C 
ATOM     11  N   UNL     1       4.548  -7.223  24.308  0.00  0.00    -0.049 NA
BRANCH  11  12
ATOM     12  O   UNL     1       3.418  -8.052  24.354  0.00  0.00    -0.406 OA
ATOM     13  H   UNL     1       2.691  -7.414  24.251  0.00  0.00    +0.328 HD
ENDBRANCH  11  12
BRANCH  10  14
ATOM     14  O   UNL     1       3.407  -6.310  22.504  0.00  0.00    -0.490 OA
ATOM     15  H   UNL     1       2.864  -5.516  22.606  0.00  0.00    +0.294 HD
ENDBRANCH  10  14
ENDBRANCH   8  10
ENDBRANCH   2   9
ENDBRANCH   1   5
BRANCH   1  16
ATOM     16  N   UNL     1      10.238   0.096  22.568  0.00  0.00    -0.312 NA
ATOM     17  H   UNL     1       9.237   0.201  22.404  0.00  0.00    +0.122 HD
BRANCH  16  18
ATOM     18  C   UNL     1      10.569   0.686  23.874  0.00  0.00    +0.086 C 
BRANCH  18  19
ATOM     19  C   UNL     1       9.463   1.592  24.438  0.00  0.00    +0.052 C 
BRANCH  19  20
ATOM     20  C   UNL     1       8.096   1.003  24.276  0.00  0.00    -0.018 A 
ATOM     21  C   UNL     1       7.525  -0.011  25.113  0.00  0.00    +0.003 A 
ATOM     22  C   UNL     1       6.225  -0.234  24.671  0.00  0.00    +0.047 A 
ATOM     23  C   UNL     1       5.361  -1.148  25.286  0.00  0.00    +0.026 A 
ATOM     24  C   UNL     1       5.849  -1.865  26.382  0.00  0.00    +0.002 A 
ATOM     25  C   UNL     1       7.149  -1.674  26.843  0.00  0.00    +0.001 A 
ATOM     26  N   UNL     1       6.019   0.588  23.591  0.00  0.00    -0.358 N 
ATOM     27  H   UNL     1       5.156   0.635  23.069  0.00  0.00    +0.166 HD
ATOM     28  C   UNL     1       7.996  -0.750  26.221  0.00  0.00    +0.010 A 
ATOM     29  C   UNL     1       7.139   1.340  23.331  0.00  0.00    +0.017 A 
ATOM     30  C   UNL     1       7.153   2.310  22.206  0.00  0.00    +0.063 C 
ENDBRANCH  19  20
ENDBRANCH  18  19
ENDBRANCH  16  18
ENDBRANCH   1  16
TORSDOF 9
ENDMDL
