MODEL 1
REMARK VINA RESULT:      -6.5      0.000      0.000
REMARK  Name = 
REMARK  11 active torsions:
REMARK  status: ('A' for Active; 'I' for Inactive)
REMARK    1  A    between atoms: C_1  and  N_2
REMARK    2  A    between atoms: N_2  and  C_3
REMARK    3  A    between atoms: N_2  and  S_4
REMARK    4  A    between atoms: S_4  and  C_7
REMARK    5  A    between atoms: N_18  and  C_19
REMARK    6  A    between atoms: C_19  and  C_20
REMARK    7  A    between atoms: C_20  and  C_21
REMARK    8  A    between atoms: C_21  and  N_22
REMARK    9  A    between atoms: C_25  and  C_26
REMARK   10  A    between atoms: C_26  and  C_27
REMARK   11  A    between atoms: C_27  and  O_28
REMARK                            x       y       z     vdW  Elec       q    Type
REMARK                         _______ _______ _______ _____ _____    ______ ____
ROOT
ATOM      1  C   UNL     1       7.050  -4.528  25.601  0.00  0.00    +0.107 A 
ATOM      2  C   UNL     1       6.927  -4.943  24.284  0.00  0.00    +0.030 A 
ATOM      3  C   UNL     1       7.421  -4.116  23.285  0.00  0.00    +0.019 A 
ATOM      4  C   UNL     1       8.012  -2.869  23.585  0.00  0.00    +0.034 A 
ATOM      5  S   UNL     1       8.591  -1.965  22.176  0.00  0.00    -0.086 S 
ATOM      6  C   UNL     1       9.170  -0.452  22.897  0.00  0.00    +0.034 A 
ATOM      7  C   UNL     1       9.173  -0.185  24.283  0.00  0.00    +0.048 A 
ATOM      8  N   UNL     1       8.694  -1.144  25.230  0.00  0.00    -0.298 N 
ATOM      9  C   UNL     1       9.689   1.079  24.654  0.00  0.00    +0.024 A 
ATOM     10  C   UNL     1      10.174   2.013  23.722  0.00  0.00    +0.002 A 
ATOM     11  C   UNL     1      10.156   1.719  22.372  0.00  0.00    +0.001 A 
ATOM     12  C   UNL     1       9.654   0.492  21.963  0.00  0.00    +0.017 A 
ATOM     13  C   UNL     1       8.119  -2.414  24.911  0.00  0.00    +0.050 A 
ATOM     14  C   UNL     1       7.618  -3.284  25.907  0.00  0.00    +0.053 A 
ENDROOT
BRANCH   1  15
ATOM     15  S   UNL     1       6.427  -5.547  26.923  0.00  0.00    +0.060 S 
ATOM     16  O   UNL     1       5.649  -6.608  26.317  0.00  0.00    -0.153 OA
ATOM     17  O   UNL     1       7.538  -5.843  27.803  0.00  0.00    -0.153 OA
BRANCH  15  19
ATOM     18  C   UNL     1       4.159  -4.076  26.989  0.00  0.00    +0.131 C 
ATOM     19  N   UNL     1       5.356  -4.502  27.736  0.00  0.00    -0.183 NA
ATOM     20  C   UNL     1       5.090  -4.801  29.154  0.00  0.00    +0.131 C 
ENDBRANCH  15  19
ENDBRANCH   1  15
BRANCH   8  21
ATOM     21  C   UNL     1       8.733  -0.788  26.670  0.00  0.00    +0.112 C 
BRANCH  21  22
ATOM     22  C   UNL     1       7.341  -0.383  27.185  0.00  0.00    +0.035 C 
BRANCH  22  23
ATOM     23  C   UNL     1       7.185   1.142  27.245  0.00  0.00    +0.086 C 
BRANCH  23  24
ATOM     24  N   UNL     1       5.851   1.585  26.819  0.00  0.00    -0.302 NA
ATOM     25  C   UNL     1       5.296   0.746  25.746  0.00  0.00    +0.084 C 
ATOM     26  C   UNL     1       5.913   1.001  24.364  0.00  0.00    +0.019 C 
ATOM     27  C   UNL     1       5.935   2.495  23.983  0.00  0.00    -0.006 C 
ATOM     28  C   UNL     1       6.548   3.291  25.140  0.00  0.00    +0.019 C 
ATOM     29  C   UNL     1       5.807   3.006  26.442  0.00  0.00    +0.084 C 
BRANCH  27  30
ATOM     30  C   UNL     1       4.526   3.001  23.604  0.00  0.00    +0.031 C 
BRANCH  30  31
ATOM     31  C   UNL     1       4.550   4.237  22.707  0.00  0.00    +0.156 C 
BRANCH  31  32
ATOM     32  O   UNL     1       5.720   4.231  21.903  0.00  0.00    -0.395 OA
ATOM     33  H   UNL     1       6.484   4.352  22.493  0.00  0.00    +0.209 HD
ENDBRANCH  31  32
ENDBRANCH  30  31
ENDBRANCH  27  30
ENDBRANCH  23  24
ENDBRANCH  22  23
ENDBRANCH  21  22
ENDBRANCH   8  21
TORSDOF 9
ENDMDL
MODEL 2
REMARK VINA RESULT:      -6.0      2.810      7.808
REMARK  Name = 
REMARK  11 active torsions:
REMARK  status: ('A' for Active; 'I' for Inactive)
REMARK    1  A    between atoms: C_1  and  N_2
REMARK    2  A    between atoms: N_2  and  C_3
REMARK    3  A    between atoms: N_2  and  S_4
REMARK    4  A    between atoms: S_4  and  C_7
REMARK    5  A    between atoms: N_18  and  C_19
REMARK    6  A    between atoms: C_19  and  C_20
REMARK    7  A    between atoms: C_20  and  C_21
REMARK    8  A    between atoms: C_21  and  N_22
REMARK    9  A    between atoms: C_25  and  C_26
REMARK   10  A    between atoms: C_26  and  C_27
REMARK   11  A    between atoms: C_27  and  O_28
REMARK                            x       y       z     vdW  Elec       q    Type
REMARK                         _______ _______ _______ _____ _____    ______ ____
ROOT
ATOM      1  C   UNL     1       6.764   1.312  23.833  0.00  0.00    +0.107 A 
ATOM      2  C   UNL     1       5.699   1.691  24.636  0.00  0.00    +0.030 A 
ATOM      3  C   UNL     1       5.262   0.805  25.609  0.00  0.00    +0.019 A 
ATOM      4  C   UNL     1       5.857  -0.464  25.772  0.00  0.00    +0.034 A 
ATOM      5  S   UNL     1       5.166  -1.447  27.074  0.00  0.00    -0.086 S 
ATOM      6  C   UNL     1       6.066  -2.968  26.933  0.00  0.00    +0.034 A 
ATOM      7  C   UNL     1       7.107  -3.190  26.005  0.00  0.00    +0.048 A 
ATOM      8  N   UNL     1       7.517  -2.174  25.085  0.00  0.00    -0.298 N 
ATOM      9  C   UNL     1       7.705  -4.470  26.064  0.00  0.00    +0.024 A 
ATOM     10  C   UNL     1       7.311  -5.460  26.979  0.00  0.00    +0.002 A 
ATOM     11  C   UNL     1       6.288  -5.210  27.875  0.00  0.00    +0.001 A 
ATOM     12  C   UNL     1       5.669  -3.968  27.849  0.00  0.00    +0.017 A 
ATOM     13  C   UNL     1       6.917  -0.882  24.949  0.00  0.00    +0.050 A 
ATOM     14  C   UNL     1       7.349   0.047  23.975  0.00  0.00    +0.053 A 
ENDROOT
BRANCH   1  15
ATOM     15  S   UNL     1       7.363   2.409  22.562  0.00  0.00    +0.060 S 
ATOM     16  O   UNL     1       8.106   1.605  21.616  0.00  0.00    -0.153 OA
ATOM     17  O   UNL     1       6.247   3.227  22.135  0.00  0.00    -0.153 OA
BRANCH  15  19
ATOM     18  C   UNL     1       9.882   2.991  23.351  0.00  0.00    +0.131 C 
ATOM     19  N   UNL     1       8.467   3.397  23.402  0.00  0.00    -0.183 NA
ATOM     20  C   UNL     1       8.267   4.852  23.293  0.00  0.00    +0.131 C 
ENDBRANCH  15  19
ENDBRANCH   1  15
BRANCH   8  21
ATOM     21  C   UNL     1       8.619  -2.486  24.143  0.00  0.00    +0.112 C 
BRANCH  21  22
ATOM     22  C   UNL     1       8.080  -2.836  22.745  0.00  0.00    +0.035 C 
BRANCH  22  23
ATOM     23  C   UNL     1       7.685  -4.315  22.649  0.00  0.00    +0.086 C 
BRANCH  23  24
ATOM     24  N   UNL     1       6.418  -4.510  21.929  0.00  0.00    -0.302 NA
ATOM     25  C   UNL     1       5.387  -3.542  22.334  0.00  0.00    +0.084 C 
ATOM     26  C   UNL     1       4.751  -3.834  23.700  0.00  0.00    +0.019 C 
ATOM     27  C   UNL     1       4.269  -5.292  23.838  0.00  0.00    -0.006 C 
ATOM     28  C   UNL     1       5.407  -6.231  23.423  0.00  0.00    +0.019 C 
ATOM     29  C   UNL     1       5.907  -5.884  22.024  0.00  0.00    +0.084 C 
BRANCH  27  30
ATOM     30  C   UNL     1       2.978  -5.539  23.027  0.00  0.00    +0.031 C 
BRANCH  30  31
ATOM     31  C   UNL     1       2.177  -6.742  23.518  0.00  0.00    +0.156 C 
BRANCH  31  32
ATOM     32  O   UNL     1       2.014  -7.680  22.465  0.00  0.00    -0.395 OA
ATOM     33  H   UNL     1       1.511  -7.244  21.757  0.00  0.00    +0.209 HD
ENDBRANCH  31  32
ENDBRANCH  30  31
ENDBRANCH  27  30
ENDBRANCH  23  24
ENDBRANCH  22  23
ENDBRANCH  21  22
ENDBRANCH   8  21
TORSDOF 9
ENDMDL
MODEL 3
REMARK VINA RESULT:      -6.0      2.338      7.105
REMARK  Name = 
REMARK  11 active torsions:
REMARK  status: ('A' for Active; 'I' for Inactive)
REMARK    1  A    between atoms: C_1  and  N_2
REMARK    2  A    between atoms: N_2  and  C_3
REMARK    3  A    between atoms: N_2  and  S_4
REMARK    4  A    between atoms: S_4  and  C_7
REMARK    5  A    between atoms: N_18  and  C_19
REMARK    6  A    between atoms: C_19  and  C_20
REMARK    7  A    between atoms: C_20  and  C_21
REMARK    8  A    between atoms: C_21  and  N_22
REMARK    9  A    between atoms: C_25  and  C_26
REMARK   10  A    between atoms: C_26  and  C_27
REMARK   11  A    between atoms: C_27  and  O_28
REMARK                            x       y       z     vdW  Elec       q    Type
REMARK                         _______ _______ _______ _____ _____    ______ ____
ROOT
ATOM      1  C   UNL     1       8.588   2.391  23.216  0.00  0.00    +0.107 A 
ATOM      2  C   UNL     1       9.433   1.980  22.196  0.00  0.00    +0.030 A 
ATOM      3  C   UNL     1       9.846   0.656  22.177  0.00  0.00    +0.019 A 
ATOM      4  C   UNL     1       9.446  -0.255  23.180  0.00  0.00    +0.034 A 
ATOM      5  S   UNL     1      10.069  -1.901  22.976  0.00  0.00    -0.086 S 
ATOM      6  C   UNL     1       9.463  -2.727  24.424  0.00  0.00    +0.034 A 
ATOM      7  C   UNL     1       8.637  -2.121  25.395  0.00  0.00    +0.048 A 
ATOM      8  N   UNL     1       8.221  -0.757  25.276  0.00  0.00    -0.298 N 
ATOM      9  C   UNL     1       8.253  -2.957  26.469  0.00  0.00    +0.024 A 
ATOM     10  C   UNL     1       8.650  -4.301  26.574  0.00  0.00    +0.002 A 
ATOM     11  C   UNL     1       9.459  -4.863  25.606  0.00  0.00    +0.001 A 
ATOM     12  C   UNL     1       9.865  -4.077  24.537  0.00  0.00    +0.017 A 
ATOM     13  C   UNL     1       8.616   0.147  24.240  0.00  0.00    +0.050 A 
ATOM     14  C   UNL     1       8.202   1.499  24.224  0.00  0.00    +0.053 A 
ENDROOT
BRANCH   1  15
ATOM     15  S   UNL     1       8.032   4.083  23.291  0.00  0.00    +0.060 S 
ATOM     16  O   UNL     1       9.210   4.915  23.425  0.00  0.00    -0.153 OA
ATOM     17  O   UNL     1       7.095   4.280  22.206  0.00  0.00    -0.153 OA
BRANCH  15  19
ATOM     18  C   UNL     1       7.822   4.855  25.874  0.00  0.00    +0.131 C 
ATOM     19  N   UNL     1       7.175   4.136  24.762  0.00  0.00    -0.183 NA
ATOM     20  C   UNL     1       5.724   4.371  24.673  0.00  0.00    +0.131 C 
ENDBRANCH  15  19
ENDBRANCH   1  15
BRANCH   8  21
ATOM     21  C   UNL     1       7.351  -0.194  26.338  0.00  0.00    +0.112 C 
BRANCH  21  22
ATOM     22  C   UNL     1       5.872  -0.206  25.916  0.00  0.00    +0.035 C 
BRANCH  22  23
ATOM     23  C   UNL     1       5.121  -1.394  26.532  0.00  0.00    +0.086 C 
BRANCH  23  24
ATOM     24  N   UNL     1       4.141  -1.978  25.606  0.00  0.00    -0.302 NA
ATOM     25  C   UNL     1       3.085  -2.728  26.303  0.00  0.00    +0.084 C 
ATOM     26  C   UNL     1       3.529  -4.100  26.829  0.00  0.00    +0.019 C 
ATOM     27  C   UNL     1       4.238  -4.952  25.757  0.00  0.00    -0.006 C 
ATOM     28  C   UNL     1       5.335  -4.107  25.100  0.00  0.00    +0.019 C 
ATOM     29  C   UNL     1       4.758  -2.803  24.558  0.00  0.00    +0.084 C 
BRANCH  27  30
ATOM     30  C   UNL     1       3.234  -5.514  24.727  0.00  0.00    +0.031 C 
BRANCH  30  31
ATOM     31  C   UNL     1       3.906  -6.229  23.557  0.00  0.00    +0.156 C 
BRANCH  31  32
ATOM     32  O   UNL     1       4.269  -7.549  23.938  0.00  0.00    -0.395 OA
ATOM     33  H   UNL     1       4.798  -7.929  23.217  0.00  0.00    +0.209 HD
ENDBRANCH  31  32
ENDBRANCH  30  31
ENDBRANCH  27  30
ENDBRANCH  23  24
ENDBRANCH  22  23
ENDBRANCH  21  22
ENDBRANCH   8  21
TORSDOF 9
ENDMDL
MODEL 4
REMARK VINA RESULT:      -5.7      1.976      2.552
REMARK  Name = 
REMARK  11 active torsions:
REMARK  status: ('A' for Active; 'I' for Inactive)
REMARK    1  A    between atoms: C_1  and  N_2
REMARK    2  A    between atoms: N_2  and  C_3
REMARK    3  A    between atoms: N_2  and  S_4
REMARK    4  A    between atoms: S_4  and  C_7
REMARK    5  A    between atoms: N_18  and  C_19
REMARK    6  A    between atoms: C_19  and  C_20
REMARK    7  A    between atoms: C_20  and  C_21
REMARK    8  A    between atoms: C_21  and  N_22
REMARK    9  A    between atoms: C_25  and  C_26
REMARK   10  A    between atoms: C_26  and  C_27
REMARK   11  A    between atoms: C_27  and  O_28
REMARK                            x       y       z     vdW  Elec       q    Type
REMARK                         _______ _______ _______ _____ _____    ______ ____
ROOT
ATOM      1  C   UNL     1       7.234  -4.525  26.206  0.00  0.00    +0.107 A 
ATOM      2  C   UNL     1       8.462  -5.057  25.841  0.00  0.00    +0.030 A 
ATOM      3  C   UNL     1       9.275  -4.314  24.998  0.00  0.00    +0.019 A 
ATOM      4  C   UNL     1       8.865  -3.060  24.494  0.00  0.00    +0.034 A 
ATOM      5  S   UNL     1      10.046  -2.262  23.442  0.00  0.00    -0.086 S 
ATOM      6  C   UNL     1       9.184  -0.799  22.930  0.00  0.00    +0.034 A 
ATOM      7  C   UNL     1       7.894  -0.441  23.380  0.00  0.00    +0.048 A 
ATOM      8  N   UNL     1       7.172  -1.259  24.305  0.00  0.00    -0.298 N 
ATOM      9  C   UNL     1       7.389   0.774  22.860  0.00  0.00    +0.024 A 
ATOM     10  C   UNL     1       8.108   1.583  21.965  0.00  0.00    +0.002 A 
ATOM     11  C   UNL     1       9.368   1.202  21.544  0.00  0.00    +0.001 A 
ATOM     12  C   UNL     1       9.902   0.015  22.025  0.00  0.00    +0.017 A 
ATOM     13  C   UNL     1       7.612  -2.517  24.825  0.00  0.00    +0.050 A 
ATOM     14  C   UNL     1       6.811  -3.291  25.696  0.00  0.00    +0.053 A 
ENDROOT
BRANCH   1  15
ATOM     15  S   UNL     1       6.146  -5.440  27.282  0.00  0.00    +0.060 S 
ATOM     16  O   UNL     1       5.744  -6.635  26.570  0.00  0.00    -0.153 OA
ATOM     17  O   UNL     1       6.787  -5.520  28.578  0.00  0.00    -0.153 OA
BRANCH  15  19
ATOM     18  C   UNL     1       3.581  -4.834  26.679  0.00  0.00    +0.131 C 
ATOM     19  N   UNL     1       4.791  -4.417  27.411  0.00  0.00    -0.183 NA
ATOM     20  C   UNL     1       4.509  -3.858  28.744  0.00  0.00    +0.131 C 
ENDBRANCH  15  19
ENDBRANCH   1  15
BRANCH   8  21
ATOM     21  C   UNL     1       5.823  -0.812  24.730  0.00  0.00    +0.112 C 
BRANCH  21  22
ATOM     22  C   UNL     1       5.901   0.132  25.942  0.00  0.00    +0.035 C 
BRANCH  22  23
ATOM     23  C   UNL     1       5.242   1.485  25.645  0.00  0.00    +0.086 C 
BRANCH  23  24
ATOM     24  N   UNL     1       5.577   2.503  26.650  0.00  0.00    -0.302 NA
ATOM     25  C   UNL     1       4.877   3.776  26.417  0.00  0.00    +0.084 C 
ATOM     26  C   UNL     1       5.452   4.608  25.263  0.00  0.00    +0.019 C 
ATOM     27  C   UNL     1       6.980   4.792  25.359  0.00  0.00    -0.006 C 
ATOM     28  C   UNL     1       7.631   3.421  25.576  0.00  0.00    +0.019 C 
ATOM     29  C   UNL     1       7.023   2.724  26.789  0.00  0.00    +0.084 C 
BRANCH  27  30
ATOM     30  C   UNL     1       7.359   5.803  26.463  0.00  0.00    +0.031 C 
BRANCH  30  31
ATOM     31  C   UNL     1       8.536   6.698  26.084  0.00  0.00    +0.156 C 
BRANCH  31  32
ATOM     32  O   UNL     1       9.610   6.497  26.991  0.00  0.00    -0.395 OA
ATOM     33  H   UNL     1      10.422   6.818  26.563  0.00  0.00    +0.209 HD
ENDBRANCH  31  32
ENDBRANCH  30  31
ENDBRANCH  27  30
ENDBRANCH  23  24
ENDBRANCH  22  23
ENDBRANCH  21  22
ENDBRANCH   8  21
TORSDOF 9
ENDMDL
MODEL 5
REMARK VINA RESULT:      -5.7      3.256      6.645
REMARK  Name = 
REMARK  11 active torsions:
REMARK  status: ('A' for Active; 'I' for Inactive)
REMARK    1  A    between atoms: C_1  and  N_2
REMARK    2  A    between atoms: N_2  and  C_3
REMARK    3  A    between atoms: N_2  and  S_4
REMARK    4  A    between atoms: S_4  and  C_7
REMARK    5  A    between atoms: N_18  and  C_19
REMARK    6  A    between atoms: C_19  and  C_20
REMARK    7  A    between atoms: C_20  and  C_21
REMARK    8  A    between atoms: C_21  and  N_22
REMARK    9  A    between atoms: C_25  and  C_26
REMARK   10  A    between atoms: C_26  and  C_27
REMARK   11  A    between atoms: C_27  and  O_28
REMARK                            x       y       z     vdW  Elec       q    Type
REMARK                         _______ _______ _______ _____ _____    ______ ____
ROOT
ATOM      1  C   UNL     1       6.731   3.489  26.921  0.00  0.00    +0.107 A 
ATOM      2  C   UNL     1       6.534   4.381  25.878  0.00  0.00    +0.030 A 
ATOM      3  C   UNL     1       6.930   4.002  24.605  0.00  0.00    +0.019 A 
ATOM      4  C   UNL     1       7.545   2.754  24.364  0.00  0.00    +0.034 A 
ATOM      5  S   UNL     1       7.969   2.449  22.672  0.00  0.00    -0.086 S 
ATOM      6  C   UNL     1       8.785   0.876  22.753  0.00  0.00    +0.034 A 
ATOM      7  C   UNL     1       8.935   0.121  23.936  0.00  0.00    +0.048 A 
ATOM      8  N   UNL     1       8.427   0.588  25.190  0.00  0.00    -0.298 N 
ATOM      9  C   UNL     1       9.607  -1.114  23.784  0.00  0.00    +0.024 A 
ATOM     10  C   UNL     1      10.090  -1.577  22.548  0.00  0.00    +0.002 A 
ATOM     11  C   UNL     1       9.926  -0.813  21.409  0.00  0.00    +0.001 A 
ATOM     12  C   UNL     1       9.277   0.410  21.513  0.00  0.00    +0.017 A 
ATOM     13  C   UNL     1       7.784   1.847  25.411  0.00  0.00    +0.050 A 
ATOM     14  C   UNL     1       7.358   2.257  26.696  0.00  0.00    +0.053 A 
ENDROOT
BRANCH   1  15
ATOM     15  S   UNL     1       6.247   3.928  28.579  0.00  0.00    +0.060 S 
ATOM     16  O   UNL     1       7.441   3.892  29.398  0.00  0.00    -0.153 OA
ATOM     17  O   UNL     1       5.436   5.124  28.491  0.00  0.00    -0.153 OA
BRANCH  15  19
ATOM     18  C   UNL     1       5.781   1.723  30.073  0.00  0.00    +0.131 C 
ATOM     19  N   UNL     1       5.248   2.628  29.040  0.00  0.00    -0.183 NA
ATOM     20  C   UNL     1       3.813   2.922  29.197  0.00  0.00    +0.131 C 
ENDBRANCH  15  19
ENDBRANCH   1  15
BRANCH   8  21
ATOM     21  C   UNL     1       8.624  -0.265  26.387  0.00  0.00    +0.112 C 
BRANCH  21  22
ATOM     22  C   UNL     1       7.512  -1.320  26.514  0.00  0.00    +0.035 C 
BRANCH  22  23
ATOM     23  C   UNL     1       8.081  -2.744  26.480  0.00  0.00    +0.086 C 
BRANCH  23  24
ATOM     24  N   UNL     1       7.074  -3.739  26.083  0.00  0.00    -0.302 NA
ATOM     25  C   UNL     1       7.671  -5.046  25.765  0.00  0.00    +0.084 C 
ATOM     26  C   UNL     1       8.381  -5.100  24.406  0.00  0.00    +0.019 C 
ATOM     27  C   UNL     1       7.512  -4.560  23.253  0.00  0.00    -0.006 C 
ATOM     28  C   UNL     1       6.953  -3.191  23.654  0.00  0.00    +0.019 C 
ATOM     29  C   UNL     1       6.212  -3.281  24.984  0.00  0.00    +0.084 C 
BRANCH  27  30
ATOM     30  C   UNL     1       6.398  -5.559  22.869  0.00  0.00    +0.031 C 
BRANCH  30  31
ATOM     31  C   UNL     1       6.565  -6.141  21.467  0.00  0.00    +0.156 C 
BRANCH  31  32
ATOM     32  O   UNL     1       5.905  -5.316  20.518  0.00  0.00    -0.395 OA
ATOM     33  H   UNL     1       5.003  -5.155  20.844  0.00  0.00    +0.209 HD
ENDBRANCH  31  32
ENDBRANCH  30  31
ENDBRANCH  27  30
ENDBRANCH  23  24
ENDBRANCH  22  23
ENDBRANCH  21  22
ENDBRANCH   8  21
TORSDOF 9
ENDMDL
MODEL 6
REMARK VINA RESULT:      -5.7      3.085      5.588
REMARK  Name = 
REMARK  11 active torsions:
REMARK  status: ('A' for Active; 'I' for Inactive)
REMARK    1  A    between atoms: C_1  and  N_2
REMARK    2  A    between atoms: N_2  and  C_3
REMARK    3  A    between atoms: N_2  and  S_4
REMARK    4  A    between atoms: S_4  and  C_7
REMARK    5  A    between atoms: N_18  and  C_19
REMARK    6  A    between atoms: C_19  and  C_20
REMARK    7  A    between atoms: C_20  and  C_21
REMARK    8  A    between atoms: C_21  and  N_22
REMARK    9  A    between atoms: C_25  and  C_26
REMARK   10  A    between atoms: C_26  and  C_27
REMARK   11  A    between atoms: C_27  and  O_28
REMARK                            x       y       z     vdW  Elec       q    Type
REMARK                         _______ _______ _______ _____ _____    ______ ____
ROOT
ATOM      1  C   UNL     1       6.138  -0.460  26.706  0.00  0.00    +0.107 A 
ATOM      2  C   UNL     1       4.782  -0.707  26.862  0.00  0.00    +0.030 A 
ATOM      3  C   UNL     1       4.223  -1.769  26.167  0.00  0.00    +0.019 A 
ATOM      4  C   UNL     1       4.996  -2.570  25.298  0.00  0.00    +0.034 A 
ATOM      5  S   UNL     1       4.105  -3.883  24.510  0.00  0.00    -0.086 S 
ATOM      6  C   UNL     1       5.330  -4.603  23.450  0.00  0.00    +0.034 A 
ATOM      7  C   UNL     1       6.676  -4.179  23.392  0.00  0.00    +0.048 A 
ATOM      8  N   UNL     1       7.157  -3.106  24.207  0.00  0.00    -0.298 N 
ATOM      9  C   UNL     1       7.496  -4.894  22.489  0.00  0.00    +0.024 A 
ATOM     10  C   UNL     1       7.024  -5.958  21.702  0.00  0.00    +0.002 A 
ATOM     11  C   UNL     1       5.701  -6.348  21.783  0.00  0.00    +0.001 A 
ATOM     12  C   UNL     1       4.859  -5.670  22.653  0.00  0.00    +0.017 A 
ATOM     13  C   UNL     1       6.365  -2.319  25.101  0.00  0.00    +0.050 A 
ATOM     14  C   UNL     1       6.908  -1.238  25.832  0.00  0.00    +0.053 A 
ENDROOT
BRANCH   1  15
ATOM     15  S   UNL     1       6.906   0.897  27.570  0.00  0.00    +0.060 S 
ATOM     16  O   UNL     1       7.925   0.334  28.432  0.00  0.00    -0.153 OA
ATOM     17  O   UNL     1       7.231   1.907  26.587  0.00  0.00    -0.153 OA
BRANCH  15  19
ATOM     18  C   UNL     1       5.799   1.290  30.005  0.00  0.00    +0.131 C 
ATOM     19  N   UNL     1       5.645   1.484  28.553  0.00  0.00    -0.183 NA
ATOM     20  C   UNL     1       5.080   2.795  28.190  0.00  0.00    +0.131 C 
ENDBRANCH  15  19
ENDBRANCH   1  15
BRANCH   8  21
ATOM     21  C   UNL     1       8.585  -2.722  24.089  0.00  0.00    +0.112 C 
BRANCH  21  22
ATOM     22  C   UNL     1       8.861  -1.988  22.765  0.00  0.00    +0.035 C 
BRANCH  22  23
ATOM     23  C   UNL     1       9.724  -0.739  22.985  0.00  0.00    +0.086 C 
BRANCH  23  24
ATOM     24  N   UNL     1       9.061   0.256  23.841  0.00  0.00    -0.302 NA
ATOM     25  C   UNL     1       8.205   1.175  23.075  0.00  0.00    +0.084 C 
ATOM     26  C   UNL     1       8.975   2.244  22.288  0.00  0.00    +0.019 C 
ATOM     27  C   UNL     1      10.012   2.993  23.149  0.00  0.00    -0.006 C 
ATOM     28  C   UNL     1      10.875   1.966  23.890  0.00  0.00    +0.019 C 
ATOM     29  C   UNL     1      10.000   1.004  24.688  0.00  0.00    +0.084 C 
BRANCH  27  30
ATOM     30  C   UNL     1       9.331   3.991  24.112  0.00  0.00    +0.031 C 
BRANCH  30  31
ATOM     31  C   UNL     1       9.764   5.438  23.887  0.00  0.00    +0.156 C 
BRANCH  31  32
ATOM     32  O   UNL     1       9.135   5.957  22.725  0.00  0.00    -0.395 OA
ATOM     33  H   UNL     1       9.614   5.614  21.952  0.00  0.00    +0.209 HD
ENDBRANCH  31  32
ENDBRANCH  30  31
ENDBRANCH  27  30
ENDBRANCH  23  24
ENDBRANCH  22  23
ENDBRANCH  21  22
ENDBRANCH   8  21
TORSDOF 9
ENDMDL
MODEL 7
REMARK VINA RESULT:      -5.7      2.772      5.143
REMARK  Name = 
REMARK  11 active torsions:
REMARK  status: ('A' for Active; 'I' for Inactive)
REMARK    1  A    between atoms: C_1  and  N_2
REMARK    2  A    between atoms: N_2  and  C_3
REMARK    3  A    between atoms: N_2  and  S_4
REMARK    4  A    between atoms: S_4  and  C_7
REMARK    5  A    between atoms: N_18  and  C_19
REMARK    6  A    between atoms: C_19  and  C_20
REMARK    7  A    between atoms: C_20  and  C_21
REMARK    8  A    between atoms: C_21  and  N_22
REMARK    9  A    between atoms: C_25  and  C_26
REMARK   10  A    between atoms: C_26  and  C_27
REMARK   11  A    between atoms: C_27  and  O_28
REMARK                            x       y       z     vdW  Elec       q    Type
REMARK                         _______ _______ _______ _____ _____    ______ ____
ROOT
ATOM      1  C   UNL     1       8.949  -2.834  24.559  0.00  0.00    +0.107 A 
ATOM      2  C   UNL     1       9.892  -2.635  23.562  0.00  0.00    +0.030 A 
ATOM      3  C   UNL     1      10.241  -1.332  23.239  0.00  0.00    +0.019 A 
ATOM      4  C   UNL     1       9.640  -0.227  23.880  0.00  0.00    +0.034 A 
ATOM      5  S   UNL     1      10.226   1.355  23.336  0.00  0.00    -0.086 S 
ATOM      6  C   UNL     1       9.215   2.482  24.259  0.00  0.00    +0.034 A 
ATOM      7  C   UNL     1       8.256   2.084  25.216  0.00  0.00    +0.048 A 
ATOM      8  N   UNL     1       8.024   0.705  25.514  0.00  0.00    -0.298 N 
ATOM      9  C   UNL     1       7.563   3.141  25.851  0.00  0.00    +0.024 A 
ATOM     10  C   UNL     1       7.804   4.496  25.568  0.00  0.00    +0.002 A 
ATOM     11  C   UNL     1       8.750   4.850  24.625  0.00  0.00    +0.001 A 
ATOM     12  C   UNL     1       9.450   3.845  23.973  0.00  0.00    +0.017 A 
ATOM     13  C   UNL     1       8.659  -0.404  24.871  0.00  0.00    +0.050 A 
ATOM     14  C   UNL     1       8.334  -1.744  25.187  0.00  0.00    +0.053 A 
ENDROOT
BRANCH   1  15
ATOM     15  S   UNL     1       8.458  -4.487  25.010  0.00  0.00    +0.060 S 
ATOM     16  O   UNL     1       9.459  -5.391  24.483  0.00  0.00    -0.153 OA
ATOM     17  O   UNL     1       8.132  -4.473  26.420  0.00  0.00    -0.153 OA
BRANCH  15  19
ATOM     18  C   UNL     1       7.168  -4.903  22.671  0.00  0.00    +0.131 C 
ATOM     19  N   UNL     1       7.021  -4.712  24.125  0.00  0.00    -0.183 NA
ATOM     20  C   UNL     1       5.999  -5.582  24.733  0.00  0.00    +0.131 C 
ENDBRANCH  15  19
ENDBRANCH   1  15
BRANCH   8  21
ATOM     21  C   UNL     1       7.000   0.370  26.534  0.00  0.00    +0.112 C 
BRANCH  21  22
ATOM     22  C   UNL     1       5.581   0.422  25.942  0.00  0.00    +0.035 C 
BRANCH  22  23
ATOM     23  C   UNL     1       4.539  -0.114  26.932  0.00  0.00    +0.086 C 
BRANCH  23  24
ATOM     24  N   UNL     1       3.769  -1.238  26.381  0.00  0.00    -0.302 NA
ATOM     25  C   UNL     1       2.722  -1.707  27.301  0.00  0.00    +0.084 C 
ATOM     26  C   UNL     1       3.246  -2.536  28.482  0.00  0.00    +0.019 C 
ATOM     27  C   UNL     1       4.189  -3.675  28.043  0.00  0.00    -0.006 C 
ATOM     28  C   UNL     1       5.260  -3.098  27.111  0.00  0.00    +0.019 C 
ATOM     29  C   UNL     1       4.616  -2.357  25.944  0.00  0.00    +0.084 C 
BRANCH  27  30
ATOM     30  C   UNL     1       3.407  -4.836  27.391  0.00  0.00    +0.031 C 
BRANCH  30  31
ATOM     31  C   UNL     1       3.552  -6.158  28.142  0.00  0.00    +0.156 C 
BRANCH  31  32
ATOM     32  O   UNL     1       3.163  -7.237  27.304  0.00  0.00    -0.395 OA
ATOM     33  H   UNL     1       2.716  -7.896  27.861  0.00  0.00    +0.209 HD
ENDBRANCH  31  32
ENDBRANCH  30  31
ENDBRANCH  27  30
ENDBRANCH  23  24
ENDBRANCH  22  23
ENDBRANCH  21  22
ENDBRANCH   8  21
TORSDOF 9
ENDMDL
MODEL 8
REMARK VINA RESULT:      -5.6      2.931      7.588
REMARK  Name = 
REMARK  11 active torsions:
REMARK  status: ('A' for Active; 'I' for Inactive)
REMARK    1  A    between atoms: C_1  and  N_2
REMARK    2  A    between atoms: N_2  and  C_3
REMARK    3  A    between atoms: N_2  and  S_4
REMARK    4  A    between atoms: S_4  and  C_7
REMARK    5  A    between atoms: N_18  and  C_19
REMARK    6  A    between atoms: C_19  and  C_20
REMARK    7  A    between atoms: C_20  and  C_21
REMARK    8  A    between atoms: C_21  and  N_22
REMARK    9  A    between atoms: C_25  and  C_26
REMARK   10  A    between atoms: C_26  and  C_27
REMARK   11  A    between atoms: C_27  and  O_28
REMARK                            x       y       z     vdW  Elec       q    Type
REMARK                         _______ _______ _______ _____ _____    ______ ____
ROOT
ATOM      1  C   UNL     1       8.824   0.983  24.779  0.00  0.00    +0.107 A 
ATOM      2  C   UNL     1       7.868   1.843  25.299  0.00  0.00    +0.030 A 
ATOM      3  C   UNL     1       6.862   1.307  26.088  0.00  0.00    +0.019 A 
ATOM      4  C   UNL     1       6.783  -0.079  26.343  0.00  0.00    +0.034 A 
ATOM      5  S   UNL     1       5.433  -0.567  27.382  0.00  0.00    -0.086 S 
ATOM      6  C   UNL     1       5.584  -2.334  27.410  0.00  0.00    +0.034 A 
ATOM      7  C   UNL     1       6.618  -3.052  26.770  0.00  0.00    +0.048 A 
ATOM      8  N   UNL     1       7.644  -2.383  26.031  0.00  0.00    -0.298 N 
ATOM      9  C   UNL     1       6.563  -4.456  26.925  0.00  0.00    +0.024 A 
ATOM     10  C   UNL     1       5.563  -5.108  27.665  0.00  0.00    +0.002 A 
ATOM     11  C   UNL     1       4.565  -4.375  28.279  0.00  0.00    +0.001 A 
ATOM     12  C   UNL     1       4.576  -2.994  28.149  0.00  0.00    +0.017 A 
ATOM     13  C   UNL     1       7.722  -0.974  25.802  0.00  0.00    +0.050 A 
ATOM     14  C   UNL     1       8.743  -0.396  25.012  0.00  0.00    +0.053 A 
ENDROOT
BRANCH   1  15
ATOM     15  S   UNL     1      10.136   1.616  23.753  0.00  0.00    +0.060 S 
ATOM     16  O   UNL     1      10.072   3.061  23.819  0.00  0.00    -0.153 OA
ATOM     17  O   UNL     1      11.345   0.903  24.106  0.00  0.00    -0.153 OA
BRANCH  15  19
ATOM     18  C   UNL     1       9.830  -0.292  21.862  0.00  0.00    +0.131 C 
ATOM     19  N   UNL     1       9.661   1.135  22.190  0.00  0.00    -0.183 NA
ATOM     20  C   UNL     1       8.409   1.713  21.672  0.00  0.00    +0.131 C 
ENDBRANCH  15  19
ENDBRANCH   1  15
BRANCH   8  21
ATOM     21  C   UNL     1       8.696  -3.209  25.389  0.00  0.00    +0.112 C 
BRANCH  21  22
ATOM     22  C   UNL     1       8.370  -3.485  23.912  0.00  0.00    +0.035 C 
BRANCH  22  23
ATOM     23  C   UNL     1       7.780  -4.889  23.719  0.00  0.00    +0.086 C 
BRANCH  23  24
ATOM     24  N   UNL     1       6.699  -4.909  22.724  0.00  0.00    -0.302 NA
ATOM     25  C   UNL     1       5.761  -3.788  22.889  0.00  0.00    +0.084 C 
ATOM     26  C   UNL     1       4.791  -3.947  24.068  0.00  0.00    +0.019 C 
ATOM     27  C   UNL     1       4.075  -5.313  24.075  0.00  0.00    -0.006 C 
ATOM     28  C   UNL     1       5.122  -6.422  23.924  0.00  0.00    +0.019 C 
ATOM     29  C   UNL     1       5.977  -6.189  22.682  0.00  0.00    +0.084 C 
BRANCH  27  30
ATOM     30  C   UNL     1       2.984  -5.384  22.984  0.00  0.00    +0.031 C 
BRANCH  30  31
ATOM     31  C   UNL     1       1.566  -5.277  23.541  0.00  0.00    +0.156 C 
BRANCH  31  32
ATOM     32  O   UNL     1       1.572  -5.532  24.938  0.00  0.00    -0.395 OA
ATOM     33  H   UNL     1       1.873  -6.447  25.069  0.00  0.00    +0.209 HD
ENDBRANCH  31  32
ENDBRANCH  30  31
ENDBRANCH  27  30
ENDBRANCH  23  24
ENDBRANCH  22  23
ENDBRANCH  21  22
ENDBRANCH   8  21
TORSDOF 9
ENDMDL
MODEL 9
REMARK VINA RESULT:      -5.6      2.532      5.389
REMARK  Name = 
REMARK  11 active torsions:
REMARK  status: ('A' for Active; 'I' for Inactive)
REMARK    1  A    between atoms: C_1  and  N_2
REMARK    2  A    between atoms: N_2  and  C_3
REMARK    3  A    between atoms: N_2  and  S_4
REMARK    4  A    between atoms: S_4  and  C_7
REMARK    5  A    between atoms: N_18  and  C_19
REMARK    6  A    between atoms: C_19  and  C_20
REMARK    7  A    between atoms: C_20  and  C_21
REMARK    8  A    between atoms: C_21  and  N_22
REMARK    9  A    between atoms: C_25  and  C_26
REMARK   10  A    between atoms: C_26  and  C_27
REMARK   11  A    between atoms: C_27  and  O_28
REMARK                            x       y       z     vdW  Elec       q    Type
REMARK                         _______ _______ _______ _____ _____    ______ ____
ROOT
ATOM      1  C   UNL     1       7.080  -2.308  22.460  0.00  0.00    +0.107 A 
ATOM      2  C   UNL     1       8.326  -2.387  21.858  0.00  0.00    +0.030 A 
ATOM      3  C   UNL     1       9.180  -1.300  21.969  0.00  0.00    +0.019 A 
ATOM      4  C   UNL     1       8.794  -0.125  22.651  0.00  0.00    +0.034 A 
ATOM      5  S   UNL     1      10.026   1.147  22.692  0.00  0.00    -0.086 S 
ATOM      6  C   UNL     1       9.189   2.472  23.522  0.00  0.00    +0.034 A 
ATOM      7  C   UNL     1       7.876   2.381  24.036  0.00  0.00    +0.048 A 
ATOM      8  N   UNL     1       7.109   1.180  23.917  0.00  0.00    -0.298 N 
ATOM      9  C   UNL     1       7.396   3.549  24.674  0.00  0.00    +0.024 A 
ATOM     10  C   UNL     1       8.158   4.721  24.803  0.00  0.00    +0.002 A 
ATOM     11  C   UNL     1       9.440   4.776  24.288  0.00  0.00    +0.001 A 
ATOM     12  C   UNL     1       9.950   3.655  23.649  0.00  0.00    +0.017 A 
ATOM     13  C   UNL     1       7.524  -0.011  23.242  0.00  0.00    +0.050 A 
ATOM     14  C   UNL     1       6.681  -1.140  23.123  0.00  0.00    +0.053 A 
ENDROOT
BRANCH   1  15
ATOM     15  S   UNL     1       5.940  -3.673  22.343  0.00  0.00    +0.060 S 
ATOM     16  O   UNL     1       4.859  -3.410  23.269  0.00  0.00    -0.153 OA
ATOM     17  O   UNL     1       5.683  -3.903  20.937  0.00  0.00    -0.153 OA
BRANCH  15  19
ATOM     18  C   UNL     1       7.263  -6.002  21.968  0.00  0.00    +0.131 C 
ATOM     19  N   UNL     1       6.850  -4.980  22.947  0.00  0.00    -0.183 NA
ATOM     20  C   UNL     1       7.892  -4.658  23.936  0.00  0.00    +0.131 C 
ENDBRANCH  15  19
ENDBRANCH   1  15
BRANCH   8  21
ATOM     21  C   UNL     1       5.738   1.165  24.484  0.00  0.00    +0.112 C 
BRANCH  21  22
ATOM     22  C   UNL     1       5.764   0.950  26.007  0.00  0.00    +0.035 C 
BRANCH  22  23
ATOM     23  C   UNL     1       4.808  -0.172  26.433  0.00  0.00    +0.086 C 
BRANCH  23  24
ATOM     24  N   UNL     1       5.373  -1.014  27.497  0.00  0.00    -0.302 NA
ATOM     25  C   UNL     1       6.420  -1.920  27.000  0.00  0.00    +0.084 C 
ATOM     26  C   UNL     1       5.888  -3.126  26.213  0.00  0.00    +0.019 C 
ATOM     27  C   UNL     1       4.768  -3.881  26.958  0.00  0.00    -0.006 C 
ATOM     28  C   UNL     1       3.711  -2.871  27.418  0.00  0.00    +0.019 C 
ATOM     29  C   UNL     1       4.352  -1.761  28.245  0.00  0.00    +0.084 C 
BRANCH  27  30
ATOM     30  C   UNL     1       5.332  -4.715  28.129  0.00  0.00    +0.031 C 
BRANCH  30  31
ATOM     31  C   UNL     1       6.482  -5.631  27.719  0.00  0.00    +0.156 C 
BRANCH  31  32
ATOM     32  O   UNL     1       6.910  -6.401  28.834  0.00  0.00    -0.395 OA
ATOM     33  H   UNL     1       6.379  -6.128  29.601  0.00  0.00    +0.209 HD
ENDBRANCH  31  32
ENDBRANCH  30  31
ENDBRANCH  27  30
ENDBRANCH  23  24
ENDBRANCH  22  23
ENDBRANCH  21  22
ENDBRANCH   8  21
TORSDOF 9
ENDMDL
