MODEL 1
REMARK VINA RESULT:      -7.7      0.000      0.000
REMARK  Name = 
REMARK  6 active torsions:
REMARK  status: ('A' for Active; 'I' for Inactive)
REMARK    1  A    between atoms: C_9  and  C_11
REMARK    2  A    between atoms: C_11  and  C_12
REMARK    3  A    between atoms: C_14  and  C_15
REMARK    4  A    between atoms: C_19  and  C_20
REMARK    5  A    between atoms: C_23  and  C_24
REMARK    6  A    between atoms: C_23  and  O_25
REMARK                            x       y       z     vdW  Elec       q    Type
REMARK                         _______ _______ _______ _____ _____    ______ ____
ROOT
ATOM      1  C   UNL     1       8.488   2.707  24.409  0.00  0.00    -0.002 C 
ATOM      2  C   UNL     1       8.810   4.070  25.006  0.00  0.00    +0.038 C 
ATOM      3  C   UNL     1       9.377   4.971  23.909  0.00  0.00    +0.064 C 
ATOM      4  C   UNL     1       9.482   6.406  24.411  0.00  0.00    +0.041 C 
ATOM      5  C   UNL     1      10.698   4.351  23.454  0.00  0.00    +0.035 C 
ATOM      6  C   UNL     1      10.493   2.947  22.817  0.00  0.00    +0.010 C 
ATOM      7  C   UNL     1       9.683   1.942  23.705  0.00  0.00    -0.026 C 
ATOM      8  C   UNL     1      10.712   1.317  24.683  0.00  0.00    +0.012 C 
ATOM      9  C   UNL     1       8.962   0.786  22.875  0.00  0.00    -0.001 C 
ATOM     10  C   UNL     1       8.034  -0.057  23.810  0.00  0.00    -0.004 C 
ATOM     11  C   UNL     1       7.470  -1.163  22.971  0.00  0.00    -0.001 C 
ATOM     12  C   UNL     1       8.541  -2.263  22.688  0.00  0.00    -0.019 C 
ATOM     13  C   UNL     1       9.324  -1.545  21.523  0.00  0.00    +0.008 C 
ATOM     14  C   UNL     1       9.711  -2.670  23.630  0.00  0.00    +0.012 C 
ATOM     15  C   UNL     1       7.587  -3.507  22.487  0.00  0.00    +0.061 C 
ATOM     16  C   UNL     1       6.126  -3.010  22.458  0.00  0.00    +0.012 C 
ATOM     17  C   UNL     1       6.133  -1.772  23.331  0.00  0.00    +0.005 C 
ATOM     18  C   UNL     1       6.963   0.796  24.474  0.00  0.00    +0.004 C 
ATOM     19  C   UNL     1       9.847  -0.092  21.918  0.00  0.00    +0.005 C 
ATOM     20  C   UNL     1       7.645   1.842  25.344  0.00  0.00    +0.004 C 
ENDROOT
BRANCH  15  21
ATOM     21  C   UNL     1       7.597  -4.564  23.618  0.00  0.00    +0.134 C 
ATOM     22  O   UNL     1       8.282  -5.583  23.522  0.00  0.00    -0.297 OA
ATOM     23  C   UNL     1       6.656  -4.416  24.825  0.00  0.00    +0.086 C 
ENDBRANCH  15  21
BRANCH   3  24
ATOM     24  O   UNL     1       8.467   5.077  22.797  0.00  0.00    -0.389 OA
ATOM     25  H   UNL     1       7.894   5.839  22.902  0.00  0.00    +0.210 HD
ENDBRANCH   3  24
TORSDOF 2
ENDMDL
MODEL 2
REMARK VINA RESULT:      -7.6      1.358      2.601
REMARK  Name = 
REMARK  6 active torsions:
REMARK  status: ('A' for Active; 'I' for Inactive)
REMARK    1  A    between atoms: C_9  and  C_11
REMARK    2  A    between atoms: C_11  and  C_12
REMARK    3  A    between atoms: C_14  and  C_15
REMARK    4  A    between atoms: C_19  and  C_20
REMARK    5  A    between atoms: C_23  and  C_24
REMARK    6  A    between atoms: C_23  and  O_25
REMARK                            x       y       z     vdW  Elec       q    Type
REMARK                         _______ _______ _______ _____ _____    ______ ____
ROOT
ATOM      1  C   UNL     1       9.721   2.224  24.076  0.00  0.00    -0.002 C 
ATOM      2  C   UNL     1      10.357   3.565  23.739  0.00  0.00    +0.038 C 
ATOM      3  C   UNL     1       9.317   4.670  23.931  0.00  0.00    +0.064 C 
ATOM      4  C   UNL     1       9.981   6.037  23.838  0.00  0.00    +0.041 C 
ATOM      5  C   UNL     1       8.206   4.425  22.909  0.00  0.00    +0.035 C 
ATOM      6  C   UNL     1       7.474   3.075  23.158  0.00  0.00    +0.010 C 
ATOM      7  C   UNL     1       8.422   1.831  23.259  0.00  0.00    -0.026 C 
ATOM      8  C   UNL     1       8.691   1.384  21.799  0.00  0.00    +0.012 C 
ATOM      9  C   UNL     1       7.802   0.616  24.086  0.00  0.00    -0.001 C 
ATOM     10  C   UNL     1       8.874  -0.504  24.293  0.00  0.00    -0.004 C 
ATOM     11  C   UNL     1       8.185  -1.633  24.998  0.00  0.00    -0.001 C 
ATOM     12  C   UNL     1       7.246  -2.417  24.029  0.00  0.00    -0.019 C 
ATOM     13  C   UNL     1       6.014  -1.433  24.036  0.00  0.00    +0.008 C 
ATOM     14  C   UNL     1       7.461  -2.616  22.500  0.00  0.00    +0.012 C 
ATOM     15  C   UNL     1       7.263  -3.830  24.739  0.00  0.00    +0.061 C 
ATOM     16  C   UNL     1       7.992  -3.694  26.092  0.00  0.00    +0.012 C 
ATOM     17  C   UNL     1       8.986  -2.573  25.873  0.00  0.00    +0.005 C 
ATOM     18  C   UNL     1      10.100   0.007  25.038  0.00  0.00    +0.004 C 
ATOM     19  C   UNL     1       6.401   0.062  23.639  0.00  0.00    +0.005 C 
ATOM     20  C   UNL     1      10.751   1.103  24.206  0.00  0.00    +0.004 C 
ENDROOT
BRANCH  15  21
ATOM     21  C   UNL     1       8.042  -4.950  24.009  0.00  0.00    +0.134 C 
ATOM     22  O   UNL     1       9.213  -5.196  24.300  0.00  0.00    -0.297 OA
ATOM     23  C   UNL     1       7.402  -5.692  22.824  0.00  0.00    +0.086 C 
ENDBRANCH  15  21
BRANCH   3  24
ATOM     24  O   UNL     1       8.778   4.655  25.266  0.00  0.00    -0.389 OA
ATOM     25  H   UNL     1       9.482   4.574  25.913  0.00  0.00    +0.210 HD
ENDBRANCH   3  24
TORSDOF 2
ENDMDL
MODEL 3
REMARK VINA RESULT:      -7.4      1.956      3.290
REMARK  Name = 
REMARK  6 active torsions:
REMARK  status: ('A' for Active; 'I' for Inactive)
REMARK    1  A    between atoms: C_9  and  C_11
REMARK    2  A    between atoms: C_11  and  C_12
REMARK    3  A    between atoms: C_14  and  C_15
REMARK    4  A    between atoms: C_19  and  C_20
REMARK    5  A    between atoms: C_23  and  C_24
REMARK    6  A    between atoms: C_23  and  O_25
REMARK                            x       y       z     vdW  Elec       q    Type
REMARK                         _______ _______ _______ _____ _____    ______ ____
ROOT
ATOM      1  C   UNL     1       8.170   0.379  23.897  0.00  0.00    -0.002 C 
ATOM      2  C   UNL     1       8.680   1.806  24.042  0.00  0.00    +0.038 C 
ATOM      3  C   UNL     1      10.109   1.880  23.501  0.00  0.00    +0.064 C 
ATOM      4  C   UNL     1      10.560   3.332  23.407  0.00  0.00    +0.041 C 
ATOM      5  C   UNL     1      10.975   0.996  24.398  0.00  0.00    +0.035 C 
ATOM      6  C   UNL     1      10.549  -0.498  24.330  0.00  0.00    +0.010 C 
ATOM      7  C   UNL     1       9.026  -0.753  24.600  0.00  0.00    -0.026 C 
ATOM      8  C   UNL     1       8.875  -0.810  26.143  0.00  0.00    +0.012 C 
ATOM      9  C   UNL     1       8.476  -2.105  23.958  0.00  0.00    -0.001 C 
ATOM     10  C   UNL     1       6.923  -2.190  24.117  0.00  0.00    -0.004 C 
ATOM     11  C   UNL     1       6.506  -3.520  23.567  0.00  0.00    -0.001 C 
ATOM     12  C   UNL     1       6.882  -4.679  24.542  0.00  0.00    -0.019 C 
ATOM     13  C   UNL     1       8.411  -4.815  24.180  0.00  0.00    +0.008 C 
ATOM     14  C   UNL     1       6.949  -4.590  26.094  0.00  0.00    +0.012 C 
ATOM     15  C   UNL     1       5.773  -5.730  24.134  0.00  0.00    +0.061 C 
ATOM     16  C   UNL     1       5.031  -5.206  22.887  0.00  0.00    +0.012 C 
ATOM     17  C   UNL     1       5.112  -3.698  23.007  0.00  0.00    +0.005 C 
ATOM     18  C   UNL     1       6.213  -1.019  23.452  0.00  0.00    +0.004 C 
ATOM     19  C   UNL     1       9.214  -3.444  24.320  0.00  0.00    +0.005 C 
ATOM     20  C   UNL     1       6.664   0.269  24.127  0.00  0.00    +0.004 C 
ENDROOT
BRANCH  15  21
ATOM     21  C   UNL     1       4.644  -5.965  25.166  0.00  0.00    +0.134 C 
ATOM     22  O   UNL     1       4.643  -6.966  25.883  0.00  0.00    -0.297 OA
ATOM     23  C   UNL     1       3.440  -5.011  25.227  0.00  0.00    +0.086 C 
ENDBRANCH  15  21
BRANCH   3  24
ATOM     24  O   UNL     1      10.176   1.425  22.137  0.00  0.00    -0.389 OA
ATOM     25  H   UNL     1       9.684   0.608  22.029  0.00  0.00    +0.210 HD
ENDBRANCH   3  24
TORSDOF 2
ENDMDL
MODEL 4
REMARK VINA RESULT:      -7.3      1.953      3.459
REMARK  Name = 
REMARK  6 active torsions:
REMARK  status: ('A' for Active; 'I' for Inactive)
REMARK    1  A    between atoms: C_9  and  C_11
REMARK    2  A    between atoms: C_11  and  C_12
REMARK    3  A    between atoms: C_14  and  C_15
REMARK    4  A    between atoms: C_19  and  C_20
REMARK    5  A    between atoms: C_23  and  C_24
REMARK    6  A    between atoms: C_23  and  O_25
REMARK                            x       y       z     vdW  Elec       q    Type
REMARK                         _______ _______ _______ _____ _____    ______ ____
ROOT
ATOM      1  C   UNL     1       8.694  -0.096  24.531  0.00  0.00    -0.002 C 
ATOM      2  C   UNL     1       9.832   0.912  24.609  0.00  0.00    +0.038 C 
ATOM      3  C   UNL     1       9.773   1.823  23.382  0.00  0.00    +0.064 C 
ATOM      4  C   UNL     1      10.741   2.988  23.547  0.00  0.00    +0.041 C 
ATOM      5  C   UNL     1      10.028   0.945  22.157  0.00  0.00    +0.035 C 
ATOM      6  C   UNL     1       8.919  -0.129  21.969  0.00  0.00    +0.010 C 
ATOM      7  C   UNL     1       8.644  -1.009  23.237  0.00  0.00    -0.026 C 
ATOM      8  C   UNL     1       9.704  -2.139  23.205  0.00  0.00    +0.012 C 
ATOM      9  C   UNL     1       7.182  -1.645  23.273  0.00  0.00    -0.001 C 
ATOM     10  C   UNL     1       6.930  -2.350  24.646  0.00  0.00    -0.004 C 
ATOM     11  C   UNL     1       5.577  -2.989  24.560  0.00  0.00    -0.001 C 
ATOM     12  C   UNL     1       5.611  -4.269  23.668  0.00  0.00    -0.019 C 
ATOM     13  C   UNL     1       5.566  -3.580  22.251  0.00  0.00    +0.008 C 
ATOM     14  C   UNL     1       6.818  -5.236  23.493  0.00  0.00    +0.012 C 
ATOM     15  C   UNL     1       4.405  -5.064  24.312  0.00  0.00    +0.061 C 
ATOM     16  C   UNL     1       3.684  -4.140  25.316  0.00  0.00    +0.012 C 
ATOM     17  C   UNL     1       4.770  -3.213  25.820  0.00  0.00    +0.005 C 
ATOM     18  C   UNL     1       7.063  -1.387  25.818  0.00  0.00    +0.004 C 
ATOM     19  C   UNL     1       6.723  -2.503  22.039  0.00  0.00    +0.005 C 
ATOM     20  C   UNL     1       8.487  -0.848  25.844  0.00  0.00    +0.004 C 
ENDROOT
BRANCH  15  21
ATOM     21  C   UNL     1       4.779  -6.307  25.154  0.00  0.00    +0.134 C 
ATOM     22  O   UNL     1       4.475  -7.439  24.777  0.00  0.00    -0.297 OA
ATOM     23  C   UNL     1       5.430  -6.138  26.536  0.00  0.00    +0.086 C 
ENDBRANCH  15  21
BRANCH   3  24
ATOM     24  O   UNL     1       8.492   2.471  23.273  0.00  0.00    -0.389 OA
ATOM     25  H   UNL     1       7.805   1.928  23.664  0.00  0.00    +0.210 HD
ENDBRANCH   3  24
TORSDOF 2
ENDMDL
MODEL 5
REMARK VINA RESULT:      -7.1      2.081      7.357
REMARK  Name = 
REMARK  6 active torsions:
REMARK  status: ('A' for Active; 'I' for Inactive)
REMARK    1  A    between atoms: C_9  and  C_11
REMARK    2  A    between atoms: C_11  and  C_12
REMARK    3  A    between atoms: C_14  and  C_15
REMARK    4  A    between atoms: C_19  and  C_20
REMARK    5  A    between atoms: C_23  and  C_24
REMARK    6  A    between atoms: C_23  and  O_25
REMARK                            x       y       z     vdW  Elec       q    Type
REMARK                         _______ _______ _______ _____ _____    ______ ____
ROOT
ATOM      1  C   UNL     1       6.297  -3.908  23.898  0.00  0.00    -0.002 C 
ATOM      2  C   UNL     1       5.871  -5.368  23.824  0.00  0.00    +0.038 C 
ATOM      3  C   UNL     1       5.179  -5.750  25.133  0.00  0.00    +0.064 C 
ATOM      4  C   UNL     1       4.529  -7.121  25.002  0.00  0.00    +0.041 C 
ATOM      5  C   UNL     1       6.223  -5.638  26.244  0.00  0.00    +0.035 C 
ATOM      6  C   UNL     1       6.733  -4.179  26.418  0.00  0.00    +0.010 C 
ATOM      7  C   UNL     1       7.250  -3.509  25.099  0.00  0.00    -0.026 C 
ATOM      8  C   UNL     1       8.720  -3.974  24.937  0.00  0.00    +0.012 C 
ATOM      9  C   UNL     1       7.191  -1.915  25.122  0.00  0.00    -0.001 C 
ATOM     10  C   UNL     1       7.548  -1.338  23.713  0.00  0.00    -0.004 C 
ATOM     11  C   UNL     1       7.552   0.155  23.848  0.00  0.00    -0.001 C 
ATOM     12  C   UNL     1       8.822   0.651  24.608  0.00  0.00    -0.019 C 
ATOM     13  C   UNL     1       8.357   0.346  26.083  0.00  0.00    +0.008 C 
ATOM     14  C   UNL     1      10.225  -0.022  24.590  0.00  0.00    +0.012 C 
ATOM     15  C   UNL     1       8.940   2.103  23.992  0.00  0.00    +0.061 C 
ATOM     16  C   UNL     1       7.682   2.384  23.143  0.00  0.00    +0.012 C 
ATOM     17  C   UNL     1       7.254   1.019  22.642  0.00  0.00    +0.005 C 
ATOM     18  C   UNL     1       6.599  -1.838  22.632  0.00  0.00    +0.004 C 
ATOM     19  C   UNL     1       7.913  -1.170  26.302  0.00  0.00    +0.005 C 
ATOM     20  C   UNL     1       6.723  -3.352  22.541  0.00  0.00    +0.004 C 
ENDROOT
BRANCH  15  21
ATOM     21  C   UNL     1      10.111   2.333  23.008  0.00  0.00    +0.134 C 
ATOM     22  O   UNL     1      10.204   1.672  21.972  0.00  0.00    -0.297 OA
ATOM     23  C   UNL     1      11.245   3.306  23.367  0.00  0.00    +0.086 C 
ENDBRANCH  15  21
BRANCH   3  24
ATOM     24  O   UNL     1       4.064  -4.882  25.408  0.00  0.00    -0.389 OA
ATOM     25  H   UNL     1       4.125  -4.078  24.887  0.00  0.00    +0.210 HD
ENDBRANCH   3  24
TORSDOF 2
ENDMDL
MODEL 6
REMARK VINA RESULT:      -7.1      1.890      3.542
REMARK  Name = 
REMARK  6 active torsions:
REMARK  status: ('A' for Active; 'I' for Inactive)
REMARK    1  A    between atoms: C_9  and  C_11
REMARK    2  A    between atoms: C_11  and  C_12
REMARK    3  A    between atoms: C_14  and  C_15
REMARK    4  A    between atoms: C_19  and  C_20
REMARK    5  A    between atoms: C_23  and  C_24
REMARK    6  A    between atoms: C_23  and  O_25
REMARK                            x       y       z     vdW  Elec       q    Type
REMARK                         _______ _______ _______ _____ _____    ______ ____
ROOT
ATOM      1  C   UNL     1       9.311   0.444  22.703  0.00  0.00    -0.002 C 
ATOM      2  C   UNL     1       9.895   1.796  22.320  0.00  0.00    +0.038 C 
ATOM      3  C   UNL     1      10.460   2.466  23.574  0.00  0.00    +0.064 C 
ATOM      4  C   UNL     1      11.262   3.703  23.191  0.00  0.00    +0.041 C 
ATOM      5  C   UNL     1       9.283   2.729  24.512  0.00  0.00    +0.035 C 
ATOM      6  C   UNL     1       8.604   1.410  24.979  0.00  0.00    +0.010 C 
ATOM      7  C   UNL     1       8.183   0.448  23.815  0.00  0.00    -0.026 C 
ATOM      8  C   UNL     1       6.801   0.954  23.328  0.00  0.00    +0.012 C 
ATOM      9  C   UNL     1       8.070  -1.081  24.254  0.00  0.00    -0.001 C 
ATOM     10  C   UNL     1       7.828  -1.989  23.003  0.00  0.00    -0.004 C 
ATOM     11  C   UNL     1       7.650  -3.386  23.514  0.00  0.00    -0.001 C 
ATOM     12  C   UNL     1       6.252  -3.571  24.183  0.00  0.00    -0.019 C 
ATOM     13  C   UNL     1       6.564  -2.914  25.583  0.00  0.00    +0.008 C 
ATOM     14  C   UNL     1       4.940  -2.831  23.791  0.00  0.00    +0.012 C 
ATOM     15  C   UNL     1       6.057  -5.122  23.950  0.00  0.00    +0.061 C 
ATOM     16  C   UNL     1       7.372  -5.708  23.392  0.00  0.00    +0.012 C 
ATOM     17  C   UNL     1       7.998  -4.561  22.626  0.00  0.00    +0.005 C 
ATOM     18  C   UNL     1       8.948  -1.865  21.979  0.00  0.00    +0.004 C 
ATOM     19  C   UNL     1       7.136  -1.430  25.468  0.00  0.00    +0.005 C 
ATOM     20  C   UNL     1       8.997  -0.425  21.486  0.00  0.00    +0.004 C 
ENDROOT
BRANCH  15  21
ATOM     21  C   UNL     1       4.996  -5.525  22.898  0.00  0.00    +0.134 C 
ATOM     22  O   UNL     1       5.196  -5.339  21.697  0.00  0.00    -0.297 OA
ATOM     23  C   UNL     1       3.624  -6.054  23.346  0.00  0.00    +0.086 C 
ENDBRANCH  15  21
BRANCH   3  24
ATOM     24  O   UNL     1      11.436   1.628  24.220  0.00  0.00    -0.389 OA
ATOM     25  H   UNL     1      12.239   1.580  23.698  0.00  0.00    +0.210 HD
ENDBRANCH   3  24
TORSDOF 2
ENDMDL
MODEL 7
REMARK VINA RESULT:      -7.1      3.016      8.376
REMARK  Name = 
REMARK  6 active torsions:
REMARK  status: ('A' for Active; 'I' for Inactive)
REMARK    1  A    between atoms: C_9  and  C_11
REMARK    2  A    between atoms: C_11  and  C_12
REMARK    3  A    between atoms: C_14  and  C_15
REMARK    4  A    between atoms: C_19  and  C_20
REMARK    5  A    between atoms: C_23  and  C_24
REMARK    6  A    between atoms: C_23  and  O_25
REMARK                            x       y       z     vdW  Elec       q    Type
REMARK                         _______ _______ _______ _____ _____    ______ ____
ROOT
ATOM      1  C   UNL     1       4.807  -5.856  25.444  0.00  0.00    -0.002 C 
ATOM      2  C   UNL     1       3.725  -6.777  25.992  0.00  0.00    +0.038 C 
ATOM      3  C   UNL     1       2.845  -7.251  24.835  0.00  0.00    +0.064 C 
ATOM      4  C   UNL     1       1.909  -8.356  25.308  0.00  0.00    +0.041 C 
ATOM      5  C   UNL     1       2.145  -6.017  24.267  0.00  0.00    +0.035 C 
ATOM      6  C   UNL     1       3.157  -4.997  23.669  0.00  0.00    +0.010 C 
ATOM      7  C   UNL     1       4.314  -4.583  24.641  0.00  0.00    -0.026 C 
ATOM      8  C   UNL     1       3.737  -3.448  25.526  0.00  0.00    +0.012 C 
ATOM      9  C   UNL     1       5.626  -4.067  23.896  0.00  0.00    -0.001 C 
ATOM     10  C   UNL     1       6.785  -3.851  24.924  0.00  0.00    -0.004 C 
ATOM     11  C   UNL     1       7.942  -3.289  24.155  0.00  0.00    -0.001 C 
ATOM     12  C   UNL     1       7.703  -1.791  23.787  0.00  0.00    -0.019 C 
ATOM     13  C   UNL     1       6.754  -1.994  22.545  0.00  0.00    +0.008 C 
ATOM     14  C   UNL     1       6.890  -0.758  24.620  0.00  0.00    +0.012 C 
ATOM     15  C   UNL     1       9.205  -1.306  23.692  0.00  0.00    +0.061 C 
ATOM     16  C   UNL     1      10.130  -2.537  23.793  0.00  0.00    +0.012 C 
ATOM     17  C   UNL     1       9.354  -3.520  24.647  0.00  0.00    +0.005 C 
ATOM     18  C   UNL     1       7.131  -5.129  25.675  0.00  0.00    +0.004 C 
ATOM     19  C   UNL     1       5.473  -2.886  22.872  0.00  0.00    +0.005 C 
ATOM     20  C   UNL     1       5.908  -5.574  26.465  0.00  0.00    +0.004 C 
ENDROOT
BRANCH  15  21
ATOM     21  C   UNL     1       9.696  -0.379  24.829  0.00  0.00    +0.134 C 
ATOM     22  O   UNL     1       9.379  -0.594  25.999  0.00  0.00    -0.297 OA
ATOM     23  C   UNL     1      10.488   0.897  24.500  0.00  0.00    +0.086 C 
ENDBRANCH  15  21
BRANCH   3  24
ATOM     24  O   UNL     1       3.626  -7.896  23.813  0.00  0.00    -0.389 OA
ATOM     25  H   UNL     1       4.207  -7.264  23.383  0.00  0.00    +0.210 HD
ENDBRANCH   3  24
TORSDOF 2
ENDMDL
MODEL 8
REMARK VINA RESULT:      -7.0      2.099      2.359
REMARK  Name = 
REMARK  6 active torsions:
REMARK  status: ('A' for Active; 'I' for Inactive)
REMARK    1  A    between atoms: C_9  and  C_11
REMARK    2  A    between atoms: C_11  and  C_12
REMARK    3  A    between atoms: C_14  and  C_15
REMARK    4  A    between atoms: C_19  and  C_20
REMARK    5  A    between atoms: C_23  and  C_24
REMARK    6  A    between atoms: C_23  and  O_25
REMARK                            x       y       z     vdW  Elec       q    Type
REMARK                         _______ _______ _______ _____ _____    ______ ____
ROOT
ATOM      1  C   UNL     1       6.193   2.282  23.990  0.00  0.00    -0.002 C 
ATOM      2  C   UNL     1       5.819   3.743  24.192  0.00  0.00    +0.038 C 
ATOM      3  C   UNL     1       5.793   4.442  22.831  0.00  0.00    +0.064 C 
ATOM      4  C   UNL     1       5.191   5.834  22.968  0.00  0.00    +0.041 C 
ATOM      5  C   UNL     1       7.219   4.410  22.282  0.00  0.00    +0.035 C 
ATOM      6  C   UNL     1       7.713   2.957  22.029  0.00  0.00    +0.010 C 
ATOM      7  C   UNL     1       7.569   1.997  23.259  0.00  0.00    -0.026 C 
ATOM      8  C   UNL     1       8.825   2.241  24.135  0.00  0.00    +0.012 C 
ATOM      9  C   UNL     1       7.483   0.454  22.865  0.00  0.00    -0.001 C 
ATOM     10  C   UNL     1       7.158  -0.412  24.126  0.00  0.00    -0.004 C 
ATOM     11  C   UNL     1       7.181  -1.843  23.682  0.00  0.00    -0.001 C 
ATOM     12  C   UNL     1       8.642  -2.342  23.453  0.00  0.00    -0.019 C 
ATOM     13  C   UNL     1       8.892  -1.716  22.027  0.00  0.00    +0.008 C 
ATOM     14  C   UNL     1       9.909  -1.860  24.218  0.00  0.00    +0.012 C 
ATOM     15  C   UNL     1       8.433  -3.886  23.725  0.00  0.00    +0.061 C 
ATOM     16  C   UNL     1       6.922  -4.163  23.867  0.00  0.00    +0.012 C 
ATOM     17  C   UNL     1       6.354  -2.872  24.421  0.00  0.00    +0.005 C 
ATOM     18  C   UNL     1       5.842  -0.008  24.776  0.00  0.00    +0.004 C 
ATOM     19  C   UNL     1       8.634  -0.143  21.978  0.00  0.00    +0.005 C 
ATOM     20  C   UNL     1       5.954   1.437  25.240  0.00  0.00    +0.004 C 
ENDROOT
BRANCH  15  21
ATOM     21  C   UNL     1       9.037  -4.434  25.040  0.00  0.00    +0.134 C 
ATOM     22  O   UNL     1      10.087  -5.077  25.032  0.00  0.00    -0.297 OA
ATOM     23  C   UNL     1       8.269  -4.289  26.363  0.00  0.00    +0.086 C 
ENDBRANCH  15  21
BRANCH   3  24
ATOM     24  O   UNL     1       4.894   3.781  21.922  0.00  0.00    -0.389 OA
ATOM     25  H   UNL     1       4.908   4.209  21.063  0.00  0.00    +0.210 HD
ENDBRANCH   3  24
TORSDOF 2
ENDMDL
MODEL 9
REMARK VINA RESULT:      -7.0      3.866      9.383
REMARK  Name = 
REMARK  6 active torsions:
REMARK  status: ('A' for Active; 'I' for Inactive)
REMARK    1  A    between atoms: C_9  and  C_11
REMARK    2  A    between atoms: C_11  and  C_12
REMARK    3  A    between atoms: C_14  and  C_15
REMARK    4  A    between atoms: C_19  and  C_20
REMARK    5  A    between atoms: C_23  and  C_24
REMARK    6  A    between atoms: C_23  and  O_25
REMARK                            x       y       z     vdW  Elec       q    Type
REMARK                         _______ _______ _______ _____ _____    ______ ____
ROOT
ATOM      1  C   UNL     1       3.498  -6.744  25.944  0.00  0.00    -0.002 C 
ATOM      2  C   UNL     1       2.142  -7.279  26.385  0.00  0.00    +0.038 C 
ATOM      3  C   UNL     1       1.672  -8.329  25.377  0.00  0.00    +0.064 C 
ATOM      4  C   UNL     1       0.443  -9.054  25.911  0.00  0.00    +0.041 C 
ATOM      5  C   UNL     1       1.464  -7.611  24.044  0.00  0.00    +0.035 C 
ATOM      6  C   UNL     1       2.792  -7.021  23.487  0.00  0.00    +0.010 C 
ATOM      7  C   UNL     1       3.571  -6.109  24.495  0.00  0.00    -0.026 C 
ATOM      8  C   UNL     1       2.930  -4.703  24.375  0.00  0.00    +0.012 C 
ATOM      9  C   UNL     1       5.135  -6.012  24.197  0.00  0.00    -0.001 C 
ATOM     10  C   UNL     1       5.860  -5.238  25.347  0.00  0.00    -0.004 C 
ATOM     11  C   UNL     1       7.299  -5.121  24.945  0.00  0.00    -0.001 C 
ATOM     12  C   UNL     1       7.488  -4.055  23.821  0.00  0.00    -0.019 C 
ATOM     13  C   UNL     1       7.035  -4.923  22.585  0.00  0.00    +0.008 C 
ATOM     14  C   UNL     1       6.631  -2.772  23.617  0.00  0.00    +0.012 C 
ATOM     15  C   UNL     1       8.983  -3.633  24.114  0.00  0.00    +0.061 C 
ATOM     16  C   UNL     1       9.567  -4.586  25.179  0.00  0.00    +0.012 C 
ATOM     17  C   UNL     1       8.369  -4.999  26.009  0.00  0.00    +0.005 C 
ATOM     18  C   UNL     1       5.670  -5.911  26.699  0.00  0.00    +0.004 C 
ATOM     19  C   UNL     1       5.583  -5.558  22.761  0.00  0.00    +0.005 C 
ATOM     20  C   UNL     1       4.184  -5.920  27.032  0.00  0.00    +0.004 C 
ENDROOT
BRANCH  15  21
ATOM     21  C   UNL     1       9.188  -2.226  24.723  0.00  0.00    +0.134 C 
ATOM     22  O   UNL     1       8.741  -1.950  25.838  0.00  0.00    -0.297 OA
ATOM     23  C   UNL     1       9.848  -1.111  23.895  0.00  0.00    +0.086 C 
ENDBRANCH  15  21
BRANCH   3  24
ATOM     24  O   UNL     1       2.640  -9.384  25.230  0.00  0.00    -0.389 OA
ATOM     25  H   UNL     1       2.567  -9.791  24.364  0.00  0.00    +0.210 HD
ENDBRANCH   3  24
TORSDOF 2
ENDMDL
