MODEL 1
REMARK VINA RESULT:      -4.7      0.000      0.000
REMARK  Name = 
REMARK  1 active torsions:
REMARK  status: ('A' for Active; 'I' for Inactive)
REMARK    1  A    between atoms: N_1  and  C_2
REMARK                            x       y       z     vdW  Elec       q    Type
REMARK                         _______ _______ _______ _____ _____    ______ ____
ROOT
ATOM      1  C   UNL     1       9.830   0.846  22.038  0.00  0.00    +0.106 A 
ATOM      2  C   UNL     1      10.258   0.653  23.473  0.00  0.00    +0.275 A 
ATOM      3  O   UNL     1      10.417   1.617  24.219  0.00  0.00    -0.266 OA
ATOM      4  N   UNL     1      10.419  -0.636  23.897  0.00  0.00    -0.274 N 
ATOM      5  H   UNL     1      10.699  -0.778  24.854  0.00  0.00    +0.173 HD
ATOM      6  C   UNL     1      10.099  -1.745  23.171  0.00  0.00    +0.327 A 
ATOM      7  O   UNL     1      10.180  -2.878  23.631  0.00  0.00    -0.247 OA
ATOM      8  N   UNL     1       9.666  -1.512  21.895  0.00  0.00    -0.313 N 
ATOM      9  H   UNL     1       9.440  -2.337  21.351  0.00  0.00    +0.170 HD
ATOM     10  C   UNL     1       9.547  -0.266  21.347  0.00  0.00    +0.115 A 
ENDROOT
BRANCH   1  11
ATOM     11  N   UNL     1       9.731   2.141  21.562  0.00  0.00    -0.353 N 
ATOM     12  H   UNL     1       8.911   2.612  21.953  0.00  0.00    +0.143 HD
ATOM     13  H   UNL     1       9.793   2.219  20.552  0.00  0.00    +0.143 HD
ENDBRANCH   1  11
TORSDOF 1
ENDMDL
MODEL 2
REMARK VINA RESULT:      -4.2      5.384      6.472
REMARK  Name = 
REMARK  1 active torsions:
REMARK  status: ('A' for Active; 'I' for Inactive)
REMARK    1  A    between atoms: N_1  and  C_2
REMARK                            x       y       z     vdW  Elec       q    Type
REMARK                         _______ _______ _______ _____ _____    ______ ____
ROOT
ATOM      1  C   UNL     1       7.653  -4.777  24.414  0.00  0.00    +0.106 A 
ATOM      2  C   UNL     1       8.830  -5.155  25.281  0.00  0.00    +0.275 A 
ATOM      3  O   UNL     1       9.983  -4.994  24.885  0.00  0.00    -0.266 OA
ATOM      4  N   UNL     1       8.544  -5.641  26.526  0.00  0.00    -0.274 N 
ATOM      5  H   UNL     1       9.321  -5.890  27.116  0.00  0.00    +0.173 HD
ATOM      6  C   UNL     1       7.300  -5.686  27.082  0.00  0.00    +0.327 A 
ATOM      7  O   UNL     1       7.109  -6.050  28.237  0.00  0.00    -0.247 OA
ATOM      8  N   UNL     1       6.275  -5.283  26.272  0.00  0.00    -0.313 N 
ATOM      9  H   UNL     1       5.348  -5.329  26.682  0.00  0.00    +0.170 HD
ATOM     10  C   UNL     1       6.444  -4.857  24.985  0.00  0.00    +0.115 A 
ENDROOT
BRANCH   1  11
ATOM     11  N   UNL     1       7.911  -4.352  23.124  0.00  0.00    -0.353 N 
ATOM     12  H   UNL     1       8.554  -4.992  22.650  0.00  0.00    +0.143 HD
ATOM     13  H   UNL     1       8.192  -3.379  23.054  0.00  0.00    +0.143 HD
ENDBRANCH   1  11
TORSDOF 1
ENDMDL
MODEL 3
REMARK VINA RESULT:      -4.1      1.990      2.655
REMARK  Name = 
REMARK  1 active torsions:
REMARK  status: ('A' for Active; 'I' for Inactive)
REMARK    1  A    between atoms: N_1  and  C_2
REMARK                            x       y       z     vdW  Elec       q    Type
REMARK                         _______ _______ _______ _____ _____    ______ ____
ROOT
ATOM      1  C   UNL     1       9.957   1.538  22.788  0.00  0.00    +0.106 A 
ATOM      2  C   UNL     1       9.703   0.058  22.624  0.00  0.00    +0.275 A 
ATOM      3  O   UNL     1       9.809  -0.482  21.525  0.00  0.00    -0.266 OA
ATOM      4  N   UNL     1       9.392  -0.640  23.757  0.00  0.00    -0.274 N 
ATOM      5  H   UNL     1       9.226  -1.629  23.662  0.00  0.00    +0.173 HD
ATOM      6  C   UNL     1       9.423  -0.133  25.022  0.00  0.00    +0.327 A 
ATOM      7  O   UNL     1       9.221  -0.825  26.013  0.00  0.00    -0.247 OA
ATOM      8  N   UNL     1       9.710   1.200  25.119  0.00  0.00    -0.313 N 
ATOM      9  H   UNL     1       9.720   1.580  26.059  0.00  0.00    +0.170 HD
ATOM     10  C   UNL     1       9.955   2.006  24.042  0.00  0.00    +0.115 A 
ENDROOT
BRANCH   1  11
ATOM     11  N   UNL     1      10.201   2.282  21.648  0.00  0.00    -0.353 N 
ATOM     12  H   UNL     1       9.327   2.626  21.242  0.00  0.00    +0.143 HD
ATOM     13  H   UNL     1      10.801   1.821  20.971  0.00  0.00    +0.143 HD
ENDBRANCH   1  11
TORSDOF 1
ENDMDL
MODEL 4
REMARK VINA RESULT:      -4.1      5.652      6.865
REMARK  Name = 
REMARK  1 active torsions:
REMARK  status: ('A' for Active; 'I' for Inactive)
REMARK    1  A    between atoms: N_1  and  C_2
REMARK                            x       y       z     vdW  Elec       q    Type
REMARK                         _______ _______ _______ _____ _____    ______ ____
ROOT
ATOM      1  C   UNL     1       6.388  -5.380  25.923  0.00  0.00    +0.106 A 
ATOM      2  C   UNL     1       7.491  -5.539  26.943  0.00  0.00    +0.275 A 
ATOM      3  O   UNL     1       7.244  -5.922  28.084  0.00  0.00    -0.266 OA
ATOM      4  N   UNL     1       8.763  -5.273  26.519  0.00  0.00    -0.274 N 
ATOM      5  H   UNL     1       9.507  -5.382  27.188  0.00  0.00    +0.173 HD
ATOM      6  C   UNL     1       9.118  -5.008  25.229  0.00  0.00    +0.327 A 
ATOM      7  O   UNL     1      10.286  -4.864  24.886  0.00  0.00    -0.247 OA
ATOM      8  N   UNL     1       8.087  -4.927  24.336  0.00  0.00    -0.313 N 
ATOM      9  H   UNL     1       8.351  -4.716  23.379  0.00  0.00    +0.170 HD
ATOM     10  C   UNL     1       6.773  -5.095  24.672  0.00  0.00    +0.115 A 
ENDROOT
BRANCH   1  11
ATOM     11  N   UNL     1       5.086  -5.570  26.345  0.00  0.00    -0.353 N 
ATOM     12  H   UNL     1       5.015  -5.485  27.362  0.00  0.00    +0.143 HD
ATOM     13  H   UNL     1       4.650  -6.413  25.984  0.00  0.00    +0.143 HD
ENDBRANCH   1  11
TORSDOF 1
ENDMDL
MODEL 5
REMARK VINA RESULT:      -4.0      1.460      3.296
REMARK  Name = 
REMARK  1 active torsions:
REMARK  status: ('A' for Active; 'I' for Inactive)
REMARK    1  A    between atoms: N_1  and  C_2
REMARK                            x       y       z     vdW  Elec       q    Type
REMARK                         _______ _______ _______ _____ _____    ______ ____
ROOT
ATOM      1  C   UNL     1       9.421  -0.183  22.318  0.00  0.00    +0.106 A 
ATOM      2  C   UNL     1      10.030   0.059  23.680  0.00  0.00    +0.275 A 
ATOM      3  O   UNL     1      10.179  -0.866  24.477  0.00  0.00    -0.266 OA
ATOM      4  N   UNL     1      10.434   1.335  23.954  0.00  0.00    -0.274 N 
ATOM      5  H   UNL     1      10.847   1.507  24.856  0.00  0.00    +0.173 HD
ATOM      6  C   UNL     1      10.450   2.361  23.056  0.00  0.00    +0.327 A 
ATOM      7  O   UNL     1      10.905   3.466  23.328  0.00  0.00    -0.247 OA
ATOM      8  N   UNL     1       9.936   2.075  21.822  0.00  0.00    -0.313 N 
ATOM      9  H   UNL     1       9.935   2.842  21.158  0.00  0.00    +0.170 HD
ATOM     10  C   UNL     1       9.431   0.854  21.471  0.00  0.00    +0.115 A 
ENDROOT
BRANCH   1  11
ATOM     11  N   UNL     1       8.937  -1.448  22.042  0.00  0.00    -0.353 N 
ATOM     12  H   UNL     1       8.513  -1.482  21.111  0.00  0.00    +0.143 HD
ATOM     13  H   UNL     1       8.340  -1.833  22.767  0.00  0.00    +0.143 HD
ENDBRANCH   1  11
TORSDOF 1
ENDMDL
MODEL 6
REMARK VINA RESULT:      -4.0      1.830      2.112
REMARK  Name = 
REMARK  1 active torsions:
REMARK  status: ('A' for Active; 'I' for Inactive)
REMARK    1  A    between atoms: N_1  and  C_2
REMARK                            x       y       z     vdW  Elec       q    Type
REMARK                         _______ _______ _______ _____ _____    ______ ____
ROOT
ATOM      1  C   UNL     1       9.948   1.420  22.784  0.00  0.00    +0.106 A 
ATOM      2  C   UNL     1       9.599   2.094  24.090  0.00  0.00    +0.275 A 
ATOM      3  O   UNL     1       9.424   3.310  24.145  0.00  0.00    -0.266 OA
ATOM      4  N   UNL     1       9.455   1.283  25.180  0.00  0.00    -0.274 N 
ATOM      5  H   UNL     1       9.217   1.720  26.055  0.00  0.00    +0.173 HD
ATOM      6  C   UNL     1       9.472  -0.080  25.149  0.00  0.00    +0.327 A 
ATOM      7  O   UNL     1       9.250  -0.763  26.142  0.00  0.00    -0.247 OA
ATOM      8  N   UNL     1       9.740  -0.642  23.931  0.00  0.00    -0.313 N 
ATOM      9  H   UNL     1       9.766  -1.655  23.911  0.00  0.00    +0.170 HD
ATOM     10  C   UNL     1       9.980   0.081  22.796  0.00  0.00    +0.115 A 
ENDROOT
BRANCH   1  11
ATOM     11  N   UNL     1      10.172   2.224  21.681  0.00  0.00    -0.353 N 
ATOM     12  H   UNL     1      11.166   2.243  21.440  0.00  0.00    +0.143 HD
ATOM     13  H   UNL     1       9.759   3.149  21.750  0.00  0.00    +0.143 HD
ENDBRANCH   1  11
TORSDOF 1
ENDMDL
MODEL 7
REMARK VINA RESULT:      -4.0      4.581      5.659
REMARK  Name = 
REMARK  1 active torsions:
REMARK  status: ('A' for Active; 'I' for Inactive)
REMARK    1  A    between atoms: N_1  and  C_2
REMARK                            x       y       z     vdW  Elec       q    Type
REMARK                         _______ _______ _______ _____ _____    ______ ____
ROOT
ATOM      1  C   UNL     1       9.102  -3.792  25.034  0.00  0.00    +0.106 A 
ATOM      2  C   UNL     1       7.966  -3.187  25.825  0.00  0.00    +0.275 A 
ATOM      3  O   UNL     1       7.527  -2.073  25.548  0.00  0.00    -0.266 OA
ATOM      4  N   UNL     1       7.437  -3.955  26.825  0.00  0.00    -0.274 N 
ATOM      5  H   UNL     1       6.675  -3.565  27.355  0.00  0.00    +0.173 HD
ATOM      6  C   UNL     1       7.766  -5.255  27.071  0.00  0.00    +0.327 A 
ATOM      7  O   UNL     1       7.199  -5.927  27.925  0.00  0.00    -0.247 OA
ATOM      8  N   UNL     1       8.764  -5.771  26.292  0.00  0.00    -0.313 N 
ATOM      9  H   UNL     1       9.018  -6.734  26.483  0.00  0.00    +0.170 HD
ATOM     10  C   UNL     1       9.414  -5.063  25.319  0.00  0.00    +0.115 A 
ENDROOT
BRANCH   1  11
ATOM     11  N   UNL     1       9.703  -3.009  24.066  0.00  0.00    -0.353 N 
ATOM     12  H   UNL     1      10.691  -3.256  23.958  0.00  0.00    +0.143 HD
ATOM     13  H   UNL     1       9.552  -2.012  24.183  0.00  0.00    +0.143 HD
ENDBRANCH   1  11
TORSDOF 1
ENDMDL
MODEL 8
REMARK VINA RESULT:      -3.9      5.231      6.374
REMARK  Name = 
REMARK  1 active torsions:
REMARK  status: ('A' for Active; 'I' for Inactive)
REMARK    1  A    between atoms: N_1  and  C_2
REMARK                            x       y       z     vdW  Elec       q    Type
REMARK                         _______ _______ _______ _____ _____    ______ ____
ROOT
ATOM      1  C   UNL     1       7.697  -5.325  25.771  0.00  0.00    +0.106 A 
ATOM      2  C   UNL     1       8.687  -4.873  24.723  0.00  0.00    +0.275 A 
ATOM      3  O   UNL     1       9.897  -4.981  24.911  0.00  0.00    -0.266 OA
ATOM      4  N   UNL     1       8.167  -4.382  23.559  0.00  0.00    -0.274 N 
ATOM      5  H   UNL     1       8.817  -4.083  22.850  0.00  0.00    +0.173 HD
ATOM      6  C   UNL     1       6.845  -4.392  23.226  0.00  0.00    +0.327 A 
ATOM      7  O   UNL     1       6.439  -4.019  22.132  0.00  0.00    -0.247 OA
ATOM      8  N   UNL     1       5.995  -4.859  24.191  0.00  0.00    -0.313 N 
ATOM      9  H   UNL     1       5.011  -4.854  23.948  0.00  0.00    +0.170 HD
ATOM     10  C   UNL     1       6.405  -5.298  25.419  0.00  0.00    +0.115 A 
ENDROOT
BRANCH   1  11
ATOM     11  N   UNL     1       8.195  -5.757  26.986  0.00  0.00    -0.353 N 
ATOM     12  H   UNL     1       7.554  -5.520  27.748  0.00  0.00    +0.143 HD
ATOM     13  H   UNL     1       9.153  -5.476  27.168  0.00  0.00    +0.143 HD
ENDBRANCH   1  11
TORSDOF 1
ENDMDL
MODEL 9
REMARK VINA RESULT:      -3.9      1.825      3.806
REMARK  Name = 
REMARK  1 active torsions:
REMARK  status: ('A' for Active; 'I' for Inactive)
REMARK    1  A    between atoms: N_1  and  C_2
REMARK                            x       y       z     vdW  Elec       q    Type
REMARK                         _______ _______ _______ _____ _____    ______ ____
ROOT
ATOM      1  C   UNL     1      10.104  -0.702  23.510  0.00  0.00    +0.106 A 
ATOM      2  C   UNL     1       9.877   0.146  22.280  0.00  0.00    +0.275 A 
ATOM      3  O   UNL     1       9.541  -0.366  21.214  0.00  0.00    -0.266 OA
ATOM      4  N   UNL     1      10.026   1.497  22.430  0.00  0.00    -0.274 N 
ATOM      5  H   UNL     1       9.871   2.073  21.619  0.00  0.00    +0.173 HD
ATOM      6  C   UNL     1      10.232   2.134  23.617  0.00  0.00    +0.327 A 
ATOM      7  O   UNL     1      10.271   3.356  23.709  0.00  0.00    -0.247 OA
ATOM      8  N   UNL     1      10.379   1.323  24.708  0.00  0.00    -0.313 N 
ATOM      9  H   UNL     1      10.545   1.797  25.588  0.00  0.00    +0.170 HD
ATOM     10  C   UNL     1      10.328  -0.042  24.653  0.00  0.00    +0.115 A 
ENDROOT
BRANCH   1  11
ATOM     11  N   UNL     1      10.032  -2.075  23.369  0.00  0.00    -0.353 N 
ATOM     12  H   UNL     1       9.114  -2.359  23.017  0.00  0.00    +0.143 HD
ATOM     13  H   UNL     1      10.321  -2.594  24.193  0.00  0.00    +0.143 HD
ENDBRANCH   1  11
TORSDOF 1
ENDMDL
