MODEL 1
REMARK VINA RESULT:      -7.8      0.000      0.000
REMARK  Name = 
REMARK  6 active torsions:
REMARK  status: ('A' for Active; 'I' for Inactive)
REMARK    1  A    between atoms: N_3  and  C_4
REMARK    2  A    between atoms: C_7  and  C_8
REMARK    3  A    between atoms: C_13  and  O_14
REMARK    4  A    between atoms: O_14  and  C_15
REMARK    5  A    between atoms: N_17  and  C_18
REMARK    6  A    between atoms: N_25  and  C_26
REMARK                            x       y       z     vdW  Elec       q    Type
REMARK                         _______ _______ _______ _____ _____    ______ ____
ROOT
ATOM      1  C   UNL     1       4.938  -6.224  24.816  0.00  0.00    +0.154 C 
ATOM      2  N   UNL     1       5.743  -6.141  26.039  0.00  0.00    -0.316 N 
ATOM      3  C   UNL     1       5.185  -6.116  27.377  0.00  0.00    +0.131 C 
ATOM      4  C   UNL     1       6.813  -5.341  25.721  0.00  0.00    +0.035 A 
ATOM      5  C   UNL     1       7.918  -5.125  26.555  0.00  0.00    +0.027 A 
ATOM      6  C   UNL     1       9.045  -4.463  26.082  0.00  0.00    +0.048 A 
ATOM      7  C   UNL     1       9.092  -4.106  24.746  0.00  0.00    +0.134 A 
ATOM      8  C   UNL     1       7.962  -4.276  23.937  0.00  0.00    +0.052 A 
ATOM      9  C   UNL     1       6.750  -4.847  24.424  0.00  0.00    -0.014 A 
ATOM     10  C   UNL     1       5.293  -4.880  23.800  0.00  0.00    +0.028 C 
ATOM     11  C   UNL     1       5.895  -4.668  22.315  0.00  0.00    +0.019 C 
ATOM     12  C   UNL     1       3.937  -5.264  23.042  0.00  0.00    +0.030 C 
ATOM     13  C   UNL     1       2.850  -5.936  23.822  0.00  0.00    +0.087 C 
ATOM     14  N   UNL     1       3.483  -6.288  25.047  0.00  0.00    -0.287 NA
ATOM     15  C   UNL     1       2.999  -7.583  25.518  0.00  0.00    +0.106 C 
ENDROOT
BRANCH   7  16
ATOM     16  O   UNL     1      10.214  -3.506  24.130  0.00  0.00    -0.411 OA
BRANCH  16  17
ATOM     17  C   UNL     1      10.072  -2.237  23.564  0.00  0.00    +0.410 C 
ATOM     18  N   UNL     1       9.881  -1.291  24.540  0.00  0.00    -0.251 N 
ATOM     19  H   UNL     1      10.045  -1.579  25.493  0.00  0.00    +0.158 HD
ATOM     20  O   UNL     1      10.142  -2.014  22.358  0.00  0.00    -0.226 OA
BRANCH  18  21
ATOM     21  C   UNL     1       9.620   0.078  24.276  0.00  0.00    +0.036 A 
ATOM     22  C   UNL     1      10.690   0.975  24.187  0.00  0.00    +0.023 A 
ATOM     23  C   UNL     1      10.459   2.317  23.849  0.00  0.00    +0.002 A 
ATOM     24  C   UNL     1       9.157   2.777  23.632  0.00  0.00    +0.000 A 
ATOM     25  C   UNL     1       8.085   1.904  23.780  0.00  0.00    +0.002 A 
ATOM     26  C   UNL     1       8.319   0.568  24.105  0.00  0.00    +0.023 A 
ENDBRANCH  18  21
ENDBRANCH  16  17
ENDBRANCH   7  16
TORSDOF 3
ENDMDL
MODEL 2
REMARK VINA RESULT:      -7.6      1.604      3.141
REMARK  Name = 
REMARK  6 active torsions:
REMARK  status: ('A' for Active; 'I' for Inactive)
REMARK    1  A    between atoms: N_3  and  C_4
REMARK    2  A    between atoms: C_7  and  C_8
REMARK    3  A    between atoms: C_13  and  O_14
REMARK    4  A    between atoms: O_14  and  C_15
REMARK    5  A    between atoms: N_17  and  C_18
REMARK    6  A    between atoms: N_25  and  C_26
REMARK                            x       y       z     vdW  Elec       q    Type
REMARK                         _______ _______ _______ _____ _____    ______ ____
ROOT
ATOM      1  C   UNL     1       4.787  -5.824  26.570  0.00  0.00    +0.154 C 
ATOM      2  N   UNL     1       4.263  -6.170  25.244  0.00  0.00    -0.316 N 
ATOM      3  C   UNL     1       3.533  -7.390  24.955  0.00  0.00    +0.131 C 
ATOM      4  C   UNL     1       5.181  -5.684  24.348  0.00  0.00    +0.035 A 
ATOM      5  C   UNL     1       4.996  -5.656  22.958  0.00  0.00    +0.027 A 
ATOM      6  C   UNL     1       5.884  -4.972  22.138  0.00  0.00    +0.048 A 
ATOM      7  C   UNL     1       6.900  -4.238  22.726  0.00  0.00    +0.134 A 
ATOM      8  C   UNL     1       7.109  -4.318  24.109  0.00  0.00    +0.052 A 
ATOM      9  C   UNL     1       6.283  -5.106  24.964  0.00  0.00    -0.014 A 
ATOM     10  C   UNL     1       6.487  -5.566  26.467  0.00  0.00    +0.028 C 
ATOM     11  C   UNL     1       7.497  -4.334  26.737  0.00  0.00    +0.019 C 
ATOM     12  C   UNL     1       6.471  -5.718  28.061  0.00  0.00    +0.030 C 
ATOM     13  C   UNL     1       5.414  -6.574  28.685  0.00  0.00    +0.087 C 
ATOM     14  N   UNL     1       4.509  -6.826  27.616  0.00  0.00    -0.287 NA
ATOM     15  C   UNL     1       3.132  -6.830  28.103  0.00  0.00    +0.106 C 
ENDROOT
BRANCH   7  16
ATOM     16  O   UNL     1       7.811  -3.435  22.004  0.00  0.00    -0.411 OA
BRANCH  16  17
ATOM     17  C   UNL     1       7.956  -2.093  22.364  0.00  0.00    +0.410 C 
ATOM     18  N   UNL     1       9.277  -1.722  22.325  0.00  0.00    -0.251 N 
ATOM     19  H   UNL     1       9.919  -2.367  21.888  0.00  0.00    +0.158 HD
ATOM     20  O   UNL     1       7.016  -1.354  22.644  0.00  0.00    -0.226 OA
BRANCH  18  21
ATOM     21  C   UNL     1       9.755  -0.446  22.720  0.00  0.00    +0.036 A 
ATOM     22  C   UNL     1       9.720   0.611  21.805  0.00  0.00    +0.023 A 
ATOM     23  C   UNL     1      10.114   1.899  22.200  0.00  0.00    +0.002 A 
ATOM     24  C   UNL     1      10.575   2.129  23.499  0.00  0.00    +0.000 A 
ATOM     25  C   UNL     1      10.670   1.069  24.393  0.00  0.00    +0.002 A 
ATOM     26  C   UNL     1      10.267  -0.207  24.001  0.00  0.00    +0.023 A 
ENDBRANCH  18  21
ENDBRANCH  16  17
ENDBRANCH   7  16
TORSDOF 3
ENDMDL
MODEL 3
REMARK VINA RESULT:      -7.4      2.386      4.194
REMARK  Name = 
REMARK  6 active torsions:
REMARK  status: ('A' for Active; 'I' for Inactive)
REMARK    1  A    between atoms: N_3  and  C_4
REMARK    2  A    between atoms: C_7  and  C_8
REMARK    3  A    between atoms: C_13  and  O_14
REMARK    4  A    between atoms: O_14  and  C_15
REMARK    5  A    between atoms: N_17  and  C_18
REMARK    6  A    between atoms: N_25  and  C_26
REMARK                            x       y       z     vdW  Elec       q    Type
REMARK                         _______ _______ _______ _____ _____    ______ ____
ROOT
ATOM      1  C   UNL     1       6.764  -3.937  24.450  0.00  0.00    +0.154 C 
ATOM      2  N   UNL     1       7.109  -3.655  23.053  0.00  0.00    -0.316 N 
ATOM      3  C   UNL     1       7.106  -4.653  22.000  0.00  0.00    +0.131 C 
ATOM      4  C   UNL     1       8.099  -2.706  23.103  0.00  0.00    +0.035 A 
ATOM      5  C   UNL     1       8.611  -2.033  21.985  0.00  0.00    +0.027 A 
ATOM      6  C   UNL     1       9.469  -0.951  22.140  0.00  0.00    +0.048 A 
ATOM      7  C   UNL     1       9.731  -0.490  23.418  0.00  0.00    +0.134 A 
ATOM      8  C   UNL     1       9.260  -1.204  24.528  0.00  0.00    +0.052 A 
ATOM      9  C   UNL     1       8.473  -2.386  24.401  0.00  0.00    -0.014 A 
ATOM     10  C   UNL     1       8.077  -3.488  25.469  0.00  0.00    +0.028 C 
ATOM     11  C   UNL     1       8.309  -2.441  26.678  0.00  0.00    +0.019 C 
ATOM     12  C   UNL     1       7.351  -4.387  26.577  0.00  0.00    +0.030 C 
ATOM     13  C   UNL     1       6.515  -5.542  26.121  0.00  0.00    +0.087 C 
ATOM     14  N   UNL     1       6.399  -5.341  24.717  0.00  0.00    -0.287 NA
ATOM     15  C   UNL     1       5.066  -5.720  24.256  0.00  0.00    +0.106 C 
ENDROOT
BRANCH   7  16
ATOM     16  O   UNL     1      10.517   0.650  23.698  0.00  0.00    -0.411 OA
BRANCH  16  17
ATOM     17  C   UNL     1      10.205   1.855  23.064  0.00  0.00    +0.410 C 
ATOM     18  N   UNL     1       9.481   2.668  23.899  0.00  0.00    -0.251 N 
ATOM     19  H   UNL     1       9.428   2.394  24.869  0.00  0.00    +0.158 HD
ATOM     20  O   UNL     1      10.565   2.142  21.925  0.00  0.00    -0.226 OA
BRANCH  18  21
ATOM     21  C   UNL     1       8.943   3.923  23.514  0.00  0.00    +0.036 A 
ATOM     22  C   UNL     1       9.627   5.095  23.852  0.00  0.00    +0.023 A 
ATOM     23  C   UNL     1       9.154   6.340  23.413  0.00  0.00    +0.002 A 
ATOM     24  C   UNL     1       7.977   6.424  22.663  0.00  0.00    +0.000 A 
ATOM     25  C   UNL     1       7.260   5.268  22.377  0.00  0.00    +0.002 A 
ATOM     26  C   UNL     1       7.740   4.031  22.806  0.00  0.00    +0.023 A 
ENDBRANCH  18  21
ENDBRANCH  16  17
ENDBRANCH   7  16
TORSDOF 3
ENDMDL
MODEL 4
REMARK VINA RESULT:      -7.2      1.056      2.424
REMARK  Name = 
REMARK  6 active torsions:
REMARK  status: ('A' for Active; 'I' for Inactive)
REMARK    1  A    between atoms: N_3  and  C_4
REMARK    2  A    between atoms: C_7  and  C_8
REMARK    3  A    between atoms: C_13  and  O_14
REMARK    4  A    between atoms: O_14  and  C_15
REMARK    5  A    between atoms: N_17  and  C_18
REMARK    6  A    between atoms: N_25  and  C_26
REMARK                            x       y       z     vdW  Elec       q    Type
REMARK                         _______ _______ _______ _____ _____    ______ ____
ROOT
ATOM      1  C   UNL     1       4.037  -5.440  25.570  0.00  0.00    +0.154 C 
ATOM      2  N   UNL     1       4.281  -5.249  24.136  0.00  0.00    -0.316 N 
ATOM      3  C   UNL     1       3.568  -5.959  23.091  0.00  0.00    +0.131 C 
ATOM      4  C   UNL     1       5.629  -5.018  24.020  0.00  0.00    +0.035 A 
ATOM      5  C   UNL     1       6.268  -4.627  22.835  0.00  0.00    +0.027 A 
ATOM      6  C   UNL     1       7.597  -4.224  22.846  0.00  0.00    +0.048 A 
ATOM      7  C   UNL     1       8.250  -4.125  24.062  0.00  0.00    +0.134 A 
ATOM      8  C   UNL     1       7.621  -4.572  25.231  0.00  0.00    +0.052 A 
ATOM      9  C   UNL     1       6.296  -5.100  25.234  0.00  0.00    -0.014 A 
ATOM     10  C   UNL     1       5.503  -5.905  26.345  0.00  0.00    +0.028 C 
ATOM     11  C   UNL     1       6.452  -5.298  27.504  0.00  0.00    +0.019 C 
ATOM     12  C   UNL     1       4.560  -6.364  27.555  0.00  0.00    +0.030 C 
ATOM     13  C   UNL     1       3.165  -6.807  27.243  0.00  0.00    +0.087 C 
ATOM     14  N   UNL     1       2.986  -6.426  25.884  0.00  0.00    -0.287 NA
ATOM     15  C   UNL     1       1.623  -5.953  25.661  0.00  0.00    +0.106 C 
ENDROOT
BRANCH   7  16
ATOM     16  O   UNL     1       9.572  -3.648  24.210  0.00  0.00    -0.411 OA
BRANCH  16  17
ATOM     17  C   UNL     1       9.910  -2.416  23.647  0.00  0.00    +0.410 C 
ATOM     18  N   UNL     1       9.343  -1.388  24.358  0.00  0.00    -0.251 N 
ATOM     19  H   UNL     1       8.935  -1.621  25.250  0.00  0.00    +0.158 HD
ATOM     20  O   UNL     1      10.640  -2.287  22.667  0.00  0.00    -0.226 OA
BRANCH  18  21
ATOM     21  C   UNL     1       9.430  -0.022  23.983  0.00  0.00    +0.036 A 
ATOM     22  C   UNL     1      10.520   0.739  24.419  0.00  0.00    +0.023 A 
ATOM     23  C   UNL     1      10.667   2.068  23.996  0.00  0.00    +0.002 A 
ATOM     24  C   UNL     1       9.709   2.654  23.164  0.00  0.00    +0.000 A 
ATOM     25  C   UNL     1       8.592   1.922  22.778  0.00  0.00    +0.002 A 
ATOM     26  C   UNL     1       8.455   0.597  23.192  0.00  0.00    +0.023 A 
ENDBRANCH  18  21
ENDBRANCH  16  17
ENDBRANCH   7  16
TORSDOF 3
ENDMDL
MODEL 5
REMARK VINA RESULT:      -7.2      2.883      8.415
REMARK  Name = 
REMARK  6 active torsions:
REMARK  status: ('A' for Active; 'I' for Inactive)
REMARK    1  A    between atoms: N_3  and  C_4
REMARK    2  A    between atoms: C_7  and  C_8
REMARK    3  A    between atoms: C_13  and  O_14
REMARK    4  A    between atoms: O_14  and  C_15
REMARK    5  A    between atoms: N_17  and  C_18
REMARK    6  A    between atoms: N_25  and  C_26
REMARK                            x       y       z     vdW  Elec       q    Type
REMARK                         _______ _______ _______ _____ _____    ______ ____
ROOT
ATOM      1  C   UNL     1       8.451   4.223  23.638  0.00  0.00    +0.154 C 
ATOM      2  N   UNL     1       9.852   3.885  23.913  0.00  0.00    -0.316 N 
ATOM      3  C   UNL     1      10.982   4.650  23.422  0.00  0.00    +0.131 C 
ATOM      4  C   UNL     1       9.902   2.513  23.933  0.00  0.00    +0.035 A 
ATOM      5  C   UNL     1      11.022   1.765  24.319  0.00  0.00    +0.027 A 
ATOM      6  C   UNL     1      10.929   0.391  24.500  0.00  0.00    +0.048 A 
ATOM      7  C   UNL     1       9.689  -0.211  24.384  0.00  0.00    +0.134 A 
ATOM      8  C   UNL     1       8.589   0.535  23.943  0.00  0.00    +0.052 A 
ATOM      9  C   UNL     1       8.679   1.925  23.638  0.00  0.00    -0.014 A 
ATOM     10  C   UNL     1       7.676   2.887  22.876  0.00  0.00    +0.028 C 
ATOM     11  C   UNL     1       6.435   1.910  23.218  0.00  0.00    +0.019 C 
ATOM     12  C   UNL     1       6.547   3.946  22.470  0.00  0.00    +0.030 C 
ATOM     13  C   UNL     1       6.944   5.378  22.287  0.00  0.00    +0.087 C 
ATOM     14  N   UNL     1       8.267   5.430  22.810  0.00  0.00    -0.287 NA
ATOM     15  C   UNL     1       8.488   6.689  23.515  0.00  0.00    +0.106 C 
ENDROOT
BRANCH   7  16
ATOM     16  O   UNL     1       9.453  -1.583  24.627  0.00  0.00    -0.411 OA
BRANCH  16  17
ATOM     17  C   UNL     1       9.107  -2.407  23.553  0.00  0.00    +0.410 C 
ATOM     18  N   UNL     1       7.893  -3.007  23.776  0.00  0.00    -0.251 N 
ATOM     19  H   UNL     1       7.347  -2.658  24.549  0.00  0.00    +0.158 HD
ATOM     20  O   UNL     1       9.793  -2.540  22.543  0.00  0.00    -0.226 OA
BRANCH  18  21
ATOM     21  C   UNL     1       7.311  -3.965  22.907  0.00  0.00    +0.036 A 
ATOM     22  C   UNL     1       6.420  -3.540  21.916  0.00  0.00    +0.023 A 
ATOM     23  C   UNL     1       5.895  -4.461  20.997  0.00  0.00    +0.002 A 
ATOM     24  C   UNL     1       6.230  -5.816  21.085  0.00  0.00    +0.000 A 
ATOM     25  C   UNL     1       7.066  -6.253  22.106  0.00  0.00    +0.002 A 
ATOM     26  C   UNL     1       7.595  -5.333  23.010  0.00  0.00    +0.023 A 
ENDBRANCH  18  21
ENDBRANCH  16  17
ENDBRANCH   7  16
TORSDOF 3
ENDMDL
MODEL 6
REMARK VINA RESULT:      -7.1      3.119      8.721
REMARK  Name = 
REMARK  6 active torsions:
REMARK  status: ('A' for Active; 'I' for Inactive)
REMARK    1  A    between atoms: N_3  and  C_4
REMARK    2  A    between atoms: C_7  and  C_8
REMARK    3  A    between atoms: C_13  and  O_14
REMARK    4  A    between atoms: O_14  and  C_15
REMARK    5  A    between atoms: N_17  and  C_18
REMARK    6  A    between atoms: N_25  and  C_26
REMARK                            x       y       z     vdW  Elec       q    Type
REMARK                         _______ _______ _______ _____ _____    ______ ____
ROOT
ATOM      1  C   UNL     1       7.702   5.006  24.063  0.00  0.00    +0.154 C 
ATOM      2  N   UNL     1       9.131   4.693  24.163  0.00  0.00    -0.316 N 
ATOM      3  C   UNL     1      10.173   5.694  24.290  0.00  0.00    +0.131 C 
ATOM      4  C   UNL     1       9.323   3.592  23.366  0.00  0.00    +0.035 A 
ATOM      5  C   UNL     1      10.517   2.861  23.296  0.00  0.00    +0.027 A 
ATOM      6  C   UNL     1      10.568   1.649  22.618  0.00  0.00    +0.048 A 
ATOM      7  C   UNL     1       9.396   1.132  22.096  0.00  0.00    +0.134 A 
ATOM      8  C   UNL     1       8.222   1.896  22.122  0.00  0.00    +0.052 A 
ATOM      9  C   UNL     1       8.166   3.194  22.710  0.00  0.00    -0.014 A 
ATOM     10  C   UNL     1       7.065   4.329  22.613  0.00  0.00    +0.028 C 
ATOM     11  C   UNL     1       5.933   3.240  22.235  0.00  0.00    +0.019 C 
ATOM     12  C   UNL     1       5.829   5.319  22.852  0.00  0.00    +0.030 C 
ATOM     13  C   UNL     1       6.076   6.604  23.580  0.00  0.00    +0.087 C 
ATOM     14  N   UNL     1       7.389   6.447  24.106  0.00  0.00    -0.287 NA
ATOM     15  C   UNL     1       7.482   7.049  25.433  0.00  0.00    +0.106 C 
ENDROOT
BRANCH   7  16
ATOM     16  O   UNL     1       9.305  -0.128  21.461  0.00  0.00    -0.411 OA
BRANCH  16  17
ATOM     17  C   UNL     1       9.536  -1.280  22.216  0.00  0.00    +0.410 C 
ATOM     18  N   UNL     1       8.401  -1.649  22.894  0.00  0.00    -0.251 N 
ATOM     19  H   UNL     1       7.544  -1.185  22.635  0.00  0.00    +0.158 HD
ATOM     20  O   UNL     1      10.606  -1.883  22.234  0.00  0.00    -0.226 OA
BRANCH  18  21
ATOM     21  C   UNL     1       8.342  -2.729  23.812  0.00  0.00    +0.036 A 
ATOM     22  C   UNL     1       7.919  -3.985  23.365  0.00  0.00    +0.023 A 
ATOM     23  C   UNL     1       7.929  -5.084  24.237  0.00  0.00    +0.002 A 
ATOM     24  C   UNL     1       8.329  -4.927  25.567  0.00  0.00    +0.000 A 
ATOM     25  C   UNL     1       8.691  -3.668  26.032  0.00  0.00    +0.002 A 
ATOM     26  C   UNL     1       8.691  -2.580  25.160  0.00  0.00    +0.023 A 
ENDBRANCH  18  21
ENDBRANCH  16  17
ENDBRANCH   7  16
TORSDOF 3
ENDMDL
MODEL 7
REMARK VINA RESULT:      -7.1      1.880      7.965
REMARK  Name = 
REMARK  6 active torsions:
REMARK  status: ('A' for Active; 'I' for Inactive)
REMARK    1  A    between atoms: N_3  and  C_4
REMARK    2  A    between atoms: C_7  and  C_8
REMARK    3  A    between atoms: C_13  and  O_14
REMARK    4  A    between atoms: O_14  and  C_15
REMARK    5  A    between atoms: N_17  and  C_18
REMARK    6  A    between atoms: N_25  and  C_26
REMARK                            x       y       z     vdW  Elec       q    Type
REMARK                         _______ _______ _______ _____ _____    ______ ____
ROOT
ATOM      1  C   UNL     1       9.336   2.170  24.509  0.00  0.00    +0.154 C 
ATOM      2  N   UNL     1       9.976   1.398  23.439  0.00  0.00    -0.316 N 
ATOM      3  C   UNL     1      10.115   1.866  22.073  0.00  0.00    +0.131 C 
ATOM      4  C   UNL     1       9.657   0.087  23.691  0.00  0.00    +0.035 A 
ATOM      5  C   UNL     1      10.196  -1.008  23.001  0.00  0.00    +0.027 A 
ATOM      6  C   UNL     1       9.974  -2.306  23.446  0.00  0.00    +0.048 A 
ATOM      7  C   UNL     1       9.291  -2.491  24.634  0.00  0.00    +0.134 A 
ATOM      8  C   UNL     1       8.708  -1.395  25.284  0.00  0.00    +0.052 A 
ATOM      9  C   UNL     1       8.822  -0.063  24.790  0.00  0.00    -0.014 A 
ATOM     10  C   UNL     1       8.038   1.258  25.180  0.00  0.00    +0.028 C 
ATOM     11  C   UNL     1       7.672   0.647  26.630  0.00  0.00    +0.019 C 
ATOM     12  C   UNL     1       7.558   2.652  25.804  0.00  0.00    +0.030 C 
ATOM     13  C   UNL     1       7.898   3.915  25.075  0.00  0.00    +0.087 C 
ATOM     14  N   UNL     1       8.836   3.493  24.091  0.00  0.00    -0.287 NA
ATOM     15  C   UNL     1       9.873   4.505  23.908  0.00  0.00    +0.106 C 
ENDROOT
BRANCH   7  16
ATOM     16  O   UNL     1       9.076  -3.755  25.230  0.00  0.00    -0.411 OA
BRANCH  16  17
ATOM     17  C   UNL     1       8.193  -4.647  24.617  0.00  0.00    +0.410 C 
ATOM     18  N   UNL     1       6.909  -4.433  25.052  0.00  0.00    -0.251 N 
ATOM     19  H   UNL     1       6.742  -3.591  25.583  0.00  0.00    +0.158 HD
ATOM     20  O   UNL     1       8.533  -5.481  23.782  0.00  0.00    -0.226 OA
BRANCH  18  21
ATOM     21  C   UNL     1       5.801  -5.235  24.677  0.00  0.00    +0.036 A 
ATOM     22  C   UNL     1       5.361  -6.243  25.542  0.00  0.00    +0.023 A 
ATOM     23  C   UNL     1       4.220  -6.995  25.226  0.00  0.00    +0.002 A 
ATOM     24  C   UNL     1       3.533  -6.767  24.031  0.00  0.00    +0.000 A 
ATOM     25  C   UNL     1       4.002  -5.809  23.139  0.00  0.00    +0.002 A 
ATOM     26  C   UNL     1       5.130  -5.056  23.461  0.00  0.00    +0.023 A 
ENDBRANCH  18  21
ENDBRANCH  16  17
ENDBRANCH   7  16
TORSDOF 3
ENDMDL
MODEL 8
REMARK VINA RESULT:      -7.0      1.617      2.178
REMARK  Name = 
REMARK  6 active torsions:
REMARK  status: ('A' for Active; 'I' for Inactive)
REMARK    1  A    between atoms: N_3  and  C_4
REMARK    2  A    between atoms: C_7  and  C_8
REMARK    3  A    between atoms: C_13  and  O_14
REMARK    4  A    between atoms: O_14  and  C_15
REMARK    5  A    between atoms: N_17  and  C_18
REMARK    6  A    between atoms: N_25  and  C_26
REMARK                            x       y       z     vdW  Elec       q    Type
REMARK                         _______ _______ _______ _____ _____    ______ ____
ROOT
ATOM      1  C   UNL     1       3.483  -7.162  25.000  0.00  0.00    +0.154 C 
ATOM      2  N   UNL     1       3.994  -6.956  26.359  0.00  0.00    -0.316 N 
ATOM      3  C   UNL     1       3.155  -6.897  27.541  0.00  0.00    +0.131 C 
ATOM      4  C   UNL     1       5.060  -6.101  26.225  0.00  0.00    +0.035 A 
ATOM      5  C   UNL     1       5.941  -5.763  27.261  0.00  0.00    +0.027 A 
ATOM      6  C   UNL     1       7.105  -5.050  26.998  0.00  0.00    +0.048 A 
ATOM      7  C   UNL     1       7.424  -4.764  25.683  0.00  0.00    +0.134 A 
ATOM      8  C   UNL     1       6.510  -5.057  24.662  0.00  0.00    +0.052 A 
ATOM      9  C   UNL     1       5.255  -5.685  24.915  0.00  0.00    -0.014 A 
ATOM     10  C   UNL     1       3.976  -5.854  23.995  0.00  0.00    +0.028 C 
ATOM     11  C   UNL     1       4.875  -5.681  22.664  0.00  0.00    +0.019 C 
ATOM     12  C   UNL     1       2.843  -6.374  22.990  0.00  0.00    +0.030 C 
ATOM     13  C   UNL     1       1.651  -7.076  23.562  0.00  0.00    +0.087 C 
ATOM     14  N   UNL     1       2.019  -7.316  24.916  0.00  0.00    -0.287 NA
ATOM     15  C   UNL     1       1.517  -8.614  25.359  0.00  0.00    +0.106 C 
ENDROOT
BRANCH   7  16
ATOM     16  O   UNL     1       8.618  -4.121  25.283  0.00  0.00    -0.411 OA
BRANCH  16  17
ATOM     17  C   UNL     1       8.559  -2.786  24.877  0.00  0.00    +0.410 C 
ATOM     18  N   UNL     1       9.459  -2.548  23.868  0.00  0.00    -0.251 N 
ATOM     19  H   UNL     1       9.890  -3.354  23.442  0.00  0.00    +0.158 HD
ATOM     20  O   UNL     1       7.782  -1.960  25.349  0.00  0.00    -0.226 OA
BRANCH  18  21
ATOM     21  C   UNL     1       9.697  -1.268  23.304  0.00  0.00    +0.036 A 
ATOM     22  C   UNL     1       9.303  -1.017  21.985  0.00  0.00    +0.023 A 
ATOM     23  C   UNL     1       9.457   0.264  21.434  0.00  0.00    +0.002 A 
ATOM     24  C   UNL     1      10.036   1.290  22.186  0.00  0.00    +0.000 A 
ATOM     25  C   UNL     1      10.485   1.030  23.475  0.00  0.00    +0.002 A 
ATOM     26  C   UNL     1      10.320  -0.241  24.023  0.00  0.00    +0.023 A 
ENDBRANCH  18  21
ENDBRANCH  16  17
ENDBRANCH   7  16
TORSDOF 3
ENDMDL
MODEL 9
REMARK VINA RESULT:      -7.0      2.375      8.050
REMARK  Name = 
REMARK  6 active torsions:
REMARK  status: ('A' for Active; 'I' for Inactive)
REMARK    1  A    between atoms: N_3  and  C_4
REMARK    2  A    between atoms: C_7  and  C_8
REMARK    3  A    between atoms: C_13  and  O_14
REMARK    4  A    between atoms: O_14  and  C_15
REMARK    5  A    between atoms: N_17  and  C_18
REMARK    6  A    between atoms: N_25  and  C_26
REMARK                            x       y       z     vdW  Elec       q    Type
REMARK                         _______ _______ _______ _____ _____    ______ ____
ROOT
ATOM      1  C   UNL     1       8.150   3.475  24.674  0.00  0.00    +0.154 C 
ATOM      2  N   UNL     1       7.558   2.532  25.629  0.00  0.00    -0.316 N 
ATOM      3  C   UNL     1       7.067   2.909  26.941  0.00  0.00    +0.131 C 
ATOM      4  C   UNL     1       8.246   1.357  25.460  0.00  0.00    +0.035 A 
ATOM      5  C   UNL     1       7.900   0.140  26.064  0.00  0.00    +0.027 A 
ATOM      6  C   UNL     1       8.527  -1.042  25.689  0.00  0.00    +0.048 A 
ATOM      7  C   UNL     1       9.430  -1.010  24.641  0.00  0.00    +0.134 A 
ATOM      8  C   UNL     1       9.810   0.218  24.083  0.00  0.00    +0.052 A 
ATOM      9  C   UNL     1       9.269   1.460  24.527  0.00  0.00    -0.014 A 
ATOM     10  C   UNL     1       9.736   2.950  24.256  0.00  0.00    +0.028 C 
ATOM     11  C   UNL     1      10.495   2.497  22.903  0.00  0.00    +0.019 C 
ATOM     12  C   UNL     1       9.937   4.439  23.700  0.00  0.00    +0.030 C 
ATOM     13  C   UNL     1       9.159   5.548  24.337  0.00  0.00    +0.087 C 
ATOM     14  N   UNL     1       8.207   4.869  25.149  0.00  0.00    -0.287 NA
ATOM     15  C   UNL     1       6.927   5.571  25.130  0.00  0.00    +0.106 C 
ENDROOT
BRANCH   7  16
ATOM     16  O   UNL     1      10.066  -2.157  24.114  0.00  0.00    -0.411 OA
BRANCH  16  17
ATOM     17  C   UNL     1       9.377  -3.371  24.120  0.00  0.00    +0.410 C 
ATOM     18  N   UNL     1       8.252  -3.293  23.338  0.00  0.00    -0.251 N 
ATOM     19  H   UNL     1       8.166  -2.483  22.742  0.00  0.00    +0.158 HD
ATOM     20  O   UNL     1       9.757  -4.371  24.725  0.00  0.00    -0.226 OA
BRANCH  18  21
ATOM     21  C   UNL     1       7.300  -4.337  23.211  0.00  0.00    +0.036 A 
ATOM     22  C   UNL     1       6.380  -4.553  24.243  0.00  0.00    +0.023 A 
ATOM     23  C   UNL     1       5.381  -5.528  24.104  0.00  0.00    +0.002 A 
ATOM     24  C   UNL     1       5.316  -6.314  22.950  0.00  0.00    +0.000 A 
ATOM     25  C   UNL     1       6.265  -6.145  21.948  0.00  0.00    +0.002 A 
ATOM     26  C   UNL     1       7.250  -5.167  22.085  0.00  0.00    +0.023 A 
ENDBRANCH  18  21
ENDBRANCH  16  17
ENDBRANCH   7  16
TORSDOF 3
ENDMDL
