MODEL 1
REMARK VINA RESULT:      -7.7      0.000      0.000
REMARK  Name = 
REMARK  17 active torsions:
REMARK  status: ('A' for Active; 'I' for Inactive)
REMARK    1  A    between atoms: C_2  and  C_4
REMARK    2  A    between atoms: N_6  and  C_18
REMARK    3  A    between atoms: C_9  and  C_10
REMARK    4  A    between atoms: C_21  and  C_23
REMARK    5  A    between atoms: C_23  and  O_24
REMARK    6  A    between atoms: O_24  and  P_25
REMARK    7  A    between atoms: P_25  and  O_28
REMARK    8  A    between atoms: O_28  and  P_29
REMARK    9  A    between atoms: P_29  and  O_30
REMARK   10  A    between atoms: P_29  and  O_32
REMARK   11  A    between atoms: O_32  and  C_33
REMARK   12  A    between atoms: C_33  and  C_34
REMARK   13  A    between atoms: C_37  and  N_45
REMARK   14  A    between atoms: C_39  and  O_41
REMARK   15  A    between atoms: C_42  and  O_44
REMARK   16  A    between atoms: C_55  and  O_57
REMARK   17  A    between atoms: C_58  and  O_60
REMARK                            x       y       z     vdW  Elec       q    Type
REMARK                         _______ _______ _______ _____ _____    ______ ____
ROOT
ATOM      1  P   UNL     1       6.133  -6.000  21.735  0.00  0.00    +0.222 P 
ATOM      2  O   UNL     1       5.861  -5.838  20.034  0.00  0.00    -0.437 OA
ATOM      3  O   UNL     1       4.722  -5.535  22.114  0.00  0.00    -0.517 OA
ENDROOT
BRANCH   1   4
ATOM      4  O   UNL     1       6.405  -6.161  23.435  0.00  0.00    -0.229 OA
BRANCH   4   5
ATOM      5  P   UNL     1       4.913  -5.936  24.282  0.00  0.00    +0.480 P 
ATOM      6  O   UNL     1       5.649  -5.982  25.626  0.00  0.00    -0.227 OA
BRANCH   5   7
ATOM      7  O   UNL     1       4.543  -7.518  24.059  0.00  0.00    -0.302 OA
ATOM      8  H   UNL     1       4.747  -7.926  24.926  0.00  0.00    +0.222 HD
ENDBRANCH   5   7
BRANCH   5   9
ATOM      9  O   UNL     1       3.422  -5.711  25.129  0.00  0.00    -0.284 OA
BRANCH   9  10
ATOM     10  C   UNL     1       2.787  -4.470  24.799  0.00  0.00    +0.206 C 
BRANCH  10  11
ATOM     11  C   UNL     1       2.271  -3.797  26.073  0.00  0.00    +0.178 C 
ATOM     12  C   UNL     1       3.018  -4.278  27.320  0.00  0.00    +0.178 C 
ATOM     13  C   UNL     1       4.107  -3.229  27.561  0.00  0.00    +0.195 C 
ATOM     14  C   UNL     1       3.859  -2.173  26.482  0.00  0.00    +0.253 C 
ATOM     15  O   UNL     1       2.514  -2.376  26.013  0.00  0.00    -0.346 OA
BRANCH  14  16
ATOM     16  N   UNL     1       4.004  -0.808  26.946  0.00  0.00    -0.286 N 
ATOM     17  C   UNL     1       5.200  -0.204  27.221  0.00  0.00    +0.167 A 
ATOM     18  N   UNL     1       6.426  -0.758  27.197  0.00  0.00    -0.216 NA
ATOM     19  C   UNL     1       7.365   0.162  27.516  0.00  0.00    +0.225 A 
ATOM     20  N   UNL     1       7.192   1.464  27.837  0.00  0.00    -0.219 NA
ATOM     21  C   UNL     1       5.936   1.966  27.836  0.00  0.00    +0.147 A 
ATOM     22  N   UNL     1       5.757   3.306  28.158  0.00  0.00    -0.341 N 
ATOM     23  H   UNL     1       4.812   3.520  28.461  0.00  0.00    +0.144 HD
ATOM     24  H   UNL     1       6.521   3.671  28.709  0.00  0.00    +0.144 HD
ATOM     25  C   UNL     1       4.872   1.105  27.527  0.00  0.00    +0.147 A 
ATOM     26  N   UNL     1       3.507   1.295  27.472  0.00  0.00    -0.231 NA
ATOM     27  C   UNL     1       3.019   0.127  27.109  0.00  0.00    +0.203 A 
ENDBRANCH  14  16
BRANCH  13  28
ATOM     28  O   UNL     1       5.406  -3.807  27.422  0.00  0.00    -0.385 OA
ATOM     29  H   UNL     1       5.414  -4.286  26.567  0.00  0.00    +0.210 HD
ENDBRANCH  13  28
BRANCH  12  30
ATOM     30  O   UNL     1       2.132  -4.305  28.450  0.00  0.00    -0.386 OA
ATOM     31  H   UNL     1       2.175  -5.188  28.858  0.00  0.00    +0.210 HD
ENDBRANCH  12  30
ENDBRANCH  10  11
ENDBRANCH   9  10
ENDBRANCH   5   9
ENDBRANCH   4   5
ENDBRANCH   1   4
BRANCH   1  32
ATOM     32  O   UNL     1       7.115  -4.659  21.802  0.00  0.00    -0.324 OA
BRANCH  32  33
ATOM     33  C   UNL     1       6.425  -3.431  21.870  0.00  0.00    +0.202 C 
BRANCH  33  37
ATOM     34  C   UNL     1       9.355  -1.543  22.809  0.00  0.00    +0.439 C 
ATOM     35  C   UNL     1       9.181  -2.391  24.072  0.00  0.00    +0.244 C 
ATOM     36  C   UNL     1       7.793  -3.004  23.963  0.00  0.00    +0.183 C 
ATOM     37  C   UNL     1       7.219  -2.429  22.680  0.00  0.00    +0.182 C 
ATOM     38  O   UNL     1       8.301  -1.880  21.909  0.00  0.00    -0.309 OA
BRANCH  34  43
ATOM     39  C   UNL     1       8.253   2.064  22.939  0.00  0.00    +0.104 A 
ATOM     40  C   UNL     1       9.322   2.699  23.607  0.00  0.00    -0.014 A 
ATOM     41  C   UNL     1      10.334   1.852  24.096  0.00  0.00    +0.075 A 
ATOM     42  C   UNL     1      10.320   0.478  23.844  0.00  0.00    +0.312 A 
ATOM     43  N   UNL     1       9.320  -0.073  23.121  0.00  0.00    -0.173 N 
ATOM     44  C   UNL     1       8.324   0.702  22.651  0.00  0.00    +0.325 A 
BRANCH  40  45
ATOM     45  C   UNL     1       9.388   4.214  23.826  0.00  0.00    +0.086 C 
ATOM     46  C   UNL     1       8.655   4.671  25.084  0.00  0.00    +0.141 C 
ATOM     47  O   UNL     1       8.045   3.888  25.815  0.00  0.00    -0.297 OA
ATOM     48  C   UNL     1       8.667   6.166  25.351  0.00  0.00    +0.075 C 
ATOM     49  C   UNL     1      10.096   6.696  25.334  0.00  0.00    +0.008 C 
ATOM     50  C   UNL     1      10.822   6.312  24.047  0.00  0.00    +0.001 C 
ATOM     51  C   UNL     1      10.819   4.794  23.858  0.00  0.00    +0.016 C 
ENDBRANCH  40  45
BRANCH  39  55
ATOM     52  N   UNL     1       5.837   2.123  22.647  0.00  0.00    -0.325 N 
ATOM     53  H   UNL     1       5.674   1.368  23.300  0.00  0.00    +0.145 HD
ATOM     54  H   UNL     1       5.007   2.646  22.373  0.00  0.00    +0.145 HD
ATOM     55  C   UNL     1       7.034   2.763  22.460  0.00  0.00    +0.248 C 
ATOM     56  O   UNL     1       7.082   3.854  21.914  0.00  0.00    -0.270 OA
ENDBRANCH  39  55
ENDBRANCH  34  43
BRANCH  36  57
ATOM     57  O   UNL     1       6.988  -2.537  25.052  0.00  0.00    -0.386 OA
ATOM     58  H   UNL     1       7.596  -2.129  25.700  0.00  0.00    +0.210 HD
ENDBRANCH  36  57
BRANCH  35  59
ATOM     59  O   UNL     1      10.214  -3.380  24.149  0.00  0.00    -0.380 OA
ATOM     60  H   UNL     1      10.313  -3.679  25.079  0.00  0.00    +0.210 HD
ENDBRANCH  35  59
ENDBRANCH  33  37
ENDBRANCH  32  33
ENDBRANCH   1  32
TORSDOF 17
ENDMDL
MODEL 2
REMARK VINA RESULT:      -7.3      1.486      2.061
REMARK  Name = 
REMARK  17 active torsions:
REMARK  status: ('A' for Active; 'I' for Inactive)
REMARK    1  A    between atoms: C_2  and  C_4
REMARK    2  A    between atoms: N_6  and  C_18
REMARK    3  A    between atoms: C_9  and  C_10
REMARK    4  A    between atoms: C_21  and  C_23
REMARK    5  A    between atoms: C_23  and  O_24
REMARK    6  A    between atoms: O_24  and  P_25
REMARK    7  A    between atoms: P_25  and  O_28
REMARK    8  A    between atoms: O_28  and  P_29
REMARK    9  A    between atoms: P_29  and  O_30
REMARK   10  A    between atoms: P_29  and  O_32
REMARK   11  A    between atoms: O_32  and  C_33
REMARK   12  A    between atoms: C_33  and  C_34
REMARK   13  A    between atoms: C_37  and  N_45
REMARK   14  A    between atoms: C_39  and  O_41
REMARK   15  A    between atoms: C_42  and  O_44
REMARK   16  A    between atoms: C_55  and  O_57
REMARK   17  A    between atoms: C_58  and  O_60
REMARK                            x       y       z     vdW  Elec       q    Type
REMARK                         _______ _______ _______ _____ _____    ______ ____
ROOT
ATOM      1  P   UNL     1       5.905  -5.972  22.182  0.00  0.00    +0.222 P 
ATOM      2  O   UNL     1       7.629  -5.959  22.037  0.00  0.00    -0.437 OA
ATOM      3  O   UNL     1       5.669  -5.822  20.675  0.00  0.00    -0.517 OA
ENDROOT
BRANCH   1   4
ATOM      4  O   UNL     1       4.181  -5.984  22.327  0.00  0.00    -0.229 OA
BRANCH   4   5
ATOM      5  P   UNL     1       3.731  -6.788  23.792  0.00  0.00    +0.480 P 
ATOM      6  O   UNL     1       3.342  -5.448  24.427  0.00  0.00    -0.227 OA
BRANCH   5   7
ATOM      7  O   UNL     1       5.309  -6.905  24.218  0.00  0.00    -0.302 OA
ATOM      8  H   UNL     1       5.533  -7.837  24.016  0.00  0.00    +0.222 HD
ENDBRANCH   5   7
BRANCH   5   9
ATOM      9  O   UNL     1       3.279  -7.590  25.255  0.00  0.00    -0.284 OA
BRANCH   9  10
ATOM     10  C   UNL     1       2.495  -6.756  26.117  0.00  0.00    +0.206 C 
BRANCH  10  11
ATOM     11  C   UNL     1       3.136  -6.699  27.506  0.00  0.00    +0.178 C 
ATOM     12  C   UNL     1       4.664  -6.774  27.438  0.00  0.00    +0.178 C 
ATOM     13  C   UNL     1       5.137  -5.319  27.484  0.00  0.00    +0.195 C 
ATOM     14  C   UNL     1       3.849  -4.510  27.659  0.00  0.00    +0.253 C 
ATOM     15  O   UNL     1       2.850  -5.429  28.130  0.00  0.00    -0.346 OA
BRANCH  14  16
ATOM     16  N   UNL     1       3.966  -3.408  28.593  0.00  0.00    -0.286 N 
ATOM     17  C   UNL     1       4.282  -2.124  28.244  0.00  0.00    +0.167 A 
ATOM     18  N   UNL     1       4.617  -1.661  27.027  0.00  0.00    -0.216 NA
ATOM     19  C   UNL     1       4.848  -0.329  27.076  0.00  0.00    +0.225 A 
ATOM     20  N   UNL     1       4.789   0.496  28.146  0.00  0.00    -0.219 NA
ATOM     21  C   UNL     1       4.439  -0.027  29.343  0.00  0.00    +0.147 A 
ATOM     22  N   UNL     1       4.370   0.821  30.442  0.00  0.00    -0.341 N 
ATOM     23  H   UNL     1       4.437   0.331  31.328  0.00  0.00    +0.144 HD
ATOM     24  H   UNL     1       4.934   1.650  30.320  0.00  0.00    +0.144 HD
ATOM     25  C   UNL     1       4.179  -1.403  29.422  0.00  0.00    +0.147 A 
ATOM     26  N   UNL     1       3.840  -2.228  30.474  0.00  0.00    -0.231 NA
ATOM     27  C   UNL     1       3.708  -3.422  29.936  0.00  0.00    +0.203 A 
ENDBRANCH  14  16
BRANCH  13  28
ATOM     28  O   UNL     1       5.803  -4.965  26.272  0.00  0.00    -0.385 OA
ATOM     29  H   UNL     1       6.021  -5.802  25.811  0.00  0.00    +0.210 HD
ENDBRANCH  13  28
BRANCH  12  30
ATOM     30  O   UNL     1       5.178  -7.474  28.582  0.00  0.00    -0.386 OA
ATOM     31  H   UNL     1       6.107  -7.213  28.714  0.00  0.00    +0.210 HD
ENDBRANCH  12  30
ENDBRANCH  10  11
ENDBRANCH   9  10
ENDBRANCH   5   9
ENDBRANCH   4   5
ENDBRANCH   1   4
BRANCH   1  32
ATOM     32  O   UNL     1       5.853  -4.442  22.832  0.00  0.00    -0.324 OA
BRANCH  32  33
ATOM     33  C   UNL     1       6.331  -3.427  21.978  0.00  0.00    +0.202 C 
BRANCH  33  37
ATOM     34  C   UNL     1       9.282  -1.528  22.822  0.00  0.00    +0.439 C 
ATOM     35  C   UNL     1       9.156  -2.381  24.087  0.00  0.00    +0.244 C 
ATOM     36  C   UNL     1       7.768  -3.000  24.023  0.00  0.00    +0.183 C 
ATOM     37  C   UNL     1       7.148  -2.424  22.763  0.00  0.00    +0.182 C 
ATOM     38  O   UNL     1       8.200  -1.867  21.958  0.00  0.00    -0.309 OA
BRANCH  34  43
ATOM     39  C   UNL     1       8.199   2.084  22.955  0.00  0.00    +0.104 A 
ATOM     40  C   UNL     1       9.262   2.710  23.639  0.00  0.00    -0.014 A 
ATOM     41  C   UNL     1      10.264   1.856  24.136  0.00  0.00    +0.075 A 
ATOM     42  C   UNL     1      10.245   0.484  23.878  0.00  0.00    +0.312 A 
ATOM     43  N   UNL     1       9.252  -0.059  23.141  0.00  0.00    -0.173 N 
ATOM     44  C   UNL     1       8.266   0.724  22.661  0.00  0.00    +0.325 A 
BRANCH  40  45
ATOM     45  C   UNL     1       9.334   4.224  23.865  0.00  0.00    +0.086 C 
ATOM     46  C   UNL     1       8.642   4.672  25.150  0.00  0.00    +0.141 C 
ATOM     47  O   UNL     1       8.058   3.883  25.896  0.00  0.00    -0.297 OA
ATOM     48  C   UNL     1       8.661   6.165  25.427  0.00  0.00    +0.075 C 
ATOM     49  C   UNL     1      10.089   6.697  25.366  0.00  0.00    +0.008 C 
ATOM     50  C   UNL     1      10.771   6.323  24.053  0.00  0.00    +0.001 C 
ATOM     51  C   UNL     1      10.764   4.806  23.855  0.00  0.00    +0.016 C 
ENDBRANCH  40  45
BRANCH  39  55
ATOM     52  N   UNL     1       5.785   2.166  22.650  0.00  0.00    -0.325 N 
ATOM     53  H   UNL     1       5.610   1.418  23.310  0.00  0.00    +0.145 HD
ATOM     54  H   UNL     1       4.961   2.695  22.368  0.00  0.00    +0.145 HD
ATOM     55  C   UNL     1       6.989   2.792  22.465  0.00  0.00    +0.248 C 
ATOM     56  O   UNL     1       7.051   3.878  21.910  0.00  0.00    -0.270 OA
ENDBRANCH  39  55
ENDBRANCH  34  43
BRANCH  36  57
ATOM     57  O   UNL     1       6.999  -2.541  25.141  0.00  0.00    -0.386 OA
ATOM     58  H   UNL     1       6.265  -2.005  24.780  0.00  0.00    +0.210 HD
ENDBRANCH  36  57
BRANCH  35  59
ATOM     59  O   UNL     1      10.196  -3.365  24.124  0.00  0.00    -0.380 OA
ATOM     60  H   UNL     1      10.503  -3.553  23.211  0.00  0.00    +0.210 HD
ENDBRANCH  35  59
ENDBRANCH  33  37
ENDBRANCH  32  33
ENDBRANCH   1  32
TORSDOF 17
ENDMDL
MODEL 3
REMARK VINA RESULT:      -7.1      2.994      8.614
REMARK  Name = 
REMARK  17 active torsions:
REMARK  status: ('A' for Active; 'I' for Inactive)
REMARK    1  A    between atoms: C_2  and  C_4
REMARK    2  A    between atoms: N_6  and  C_18
REMARK    3  A    between atoms: C_9  and  C_10
REMARK    4  A    between atoms: C_21  and  C_23
REMARK    5  A    between atoms: C_23  and  O_24
REMARK    6  A    between atoms: O_24  and  P_25
REMARK    7  A    between atoms: P_25  and  O_28
REMARK    8  A    between atoms: O_28  and  P_29
REMARK    9  A    between atoms: P_29  and  O_30
REMARK   10  A    between atoms: P_29  and  O_32
REMARK   11  A    between atoms: O_32  and  C_33
REMARK   12  A    between atoms: C_33  and  C_34
REMARK   13  A    between atoms: C_37  and  N_45
REMARK   14  A    between atoms: C_39  and  O_41
REMARK   15  A    between atoms: C_42  and  O_44
REMARK   16  A    between atoms: C_55  and  O_57
REMARK   17  A    between atoms: C_58  and  O_60
REMARK                            x       y       z     vdW  Elec       q    Type
REMARK                         _______ _______ _______ _____ _____    ______ ____
ROOT
ATOM      1  P   UNL     1       9.862  -1.135  22.135  0.00  0.00    +0.222 P 
ATOM      2  O   UNL     1      10.520  -2.452  23.043  0.00  0.00    -0.437 OA
ATOM      3  O   UNL     1      10.595  -0.064  22.951  0.00  0.00    -0.517 OA
ENDROOT
BRANCH   1   4
ATOM      4  O   UNL     1       9.203   0.182  21.227  0.00  0.00    -0.229 OA
BRANCH   4   5
ATOM      5  P   UNL     1       8.987   1.548  22.266  0.00  0.00    +0.480 P 
ATOM      6  O   UNL     1       7.753   1.982  21.467  0.00  0.00    -0.227 OA
BRANCH   5   7
ATOM      7  O   UNL     1      10.184   2.344  21.477  0.00  0.00    -0.302 OA
ATOM      8  H   UNL     1       9.793   2.533  20.598  0.00  0.00    +0.222 HD
ENDBRANCH   5   7
BRANCH   5   9
ATOM      9  O   UNL     1       8.770   2.914  23.305  0.00  0.00    -0.284 OA
BRANCH   9  10
ATOM     10  C   UNL     1       8.935   2.580  24.689  0.00  0.00    +0.206 C 
BRANCH  10  11
ATOM     11  C   UNL     1       7.745   3.109  25.494  0.00  0.00    +0.178 C 
ATOM     12  C   UNL     1       6.484   3.243  24.636  0.00  0.00    +0.178 C 
ATOM     13  C   UNL     1       5.697   1.953  24.880  0.00  0.00    +0.195 C 
ATOM     14  C   UNL     1       6.522   1.200  25.927  0.00  0.00    +0.253 C 
ATOM     15  O   UNL     1       7.395   2.169  26.532  0.00  0.00    -0.346 OA
BRANCH  14  16
ATOM     16  N   UNL     1       5.728   0.561  26.956  0.00  0.00    -0.286 N 
ATOM     17  C   UNL     1       4.989  -0.576  26.774  0.00  0.00    +0.167 A 
ATOM     18  N   UNL     1       4.792  -1.254  25.629  0.00  0.00    -0.216 NA
ATOM     19  C   UNL     1       4.012  -2.337  25.851  0.00  0.00    +0.225 A 
ATOM     20  N   UNL     1       3.456  -2.750  27.012  0.00  0.00    -0.219 NA
ATOM     21  C   UNL     1       3.698  -2.031  28.133  0.00  0.00    +0.147 A 
ATOM     22  N   UNL     1       3.135  -2.458  29.329  0.00  0.00    -0.341 N 
ATOM     23  H   UNL     1       3.072  -1.722  30.025  0.00  0.00    +0.144 HD
ATOM     24  H   UNL     1       2.319  -3.036  29.181  0.00  0.00    +0.144 HD
ATOM     25  C   UNL     1       4.491  -0.878  28.030  0.00  0.00    +0.147 A 
ATOM     26  N   UNL     1       4.886   0.066  28.955  0.00  0.00    -0.231 NA
ATOM     27  C   UNL     1       5.637   0.908  28.276  0.00  0.00    +0.203 A 
ENDBRANCH  14  16
BRANCH  13  28
ATOM     28  O   UNL     1       5.584   1.194  23.675  0.00  0.00    -0.385 OA
ATOM     29  H   UNL     1       4.959   1.674  23.093  0.00  0.00    +0.210 HD
ENDBRANCH  13  28
BRANCH  12  30
ATOM     30  O   UNL     1       5.701   4.364  25.076  0.00  0.00    -0.386 OA
ATOM     31  H   UNL     1       5.887   5.122  24.495  0.00  0.00    +0.210 HD
ENDBRANCH  12  30
ENDBRANCH  10  11
ENDBRANCH   9  10
ENDBRANCH   5   9
ENDBRANCH   4   5
ENDBRANCH   1   4
BRANCH   1  32
ATOM     32  O   UNL     1       8.351  -1.301  22.808  0.00  0.00    -0.324 OA
BRANCH  32  33
ATOM     33  C   UNL     1       8.342  -1.893  24.088  0.00  0.00    +0.202 C 
BRANCH  33  37
ATOM     34  C   UNL     1       7.070  -5.270  24.179  0.00  0.00    +0.439 C 
ATOM     35  C   UNL     1       6.484  -4.811  22.841  0.00  0.00    +0.244 C 
ATOM     36  C   UNL     1       6.658  -3.300  22.817  0.00  0.00    +0.183 C 
ATOM     37  C   UNL     1       7.274  -2.963  24.163  0.00  0.00    +0.182 C 
ATOM     38  O   UNL     1       7.794  -4.175  24.735  0.00  0.00    -0.309 OA
BRANCH  34  43
ATOM     39  C   UNL     1       3.879  -6.771  25.521  0.00  0.00    +0.104 A 
ATOM     40  C   UNL     1       3.929  -6.449  26.894  0.00  0.00    -0.014 A 
ATOM     41  C   UNL     1       5.110  -5.828  27.339  0.00  0.00    +0.075 A 
ATOM     42  C   UNL     1       6.125  -5.470  26.449  0.00  0.00    +0.312 A 
ATOM     43  N   UNL     1       5.994  -5.718  25.128  0.00  0.00    -0.173 N 
ATOM     44  C   UNL     1       4.885  -6.327  24.665  0.00  0.00    +0.325 A 
BRANCH  40  45
ATOM     45  C   UNL     1       2.790  -6.769  27.868  0.00  0.00    +0.086 C 
ATOM     46  C   UNL     1       3.284  -7.235  29.236  0.00  0.00    +0.141 C 
ATOM     47  O   UNL     1       4.482  -7.370  29.495  0.00  0.00    -0.297 OA
ATOM     48  C   UNL     1       2.205  -7.585  30.245  0.00  0.00    +0.075 C 
ATOM     49  C   UNL     1       1.220  -6.431  30.390  0.00  0.00    +0.008 C 
ATOM     50  C   UNL     1       0.657  -6.002  29.037  0.00  0.00    +0.001 C 
ATOM     51  C   UNL     1       1.787  -5.615  28.081  0.00  0.00    +0.016 C 
ENDBRANCH  40  45
BRANCH  39  55
ATOM     52  N   UNL     1       1.664  -6.831  24.512  0.00  0.00    -0.325 N 
ATOM     53  H   UNL     1       1.623  -5.827  24.387  0.00  0.00    +0.145 HD
ATOM     54  H   UNL     1       0.949  -7.359  24.016  0.00  0.00    +0.145 HD
ATOM     55  C   UNL     1       2.778  -7.536  24.881  0.00  0.00    +0.248 C 
ATOM     56  O   UNL     1       2.846  -8.741  24.696  0.00  0.00    -0.270 OA
ENDBRANCH  39  55
ENDBRANCH  34  43
BRANCH  36  57
ATOM     57  O   UNL     1       5.368  -2.681  22.757  0.00  0.00    -0.386 OA
ATOM     58  H   UNL     1       4.875  -3.119  22.034  0.00  0.00    +0.210 HD
ENDBRANCH  36  57
BRANCH  35  59
ATOM     59  O   UNL     1       7.160  -5.460  21.757  0.00  0.00    -0.380 OA
ATOM     60  H   UNL     1       8.120  -5.513  21.956  0.00  0.00    +0.210 HD
ENDBRANCH  35  59
ENDBRANCH  33  37
ENDBRANCH  32  33
ENDBRANCH   1  32
TORSDOF 17
ENDMDL
MODEL 4
REMARK VINA RESULT:      -7.0      3.359      7.841
REMARK  Name = 
REMARK  17 active torsions:
REMARK  status: ('A' for Active; 'I' for Inactive)
REMARK    1  A    between atoms: C_2  and  C_4
REMARK    2  A    between atoms: N_6  and  C_18
REMARK    3  A    between atoms: C_9  and  C_10
REMARK    4  A    between atoms: C_21  and  C_23
REMARK    5  A    between atoms: C_23  and  O_24
REMARK    6  A    between atoms: O_24  and  P_25
REMARK    7  A    between atoms: P_25  and  O_28
REMARK    8  A    between atoms: O_28  and  P_29
REMARK    9  A    between atoms: P_29  and  O_30
REMARK   10  A    between atoms: P_29  and  O_32
REMARK   11  A    between atoms: O_32  and  C_33
REMARK   12  A    between atoms: C_33  and  C_34
REMARK   13  A    between atoms: C_37  and  N_45
REMARK   14  A    between atoms: C_39  and  O_41
REMARK   15  A    between atoms: C_42  and  O_44
REMARK   16  A    between atoms: C_55  and  O_57
REMARK   17  A    between atoms: C_58  and  O_60
REMARK                            x       y       z     vdW  Elec       q    Type
REMARK                         _______ _______ _______ _____ _____    ______ ____
ROOT
ATOM      1  P   UNL     1       7.352   3.041  24.814  0.00  0.00    +0.222 P 
ATOM      2  O   UNL     1       6.806   3.312  23.195  0.00  0.00    -0.437 OA
ATOM      3  O   UNL     1       7.528   4.533  25.119  0.00  0.00    -0.517 OA
ENDROOT
BRANCH   1   4
ATOM      4  O   UNL     1       7.898   2.771  26.433  0.00  0.00    -0.229 OA
BRANCH   4   5
ATOM      5  P   UNL     1       6.533   2.535  27.470  0.00  0.00    +0.480 P 
ATOM      6  O   UNL     1       6.805   1.027  27.512  0.00  0.00    -0.227 OA
BRANCH   5   7
ATOM      7  O   UNL     1       5.527   2.649  26.181  0.00  0.00    -0.302 OA
ATOM      8  H   UNL     1       5.346   1.715  25.947  0.00  0.00    +0.222 HD
ENDBRANCH   5   7
BRANCH   5   9
ATOM      9  O   UNL     1       5.170   2.298  28.508  0.00  0.00    -0.284 OA
BRANCH   9  10
ATOM     10  C   UNL     1       5.303   1.131  29.329  0.00  0.00    +0.206 C 
BRANCH  10  11
ATOM     11  C   UNL     1       3.996   0.335  29.313  0.00  0.00    +0.178 C 
ATOM     12  C   UNL     1       3.205   0.554  28.020  0.00  0.00    +0.178 C 
ATOM     13  C   UNL     1       3.587  -0.622  27.117  0.00  0.00    +0.195 C 
ATOM     14  C   UNL     1       4.509  -1.481  27.985  0.00  0.00    +0.253 C 
ATOM     15  O   UNL     1       4.279  -1.079  29.346  0.00  0.00    -0.346 OA
BRANCH  14  16
ATOM     16  N   UNL     1       4.281  -2.906  27.860  0.00  0.00    -0.286 N 
ATOM     17  C   UNL     1       5.267  -3.839  27.691  0.00  0.00    +0.167 A 
ATOM     18  N   UNL     1       6.585  -3.624  27.530  0.00  0.00    -0.216 NA
ATOM     19  C   UNL     1       7.242  -4.799  27.406  0.00  0.00    +0.225 A 
ATOM     20  N   UNL     1       6.736  -6.053  27.418  0.00  0.00    -0.219 NA
ATOM     21  C   UNL     1       5.403  -6.206  27.591  0.00  0.00    +0.147 A 
ATOM     22  N   UNL     1       4.881  -7.494  27.611  0.00  0.00    -0.341 N 
ATOM     23  H   UNL     1       3.887  -7.524  27.408  0.00  0.00    +0.144 HD
ATOM     24  H   UNL     1       5.478  -8.155  27.134  0.00  0.00    +0.144 HD
ATOM     25  C   UNL     1       4.609  -5.057  27.725  0.00  0.00    +0.147 A 
ATOM     26  N   UNL     1       3.250  -4.877  27.879  0.00  0.00    -0.231 NA
ATOM     27  C   UNL     1       3.092  -3.573  27.969  0.00  0.00    +0.203 A 
ENDBRANCH  14  16
BRANCH  13  28
ATOM     28  O   UNL     1       4.266  -0.162  25.948  0.00  0.00    -0.385 OA
ATOM     29  H   UNL     1       4.008   0.774  25.818  0.00  0.00    +0.210 HD
ENDBRANCH  13  28
BRANCH  12  30
ATOM     30  O   UNL     1       1.795   0.505  28.287  0.00  0.00    -0.386 OA
ATOM     31  H   UNL     1       1.343   1.125  27.688  0.00  0.00    +0.210 HD
ENDBRANCH  12  30
ENDBRANCH  10  11
ENDBRANCH   9  10
ENDBRANCH   5   9
ENDBRANCH   4   5
ENDBRANCH   1   4
BRANCH   1  32
ATOM     32  O   UNL     1       8.834   2.473  24.321  0.00  0.00    -0.324 OA
BRANCH  32  33
ATOM     33  C   UNL     1       9.182   1.211  24.844  0.00  0.00    +0.202 C 
BRANCH  33  37
ATOM     34  C   UNL     1       8.893  -2.080  23.391  0.00  0.00    +0.439 C 
ATOM     35  C   UNL     1       9.004  -1.245  22.112  0.00  0.00    +0.244 C 
ATOM     36  C   UNL     1       8.801   0.198  22.551  0.00  0.00    +0.183 C 
ATOM     37  C   UNL     1       8.522   0.111  24.041  0.00  0.00    +0.182 C 
ATOM     38  O   UNL     1       8.935  -1.187  24.500  0.00  0.00    -0.309 OA
BRANCH  34  43
ATOM     39  C   UNL     1       6.231  -4.601  22.493  0.00  0.00    +0.104 A 
ATOM     40  C   UNL     1       5.191  -4.300  23.397  0.00  0.00    -0.014 A 
ATOM     41  C   UNL     1       5.477  -3.318  24.364  0.00  0.00    +0.075 A 
ATOM     42  C   UNL     1       6.689  -2.622  24.358  0.00  0.00    +0.312 A 
ATOM     43  N   UNL     1       7.622  -2.882  23.417  0.00  0.00    -0.173 N 
ATOM     44  C   UNL     1       7.391  -3.827  22.484  0.00  0.00    +0.325 A 
BRANCH  40  45
ATOM     45  C   UNL     1       3.830  -5.003  23.368  0.00  0.00    +0.086 C 
ATOM     46  C   UNL     1       3.856  -6.389  24.006  0.00  0.00    +0.141 C 
ATOM     47  O   UNL     1       4.888  -6.888  24.459  0.00  0.00    -0.297 OA
ATOM     48  C   UNL     1       2.541  -7.149  23.995  0.00  0.00    +0.075 C 
ATOM     49  C   UNL     1       1.432  -6.296  24.599  0.00  0.00    +0.008 C 
ATOM     50  C   UNL     1       1.340  -4.932  23.919  0.00  0.00    +0.001 C 
ATOM     51  C   UNL     1       2.678  -4.195  24.006  0.00  0.00    +0.016 C 
ENDBRANCH  40  45
BRANCH  39  55
ATOM     52  N   UNL     1       6.508  -6.946  21.902  0.00  0.00    -0.325 N 
ATOM     53  H   UNL     1       6.531  -7.254  22.866  0.00  0.00    +0.145 HD
ATOM     54  H   UNL     1       6.398  -7.688  21.213  0.00  0.00    +0.145 HD
ATOM     55  C   UNL     1       6.172  -5.687  21.482  0.00  0.00    +0.248 C 
ATOM     56  O   UNL     1       5.851  -5.478  20.322  0.00  0.00    -0.270 OA
ENDBRANCH  39  55
ENDBRANCH  34  43
BRANCH  36  57
ATOM     57  O   UNL     1       7.629   0.721  21.914  0.00  0.00    -0.386 OA
ATOM     58  H   UNL     1       7.574   0.302  21.032  0.00  0.00    +0.210 HD
ENDBRANCH  36  57
BRANCH  35  59
ATOM     59  O   UNL     1      10.278  -1.457  21.493  0.00  0.00    -0.380 OA
ATOM     60  H   UNL     1      10.869  -0.700  21.694  0.00  0.00    +0.210 HD
ENDBRANCH  35  59
ENDBRANCH  33  37
ENDBRANCH  32  33
ENDBRANCH   1  32
TORSDOF 17
ENDMDL
MODEL 5
REMARK VINA RESULT:      -7.0      2.203      5.903
REMARK  Name = 
REMARK  17 active torsions:
REMARK  status: ('A' for Active; 'I' for Inactive)
REMARK    1  A    between atoms: C_2  and  C_4
REMARK    2  A    between atoms: N_6  and  C_18
REMARK    3  A    between atoms: C_9  and  C_10
REMARK    4  A    between atoms: C_21  and  C_23
REMARK    5  A    between atoms: C_23  and  O_24
REMARK    6  A    between atoms: O_24  and  P_25
REMARK    7  A    between atoms: P_25  and  O_28
REMARK    8  A    between atoms: O_28  and  P_29
REMARK    9  A    between atoms: P_29  and  O_30
REMARK   10  A    between atoms: P_29  and  O_32
REMARK   11  A    between atoms: O_32  and  C_33
REMARK   12  A    between atoms: C_33  and  C_34
REMARK   13  A    between atoms: C_37  and  N_45
REMARK   14  A    between atoms: C_39  and  O_41
REMARK   15  A    between atoms: C_42  and  O_44
REMARK   16  A    between atoms: C_55  and  O_57
REMARK   17  A    between atoms: C_58  and  O_60
REMARK                            x       y       z     vdW  Elec       q    Type
REMARK                         _______ _______ _______ _____ _____    ______ ____
ROOT
ATOM      1  P   UNL     1       3.242  -5.208  23.630  0.00  0.00    +0.222 P 
ATOM      2  O   UNL     1       2.239  -4.394  24.781  0.00  0.00    -0.437 OA
ATOM      3  O   UNL     1       2.111  -5.386  22.610  0.00  0.00    -0.517 OA
ENDROOT
BRANCH   1   4
ATOM      4  O   UNL     1       4.243  -6.021  22.478  0.00  0.00    -0.229 OA
BRANCH   4   5
ATOM      5  P   UNL     1       5.697  -5.114  22.235  0.00  0.00    +0.480 P 
ATOM      6  O   UNL     1       4.897  -3.807  22.213  0.00  0.00    -0.227 OA
BRANCH   5   7
ATOM      7  O   UNL     1       5.693  -5.526  20.648  0.00  0.00    -0.302 OA
ATOM      8  H   UNL     1       6.495  -5.088  20.295  0.00  0.00    +0.222 HD
ENDBRANCH   5   7
BRANCH   5   9
ATOM      9  O   UNL     1       7.148  -4.206  21.992  0.00  0.00    -0.284 OA
BRANCH   9  10
ATOM     10  C   UNL     1       6.965  -2.806  22.234  0.00  0.00    +0.206 C 
BRANCH  10  11
ATOM     11  C   UNL     1       7.895  -2.350  23.362  0.00  0.00    +0.178 C 
ATOM     12  C   UNL     1       9.365  -2.641  23.048  0.00  0.00    +0.178 C 
ATOM     13  C   UNL     1       9.914  -1.335  22.468  0.00  0.00    +0.195 C 
ATOM     14  C   UNL     1       8.741  -0.357  22.564  0.00  0.00    +0.253 C 
ATOM     15  O   UNL     1       7.819  -0.917  23.515  0.00  0.00    -0.346 OA
BRANCH  14  16
ATOM     16  N   UNL     1       9.116   0.977  22.988  0.00  0.00    -0.286 N 
ATOM     17  C   UNL     1       8.401   2.110  22.712  0.00  0.00    +0.167 A 
ATOM     18  N   UNL     1       7.297   2.221  21.953  0.00  0.00    -0.216 NA
ATOM     19  C   UNL     1       6.870   3.505  21.927  0.00  0.00    +0.225 A 
ATOM     20  N   UNL     1       7.413   4.585  22.533  0.00  0.00    -0.219 NA
ATOM     21  C   UNL     1       8.520   4.408  23.291  0.00  0.00    +0.147 A 
ATOM     22  N   UNL     1       9.076   5.515  23.921  0.00  0.00    -0.341 N 
ATOM     23  H   UNL     1      10.049   5.382  24.175  0.00  0.00    +0.144 HD
ATOM     24  H   UNL     1       8.825   6.380  23.463  0.00  0.00    +0.144 HD
ATOM     25  C   UNL     1       9.064   3.119  23.390  0.00  0.00    +0.147 A 
ATOM     26  N   UNL     1      10.176   2.625  24.040  0.00  0.00    -0.231 NA
ATOM     27  C   UNL     1      10.168   1.333  23.786  0.00  0.00    +0.203 A 
ENDBRANCH  14  16
BRANCH  13  28
ATOM     28  O   UNL     1      10.320  -1.516  21.110  0.00  0.00    -0.385 OA
ATOM     29  H   UNL     1      10.808  -0.707  20.848  0.00  0.00    +0.210 HD
ENDBRANCH  13  28
BRANCH  12  30
ATOM     30  O   UNL     1      10.077  -2.956  24.255  0.00  0.00    -0.386 OA
ATOM     31  H   UNL     1       9.750  -3.807  24.596  0.00  0.00    +0.210 HD
ENDBRANCH  12  30
ENDBRANCH  10  11
ENDBRANCH   9  10
ENDBRANCH   5   9
ENDBRANCH   4   5
ENDBRANCH   1   4
BRANCH   1  32
ATOM     32  O   UNL     1       3.304  -6.605  24.528  0.00  0.00    -0.324 OA
BRANCH  32  33
ATOM     33  C   UNL     1       4.577  -6.905  25.056  0.00  0.00    +0.202 C 
BRANCH  33  37
ATOM     34  C   UNL     1       6.984  -4.713  26.614  0.00  0.00    +0.439 C 
ATOM     35  C   UNL     1       6.528  -5.506  27.842  0.00  0.00    +0.244 C 
ATOM     36  C   UNL     1       5.273  -6.248  27.404  0.00  0.00    +0.183 C 
ATOM     37  C   UNL     1       5.039  -5.794  25.974  0.00  0.00    +0.182 C 
ATOM     38  O   UNL     1       6.250  -5.191  25.489  0.00  0.00    -0.309 OA
BRANCH  34  43
ATOM     39  C   UNL     1       5.270  -1.396  27.162  0.00  0.00    +0.104 A 
ATOM     40  C   UNL     1       6.321  -0.466  27.013  0.00  0.00    -0.014 A 
ATOM     41  C   UNL     1       7.608  -1.011  26.844  0.00  0.00    +0.075 A 
ATOM     42  C   UNL     1       7.806  -2.390  26.735  0.00  0.00    +0.312 A 
ATOM     43  N   UNL     1       6.757  -3.238  26.795  0.00  0.00    -0.173 N 
ATOM     44  C   UNL     1       5.511  -2.755  26.972  0.00  0.00    +0.325 A 
BRANCH  40  45
ATOM     45  C   UNL     1       6.107   1.050  27.055  0.00  0.00    +0.086 C 
ATOM     46  C   UNL     1       5.990   1.600  28.474  0.00  0.00    +0.141 C 
ATOM     47  O   UNL     1       6.028   0.875  29.469  0.00  0.00    -0.297 OA
ATOM     48  C   UNL     1       5.759   3.098  28.587  0.00  0.00    +0.075 C 
ATOM     49  C   UNL     1       6.818   3.858  27.797  0.00  0.00    +0.008 C 
ATOM     50  C   UNL     1       6.897   3.372  26.352  0.00  0.00    +0.001 C 
ATOM     51  C   UNL     1       7.179   1.869  26.303  0.00  0.00    +0.016 C 
ENDBRANCH  40  45
BRANCH  39  55
ATOM     52  N   UNL     1       3.493  -1.051  28.789  0.00  0.00    -0.325 N 
ATOM     53  H   UNL     1       4.128  -1.032  29.577  0.00  0.00    +0.145 HD
ATOM     54  H   UNL     1       2.546  -0.731  28.988  0.00  0.00    +0.145 HD
ATOM     55  C   UNL     1       3.865  -1.026  27.471  0.00  0.00    +0.248 C 
ATOM     56  O   UNL     1       3.066  -0.723  26.600  0.00  0.00    -0.270 OA
ENDBRANCH  39  55
ENDBRANCH  34  43
BRANCH  36  57
ATOM     57  O   UNL     1       4.165  -5.800  28.194  0.00  0.00    -0.386 OA
ATOM     58  H   UNL     1       4.420  -4.937  28.577  0.00  0.00    +0.210 HD
ENDBRANCH  36  57
BRANCH  35  59
ATOM     59  O   UNL     1       7.568  -6.392  28.272  0.00  0.00    -0.380 OA
ATOM     60  H   UNL     1       8.442  -5.982  28.093  0.00  0.00    +0.210 HD
ENDBRANCH  35  59
ENDBRANCH  33  37
ENDBRANCH  32  33
ENDBRANCH   1  32
TORSDOF 17
ENDMDL
MODEL 6
REMARK VINA RESULT:      -6.9      2.537      4.621
REMARK  Name = 
REMARK  17 active torsions:
REMARK  status: ('A' for Active; 'I' for Inactive)
REMARK    1  A    between atoms: C_2  and  C_4
REMARK    2  A    between atoms: N_6  and  C_18
REMARK    3  A    between atoms: C_9  and  C_10
REMARK    4  A    between atoms: C_21  and  C_23
REMARK    5  A    between atoms: C_23  and  O_24
REMARK    6  A    between atoms: O_24  and  P_25
REMARK    7  A    between atoms: P_25  and  O_28
REMARK    8  A    between atoms: O_28  and  P_29
REMARK    9  A    between atoms: P_29  and  O_30
REMARK   10  A    between atoms: P_29  and  O_32
REMARK   11  A    between atoms: O_32  and  C_33
REMARK   12  A    between atoms: C_33  and  C_34
REMARK   13  A    between atoms: C_37  and  N_45
REMARK   14  A    between atoms: C_39  and  O_41
REMARK   15  A    between atoms: C_42  and  O_44
REMARK   16  A    between atoms: C_55  and  O_57
REMARK   17  A    between atoms: C_58  and  O_60
REMARK                            x       y       z     vdW  Elec       q    Type
REMARK                         _______ _______ _______ _____ _____    ______ ____
ROOT
ATOM      1  P   UNL     1       8.392  -2.312  23.421  0.00  0.00    +0.222 P 
ATOM      2  O   UNL     1       9.242  -2.020  24.900  0.00  0.00    -0.437 OA
ATOM      3  O   UNL     1       8.386  -3.834  23.599  0.00  0.00    -0.517 OA
ENDROOT
BRANCH   1   4
ATOM      4  O   UNL     1       7.543  -2.603  21.943  0.00  0.00    -0.229 OA
BRANCH   4   5
ATOM      5  P   UNL     1       6.219  -3.678  22.240  0.00  0.00    +0.480 P 
ATOM      6  O   UNL     1       5.632  -3.363  20.860  0.00  0.00    -0.227 OA
BRANCH   5   7
ATOM      7  O   UNL     1       5.496  -2.538  23.170  0.00  0.00    -0.302 OA
ATOM      8  H   UNL     1       4.702  -2.995  23.518  0.00  0.00    +0.222 HD
ENDBRANCH   5   7
BRANCH   5   9
ATOM      9  O   UNL     1       4.897  -4.752  22.536  0.00  0.00    -0.284 OA
BRANCH   9  10
ATOM     10  C   UNL     1       5.262  -5.849  23.383  0.00  0.00    +0.206 C 
BRANCH  10  11
ATOM     11  C   UNL     1       4.310  -5.919  24.580  0.00  0.00    +0.178 C 
ATOM     12  C   UNL     1       4.863  -6.802  25.702  0.00  0.00    +0.178 C 
ATOM     13  C   UNL     1       5.541  -5.833  26.674  0.00  0.00    +0.195 C 
ATOM     14  C   UNL     1       5.260  -4.448  26.084  0.00  0.00    +0.253 C 
ATOM     15  O   UNL     1       4.162  -4.610  25.169  0.00  0.00    -0.346 OA
BRANCH  14  16
ATOM     16  N   UNL     1       4.918  -3.444  27.070  0.00  0.00    -0.286 N 
ATOM     17  C   UNL     1       5.142  -2.102  26.922  0.00  0.00    +0.167 A 
ATOM     18  N   UNL     1       5.775  -1.480  25.910  0.00  0.00    -0.216 NA
ATOM     19  C   UNL     1       5.787  -0.143  26.114  0.00  0.00    +0.225 A 
ATOM     20  N   UNL     1       5.277   0.555  27.153  0.00  0.00    -0.219 NA
ATOM     21  C   UNL     1       4.645  -0.126  28.137  0.00  0.00    +0.147 A 
ATOM     22  N   UNL     1       4.114   0.590  29.203  0.00  0.00    -0.341 N 
ATOM     23  H   UNL     1       3.967   0.022  30.031  0.00  0.00    +0.144 HD
ATOM     24  H   UNL     1       4.564   1.487  29.322  0.00  0.00    +0.144 HD
ATOM     25  C   UNL     1       4.572  -1.524  28.043  0.00  0.00    +0.147 A 
ATOM     26  N   UNL     1       4.039  -2.486  28.875  0.00  0.00    -0.231 NA
ATOM     27  C   UNL     1       4.255  -3.626  28.252  0.00  0.00    +0.203 A 
ENDBRANCH  14  16
BRANCH  13  28
ATOM     28  O   UNL     1       6.945  -6.084  26.743  0.00  0.00    -0.385 OA
ATOM     29  H   UNL     1       7.222  -6.396  25.856  0.00  0.00    +0.210 HD
ENDBRANCH  13  28
BRANCH  12  30
ATOM     30  O   UNL     1       3.789  -7.474  26.379  0.00  0.00    -0.386 OA
ATOM     31  H   UNL     1       3.409  -6.867  27.038  0.00  0.00    +0.210 HD
ENDBRANCH  12  30
ENDBRANCH  10  11
ENDBRANCH   9  10
ENDBRANCH   5   9
ENDBRANCH   4   5
ENDBRANCH   1   4
BRANCH   1  32
ATOM     32  O   UNL     1       9.711  -1.943  22.479  0.00  0.00    -0.324 OA
BRANCH  32  33
ATOM     33  C   UNL     1       9.581  -0.756  21.729  0.00  0.00    +0.202 C 
BRANCH  33  37
ATOM     34  C   UNL     1       8.689   2.652  22.515  0.00  0.00    +0.439 C 
ATOM     35  C   UNL     1      10.024   2.558  23.260  0.00  0.00    +0.244 C 
ATOM     36  C   UNL     1      10.366   1.076  23.297  0.00  0.00    +0.183 C 
ATOM     37  C   UNL     1       9.185   0.393  22.631  0.00  0.00    +0.182 C 
ATOM     38  O   UNL     1       8.440   1.387  21.908  0.00  0.00    -0.309 OA
BRANCH  34  43
ATOM     39  C   UNL     1       6.772   3.528  25.645  0.00  0.00    +0.104 A 
ATOM     40  C   UNL     1       5.435   3.575  25.196  0.00  0.00    -0.014 A 
ATOM     41  C   UNL     1       5.243   3.419  23.811  0.00  0.00    +0.075 A 
ATOM     42  C   UNL     1       6.311   3.139  22.955  0.00  0.00    +0.312 A 
ATOM     43  N   UNL     1       7.564   3.014  23.443  0.00  0.00    -0.173 N 
ATOM     44  C   UNL     1       7.790   3.172  24.762  0.00  0.00    +0.325 A 
BRANCH  40  45
ATOM     45  C   UNL     1       4.246   3.807  26.135  0.00  0.00    +0.086 C 
ATOM     46  C   UNL     1       3.886   5.281  26.293  0.00  0.00    +0.141 C 
ATOM     47  O   UNL     1       4.524   6.181  25.742  0.00  0.00    -0.297 OA
ATOM     48  C   UNL     1       2.725   5.583  27.225  0.00  0.00    +0.075 C 
ATOM     49  C   UNL     1       1.501   4.766  26.829  0.00  0.00    +0.008 C 
ATOM     50  C   UNL     1       1.826   3.276  26.741  0.00  0.00    +0.001 C 
ATOM     51  C   UNL     1       2.967   3.031  25.752  0.00  0.00    +0.016 C 
ENDBRANCH  40  45
BRANCH  39  55
ATOM     52  N   UNL     1       7.218   2.720  27.898  0.00  0.00    -0.325 N 
ATOM     53  H   UNL     1       7.239   1.748  27.616  0.00  0.00    +0.145 HD
ATOM     54  H   UNL     1       7.573   2.907  28.834  0.00  0.00    +0.145 HD
ATOM     55  C   UNL     1       7.194   3.791  27.045  0.00  0.00    +0.248 C 
ATOM     56  O   UNL     1       7.497   4.908  27.432  0.00  0.00    -0.270 OA
ENDBRANCH  39  55
ENDBRANCH  34  43
BRANCH  36  57
ATOM     57  O   UNL     1      10.414   0.640  24.660  0.00  0.00    -0.386 OA
ATOM     58  H   UNL     1      11.258   0.966  25.033  0.00  0.00    +0.210 HD
ENDBRANCH  36  57
BRANCH  35  59
ATOM     59  O   UNL     1      11.021   3.336  22.587  0.00  0.00    -0.380 OA
ATOM     60  H   UNL     1      10.995   4.259  22.918  0.00  0.00    +0.210 HD
ENDBRANCH  35  59
ENDBRANCH  33  37
ENDBRANCH  32  33
ENDBRANCH   1  32
TORSDOF 17
ENDMDL
MODEL 7
REMARK VINA RESULT:      -6.9      3.640      8.511
REMARK  Name = 
REMARK  17 active torsions:
REMARK  status: ('A' for Active; 'I' for Inactive)
REMARK    1  A    between atoms: C_2  and  C_4
REMARK    2  A    between atoms: N_6  and  C_18
REMARK    3  A    between atoms: C_9  and  C_10
REMARK    4  A    between atoms: C_21  and  C_23
REMARK    5  A    between atoms: C_23  and  O_24
REMARK    6  A    between atoms: O_24  and  P_25
REMARK    7  A    between atoms: P_25  and  O_28
REMARK    8  A    between atoms: O_28  and  P_29
REMARK    9  A    between atoms: P_29  and  O_30
REMARK   10  A    between atoms: P_29  and  O_32
REMARK   11  A    between atoms: O_32  and  C_33
REMARK   12  A    between atoms: C_33  and  C_34
REMARK   13  A    between atoms: C_37  and  N_45
REMARK   14  A    between atoms: C_39  and  O_41
REMARK   15  A    between atoms: C_42  and  O_44
REMARK   16  A    between atoms: C_55  and  O_57
REMARK   17  A    between atoms: C_58  and  O_60
REMARK                            x       y       z     vdW  Elec       q    Type
REMARK                         _______ _______ _______ _____ _____    ______ ____
ROOT
ATOM      1  P   UNL     1       8.456   5.190  24.732  0.00  0.00    +0.222 P 
ATOM      2  O   UNL     1       8.672   5.297  26.445  0.00  0.00    -0.437 OA
ATOM      3  O   UNL     1       7.214   6.089  24.725  0.00  0.00    -0.517 OA
ENDROOT
BRANCH   1   4
ATOM      4  O   UNL     1       8.239   5.083  23.020  0.00  0.00    -0.229 OA
BRANCH   4   5
ATOM      5  P   UNL     1       6.595   5.448  22.622  0.00  0.00    +0.480 P 
ATOM      6  O   UNL     1       6.478   4.139  21.833  0.00  0.00    -0.227 OA
BRANCH   5   7
ATOM      7  O   UNL     1       7.101   6.486  21.460  0.00  0.00    -0.302 OA
ATOM      8  H   UNL     1       7.384   7.277  21.965  0.00  0.00    +0.222 HD
ENDBRANCH   5   7
BRANCH   5   9
ATOM      9  O   UNL     1       4.951   5.811  22.226  0.00  0.00    -0.284 OA
BRANCH   9  10
ATOM     10  C   UNL     1       4.282   6.529  23.270  0.00  0.00    +0.206 C 
BRANCH  10  11
ATOM     11  C   UNL     1       2.953   5.845  23.599  0.00  0.00    +0.178 C 
ATOM     12  C   UNL     1       2.616   4.732  22.603  0.00  0.00    +0.178 C 
ATOM     13  C   UNL     1       3.105   3.443  23.267  0.00  0.00    +0.195 C 
ATOM     14  C   UNL     1       3.615   3.894  24.638  0.00  0.00    +0.253 C 
ATOM     15  O   UNL     1       3.040   5.189  24.881  0.00  0.00    -0.346 OA
BRANCH  14  16
ATOM     16  N   UNL     1       3.264   3.001  25.723  0.00  0.00    -0.286 N 
ATOM     17  C   UNL     1       3.893   1.816  25.988  0.00  0.00    +0.167 A 
ATOM     18  N   UNL     1       4.867   1.224  25.275  0.00  0.00    -0.216 NA
ATOM     19  C   UNL     1       5.244   0.065  25.863  0.00  0.00    +0.225 A 
ATOM     20  N   UNL     1       4.762  -0.502  26.992  0.00  0.00    -0.219 NA
ATOM     21  C   UNL     1       3.786   0.145  27.670  0.00  0.00    +0.147 A 
ATOM     22  N   UNL     1       3.295  -0.431  28.835  0.00  0.00    -0.341 N 
ATOM     23  H   UNL     1       2.375  -0.088  29.093  0.00  0.00    +0.144 HD
ATOM     24  H   UNL     1       3.447  -1.430  28.860  0.00  0.00    +0.144 HD
ATOM     25  C   UNL     1       3.305   1.359  27.156  0.00  0.00    +0.147 A 
ATOM     26  N   UNL     1       2.319   2.224  27.581  0.00  0.00    -0.231 NA
ATOM     27  C   UNL     1       2.331   3.205  26.703  0.00  0.00    +0.203 A 
ENDBRANCH  14  16
BRANCH  13  28
ATOM     28  O   UNL     1       4.153   2.845  22.503  0.00  0.00    -0.385 OA
ATOM     29  H   UNL     1       4.605   3.570  22.023  0.00  0.00    +0.210 HD
ENDBRANCH  13  28
BRANCH  12  30
ATOM     30  O   UNL     1       1.196   4.653  22.408  0.00  0.00    -0.386 OA
ATOM     31  H   UNL     1       0.978   5.044  21.544  0.00  0.00    +0.210 HD
ENDBRANCH  12  30
ENDBRANCH  10  11
ENDBRANCH   9  10
ENDBRANCH   5   9
ENDBRANCH   4   5
ENDBRANCH   1   4
BRANCH   1  32
ATOM     32  O   UNL     1       7.913   3.620  24.803  0.00  0.00    -0.324 OA
BRANCH  32  33
ATOM     33  C   UNL     1       8.933   2.646  24.774  0.00  0.00    +0.202 C 
BRANCH  33  37
ATOM     34  C   UNL     1       9.148  -0.600  23.211  0.00  0.00    +0.439 C 
ATOM     35  C   UNL     1       8.368   0.153  22.130  0.00  0.00    +0.244 C 
ATOM     36  C   UNL     1       7.912   1.448  22.786  0.00  0.00    +0.183 C 
ATOM     37  C   UNL     1       8.397   1.343  24.221  0.00  0.00    +0.182 C 
ATOM     38  O   UNL     1       9.388   0.305  24.286  0.00  0.00    -0.309 OA
BRANCH  34  43
ATOM     39  C   UNL     1       8.327  -3.853  24.939  0.00  0.00    +0.104 A 
ATOM     40  C   UNL     1       7.003  -4.109  24.522  0.00  0.00    -0.014 A 
ATOM     41  C   UNL     1       6.392  -3.100  23.754  0.00  0.00    +0.075 A 
ATOM     42  C   UNL     1       7.096  -1.962  23.354  0.00  0.00    +0.312 A 
ATOM     43  N   UNL     1       8.391  -1.802  23.703  0.00  0.00    -0.173 N 
ATOM     44  C   UNL     1       9.007  -2.738  24.451  0.00  0.00    +0.325 A 
BRANCH  40  45
ATOM     45  C   UNL     1       6.244  -5.388  24.891  0.00  0.00    +0.086 C 
ATOM     46  C   UNL     1       5.620  -5.335  26.282  0.00  0.00    +0.141 C 
ATOM     47  O   UNL     1       5.758  -4.366  27.032  0.00  0.00    -0.297 OA
ATOM     48  C   UNL     1       4.866  -6.579  26.718  0.00  0.00    +0.075 C 
ATOM     49  C   UNL     1       3.825  -6.961  25.672  0.00  0.00    +0.008 C 
ATOM     50  C   UNL     1       4.447  -7.094  24.284  0.00  0.00    +0.001 C 
ATOM     51  C   UNL     1       5.148  -5.795  23.881  0.00  0.00    +0.016 C 
ENDBRANCH  40  45
BRANCH  39  55
ATOM     52  N   UNL     1       9.794  -5.765  25.283  0.00  0.00    -0.325 N 
ATOM     53  H   UNL     1      10.047  -5.830  24.305  0.00  0.00    +0.145 HD
ATOM     54  H   UNL     1      10.371  -6.315  25.917  0.00  0.00    +0.145 HD
ATOM     55  C   UNL     1       9.100  -4.731  25.853  0.00  0.00    +0.248 C 
ATOM     56  O   UNL     1       9.116  -4.557  27.062  0.00  0.00    -0.270 OA
ENDBRANCH  39  55
ENDBRANCH  34  43
BRANCH  36  57
ATOM     57  O   UNL     1       6.480   1.483  22.808  0.00  0.00    -0.386 OA
ATOM     58  H   UNL     1       6.208   2.293  22.332  0.00  0.00    +0.210 HD
ENDBRANCH  36  57
BRANCH  35  59
ATOM     59  O   UNL     1       9.201   0.380  20.987  0.00  0.00    -0.380 OA
ATOM     60  H   UNL     1      10.044   0.794  21.273  0.00  0.00    +0.210 HD
ENDBRANCH  35  59
ENDBRANCH  33  37
ENDBRANCH  32  33
ENDBRANCH   1  32
TORSDOF 17
ENDMDL
MODEL 8
REMARK VINA RESULT:      -6.9      2.654      5.193
REMARK  Name = 
REMARK  17 active torsions:
REMARK  status: ('A' for Active; 'I' for Inactive)
REMARK    1  A    between atoms: C_2  and  C_4
REMARK    2  A    between atoms: N_6  and  C_18
REMARK    3  A    between atoms: C_9  and  C_10
REMARK    4  A    between atoms: C_21  and  C_23
REMARK    5  A    between atoms: C_23  and  O_24
REMARK    6  A    between atoms: O_24  and  P_25
REMARK    7  A    between atoms: P_25  and  O_28
REMARK    8  A    between atoms: O_28  and  P_29
REMARK    9  A    between atoms: P_29  and  O_30
REMARK   10  A    between atoms: P_29  and  O_32
REMARK   11  A    between atoms: O_32  and  C_33
REMARK   12  A    between atoms: C_33  and  C_34
REMARK   13  A    between atoms: C_37  and  N_45
REMARK   14  A    between atoms: C_39  and  O_41
REMARK   15  A    between atoms: C_42  and  O_44
REMARK   16  A    between atoms: C_55  and  O_57
REMARK   17  A    between atoms: C_58  and  O_60
REMARK                            x       y       z     vdW  Elec       q    Type
REMARK                         _______ _______ _______ _____ _____    ______ ____
ROOT
ATOM      1  P   UNL     1       1.891  -0.984  27.498  0.00  0.00    +0.222 P 
ATOM      2  O   UNL     1       0.869   0.093  26.608  0.00  0.00    -0.437 OA
ATOM      3  O   UNL     1       0.816  -1.314  28.540  0.00  0.00    -0.517 OA
ENDROOT
BRANCH   1   4
ATOM      4  O   UNL     1       2.911  -2.060  28.387  0.00  0.00    -0.229 OA
BRANCH   4   5
ATOM      5  P   UNL     1       3.200  -3.487  27.452  0.00  0.00    +0.480 P 
ATOM      6  O   UNL     1       3.213  -2.659  26.162  0.00  0.00    -0.227 OA
BRANCH   5   7
ATOM      7  O   UNL     1       1.614  -3.888  27.566  0.00  0.00    -0.302 OA
ATOM      8  H   UNL     1       1.633  -4.805  27.910  0.00  0.00    +0.222 HD
ENDBRANCH   5   7
BRANCH   5   9
ATOM      9  O   UNL     1       3.489  -4.912  26.516  0.00  0.00    -0.284 OA
BRANCH   9  10
ATOM     10  C   UNL     1       4.649  -4.795  25.684  0.00  0.00    +0.206 C 
BRANCH  10  11
ATOM     11  C   UNL     1       5.900  -4.653  26.555  0.00  0.00    +0.178 C 
ATOM     12  C   UNL     1       7.008  -5.620  26.130  0.00  0.00    +0.178 C 
ATOM     13  C   UNL     1       7.918  -4.803  25.209  0.00  0.00    +0.195 C 
ATOM     14  C   UNL     1       7.314  -3.397  25.233  0.00  0.00    +0.253 C 
ATOM     15  O   UNL     1       6.467  -3.336  26.394  0.00  0.00    -0.346 OA
BRANCH  14  16
ATOM     16  N   UNL     1       8.295  -2.333  25.299  0.00  0.00    -0.286 N 
ATOM     17  C   UNL     1       8.980  -1.840  24.223  0.00  0.00    +0.167 A 
ATOM     18  N   UNL     1       8.945  -2.282  22.953  0.00  0.00    -0.216 NA
ATOM     19  C   UNL     1       9.752  -1.529  22.170  0.00  0.00    +0.225 A 
ATOM     20  N   UNL     1      10.526  -0.478  22.523  0.00  0.00    -0.219 NA
ATOM     21  C   UNL     1      10.514  -0.075  23.815  0.00  0.00    +0.147 A 
ATOM     22  N   UNL     1      11.302   1.009  24.178  0.00  0.00    -0.341 N 
ATOM     23  H   UNL     1      11.503   1.040  25.173  0.00  0.00    +0.144 HD
ATOM     24  H   UNL     1      12.071   1.153  23.539  0.00  0.00    +0.144 HD
ATOM     25  C   UNL     1       9.718  -0.783  24.729  0.00  0.00    +0.147 A 
ATOM     26  N   UNL     1       9.517  -0.648  26.086  0.00  0.00    -0.231 NA
ATOM     27  C   UNL     1       8.647  -1.589  26.392  0.00  0.00    +0.203 A 
ENDBRANCH  14  16
BRANCH  13  28
ATOM     28  O   UNL     1       7.912  -5.340  23.886  0.00  0.00    -0.385 OA
ATOM     29  H   UNL     1       8.796  -5.162  23.502  0.00  0.00    +0.210 HD
ENDBRANCH  13  28
BRANCH  12  30
ATOM     30  O   UNL     1       7.761  -6.048  27.277  0.00  0.00    -0.386 OA
ATOM     31  H   UNL     1       7.553  -6.982  27.455  0.00  0.00    +0.210 HD
ENDBRANCH  12  30
ENDBRANCH  10  11
ENDBRANCH   9  10
ENDBRANCH   5   9
ENDBRANCH   4   5
ENDBRANCH   1   4
BRANCH   1  32
ATOM     32  O   UNL     1       2.807   0.252  28.127  0.00  0.00    -0.324 OA
BRANCH  32  33
ATOM     33  C   UNL     1       2.874   1.403  27.315  0.00  0.00    +0.202 C 
BRANCH  33  37
ATOM     34  C   UNL     1       5.236   1.482  24.586  0.00  0.00    +0.439 C 
ATOM     35  C   UNL     1       5.690   0.195  25.281  0.00  0.00    +0.244 C 
ATOM     36  C   UNL     1       5.002   0.200  26.638  0.00  0.00    +0.183 C 
ATOM     37  C   UNL     1       4.243   1.515  26.678  0.00  0.00    +0.182 C 
ATOM     38  O   UNL     1       4.151   2.022  25.336  0.00  0.00    -0.309 OA
BRANCH  34  43
ATOM     39  C   UNL     1       7.153   4.649  23.858  0.00  0.00    +0.104 A 
ATOM     40  C   UNL     1       8.475   4.310  24.215  0.00  0.00    -0.014 A 
ATOM     41  C   UNL     1       8.650   3.045  24.804  0.00  0.00    +0.075 A 
ATOM     42  C   UNL     1       7.586   2.148  24.933  0.00  0.00    +0.312 A 
ATOM     43  N   UNL     1       6.353   2.483  24.494  0.00  0.00    -0.173 N 
ATOM     44  C   UNL     1       6.143   3.693  23.940  0.00  0.00    +0.325 A 
BRANCH  40  45
ATOM     45  C   UNL     1       9.664   5.255  24.010  0.00  0.00    +0.086 C 
ATOM     46  C   UNL     1       9.948   6.134  25.225  0.00  0.00    +0.141 C 
ATOM     47  O   UNL     1       9.255   6.099  26.244  0.00  0.00    -0.297 OA
ATOM     48  C   UNL     1      11.105   7.108  25.082  0.00  0.00    +0.075 C 
ATOM     49  C   UNL     1      12.365   6.372  24.640  0.00  0.00    +0.008 C 
ATOM     50  C   UNL     1      12.118   5.546  23.379  0.00  0.00    +0.001 C 
ATOM     51  C   UNL     1      10.977   4.552  23.601  0.00  0.00    +0.016 C 
ENDBRANCH  40  45
BRANCH  39  55
ATOM     52  N   UNL     1       6.713   6.133  21.978  0.00  0.00    -0.325 N 
ATOM     53  H   UNL     1       6.682   5.379  21.305  0.00  0.00    +0.145 HD
ATOM     54  H   UNL     1       6.366   7.029  21.641  0.00  0.00    +0.145 HD
ATOM     55  C   UNL     1       6.742   5.979  23.339  0.00  0.00    +0.248 C 
ATOM     56  O   UNL     1       6.451   6.904  24.081  0.00  0.00    -0.270 OA
ENDBRANCH  39  55
ENDBRANCH  34  43
BRANCH  36  57
ATOM     57  O   UNL     1       5.997   0.237  27.667  0.00  0.00    -0.386 OA
ATOM     58  H   UNL     1       6.373   1.140  27.668  0.00  0.00    +0.210 HD
ENDBRANCH  36  57
BRANCH  35  59
ATOM     59  O   UNL     1       5.335  -0.945  24.489  0.00  0.00    -0.380 OA
ATOM     60  H   UNL     1       6.067  -1.156  23.871  0.00  0.00    +0.210 HD
ENDBRANCH  35  59
ENDBRANCH  33  37
ENDBRANCH  32  33
ENDBRANCH   1  32
TORSDOF 17
ENDMDL
MODEL 9
REMARK VINA RESULT:      -6.8      2.631      4.382
REMARK  Name = 
REMARK  17 active torsions:
REMARK  status: ('A' for Active; 'I' for Inactive)
REMARK    1  A    between atoms: C_2  and  C_4
REMARK    2  A    between atoms: N_6  and  C_18
REMARK    3  A    between atoms: C_9  and  C_10
REMARK    4  A    between atoms: C_21  and  C_23
REMARK    5  A    between atoms: C_23  and  O_24
REMARK    6  A    between atoms: O_24  and  P_25
REMARK    7  A    between atoms: P_25  and  O_28
REMARK    8  A    between atoms: O_28  and  P_29
REMARK    9  A    between atoms: P_29  and  O_30
REMARK   10  A    between atoms: P_29  and  O_32
REMARK   11  A    between atoms: O_32  and  C_33
REMARK   12  A    between atoms: C_33  and  C_34
REMARK   13  A    between atoms: C_37  and  N_45
REMARK   14  A    between atoms: C_39  and  O_41
REMARK   15  A    between atoms: C_42  and  O_44
REMARK   16  A    between atoms: C_55  and  O_57
REMARK   17  A    between atoms: C_58  and  O_60
REMARK                            x       y       z     vdW  Elec       q    Type
REMARK                         _______ _______ _______ _____ _____    ______ ____
ROOT
ATOM      1  P   UNL     1       8.325  -2.624  23.429  0.00  0.00    +0.222 P 
ATOM      2  O   UNL     1       9.115  -2.275  24.929  0.00  0.00    -0.437 OA
ATOM      3  O   UNL     1       8.454  -4.143  23.592  0.00  0.00    -0.517 OA
ENDROOT
BRANCH   1   4
ATOM      4  O   UNL     1       7.537  -2.974  21.930  0.00  0.00    -0.229 OA
BRANCH   4   5
ATOM      5  P   UNL     1       6.207  -4.043  22.214  0.00  0.00    +0.480 P 
ATOM      6  O   UNL     1       5.618  -3.703  20.840  0.00  0.00    -0.227 OA
BRANCH   5   7
ATOM      7  O   UNL     1       5.494  -2.913  23.163  0.00  0.00    -0.302 OA
ATOM      8  H   UNL     1       4.866  -2.467  22.557  0.00  0.00    +0.222 HD
ENDBRANCH   5   7
BRANCH   5   9
ATOM      9  O   UNL     1       4.878  -5.113  22.496  0.00  0.00    -0.284 OA
BRANCH   9  10
ATOM     10  C   UNL     1       5.172  -6.102  23.490  0.00  0.00    +0.206 C 
BRANCH  10  11
ATOM     11  C   UNL     1       4.128  -6.040  24.608  0.00  0.00    +0.178 C 
ATOM     12  C   UNL     1       4.503  -6.934  25.794  0.00  0.00    +0.178 C 
ATOM     13  C   UNL     1       5.195  -6.002  26.792  0.00  0.00    +0.195 C 
ATOM     14  C   UNL     1       5.098  -4.618  26.145  0.00  0.00    +0.253 C 
ATOM     15  O   UNL     1       4.064  -4.704  25.149  0.00  0.00    -0.346 OA
BRANCH  14  16
ATOM     16  N   UNL     1       4.782  -3.552  27.074  0.00  0.00    -0.286 N 
ATOM     17  C   UNL     1       5.092  -2.234  26.880  0.00  0.00    +0.167 A 
ATOM     18  N   UNL     1       5.799  -1.696  25.870  0.00  0.00    -0.216 NA
ATOM     19  C   UNL     1       5.885  -0.354  26.019  0.00  0.00    +0.225 A 
ATOM     20  N   UNL     1       5.379   0.418  27.007  0.00  0.00    -0.219 NA
ATOM     21  C   UNL     1       4.671  -0.181  27.992  0.00  0.00    +0.147 A 
ATOM     22  N   UNL     1       4.144   0.611  29.005  0.00  0.00    -0.341 N 
ATOM     23  H   UNL     1       3.932   0.089  29.850  0.00  0.00    +0.144 HD
ATOM     24  H   UNL     1       4.643   1.484  29.106  0.00  0.00    +0.144 HD
ATOM     25  C   UNL     1       4.517  -1.575  27.953  0.00  0.00    +0.147 A 
ATOM     26  N   UNL     1       3.895  -2.467  28.802  0.00  0.00    -0.231 NA
ATOM     27  C   UNL     1       4.064  -3.643  28.235  0.00  0.00    +0.203 A 
ENDBRANCH  14  16
BRANCH  13  28
ATOM     28  O   UNL     1       6.558  -6.384  26.980  0.00  0.00    -0.385 OA
ATOM     29  H   UNL     1       6.736  -6.344  27.942  0.00  0.00    +0.210 HD
ENDBRANCH  13  28
BRANCH  12  30
ATOM     30  O   UNL     1       3.319  -7.477  26.399  0.00  0.00    -0.386 OA
ATOM     31  H   UNL     1       2.660  -6.765  26.487  0.00  0.00    +0.210 HD
ENDBRANCH  12  30
ENDBRANCH  10  11
ENDBRANCH   9  10
ENDBRANCH   5   9
ENDBRANCH   4   5
ENDBRANCH   1   4
BRANCH   1  32
ATOM     32  O   UNL     1       9.625  -2.127  22.520  0.00  0.00    -0.324 OA
BRANCH  32  33
ATOM     33  C   UNL     1       9.357  -1.041  21.660  0.00  0.00    +0.202 C 
BRANCH  33  37
ATOM     34  C   UNL     1       8.471   2.420  22.179  0.00  0.00    +0.439 C 
ATOM     35  C   UNL     1       9.748   2.353  23.022  0.00  0.00    +0.244 C 
ATOM     36  C   UNL     1      10.061   0.872  23.170  0.00  0.00    +0.183 C 
ATOM     37  C   UNL     1       8.918   0.165  22.462  0.00  0.00    +0.182 C 
ATOM     38  O   UNL     1       8.243   1.124  21.631  0.00  0.00    -0.309 OA
BRANCH  34  43
ATOM     39  C   UNL     1       5.033   3.646  23.135  0.00  0.00    +0.104 A 
ATOM     40  C   UNL     1       5.120   3.774  24.538  0.00  0.00    -0.014 A 
ATOM     41  C   UNL     1       6.317   3.325  25.125  0.00  0.00    +0.075 A 
ATOM     42  C   UNL     1       7.385   2.873  24.348  0.00  0.00    +0.312 A 
ATOM     43  N   UNL     1       7.289   2.852  23.001  0.00  0.00    -0.173 N 
ATOM     44  C   UNL     1       6.153   3.258  22.401  0.00  0.00    +0.325 A 
BRANCH  40  45
ATOM     45  C   UNL     1       3.983   4.338  25.396  0.00  0.00    +0.086 C 
ATOM     46  C   UNL     1       2.931   3.294  25.760  0.00  0.00    +0.141 C 
ATOM     47  O   UNL     1       2.989   2.130  25.361  0.00  0.00    -0.297 OA
ATOM     48  C   UNL     1       1.766   3.793  26.598  0.00  0.00    +0.075 C 
ATOM     49  C   UNL     1       2.276   4.505  27.845  0.00  0.00    +0.008 C 
ATOM     50  C   UNL     1       3.275   5.605  27.494  0.00  0.00    +0.001 C 
ATOM     51  C   UNL     1       4.448   5.034  26.695  0.00  0.00    +0.016 C 
ENDBRANCH  40  45
BRANCH  39  55
ATOM     52  N   UNL     1       3.635   5.243  21.943  0.00  0.00    -0.325 N 
ATOM     53  H   UNL     1       4.361   5.947  21.902  0.00  0.00    +0.145 HD
ATOM     54  H   UNL     1       2.829   5.416  21.345  0.00  0.00    +0.145 HD
ATOM     55  C   UNL     1       3.814   3.945  22.342  0.00  0.00    +0.248 C 
ATOM     56  O   UNL     1       2.994   3.085  22.060  0.00  0.00    -0.270 OA
ENDBRANCH  39  55
ENDBRANCH  34  43
BRANCH  36  57
ATOM     57  O   UNL     1      10.004   0.518  24.557  0.00  0.00    -0.386 OA
ATOM     58  H   UNL     1      10.859   0.781  24.953  0.00  0.00    +0.210 HD
ENDBRANCH  36  57
BRANCH  35  59
ATOM     59  O   UNL     1      10.804   3.076  22.377  0.00  0.00    -0.380 OA
ATOM     60  H   UNL     1      10.667   4.039  22.507  0.00  0.00    +0.210 HD
ENDBRANCH  35  59
ENDBRANCH  33  37
ENDBRANCH  32  33
ENDBRANCH   1  32
TORSDOF 17
ENDMDL
