MODEL 1
REMARK VINA RESULT:      -6.3      0.000      0.000
REMARK  Name = 
REMARK  5 active torsions:
REMARK  status: ('A' for Active; 'I' for Inactive)
REMARK    1  A    between atoms: O_1  and  C_2
REMARK    2  A    between atoms: C_2  and  C_4
REMARK    3  A    between atoms: C_9  and  N_10
REMARK    4  A    between atoms: N_11  and  C_12
REMARK    5  A    between atoms: C_15  and  O_16
REMARK                            x       y       z     vdW  Elec       q    Type
REMARK                         _______ _______ _______ _____ _____    ______ ____
ROOT
ATOM      1  C   UNL     1       7.946  -4.401  23.619  0.00  0.00    +0.086 A 
ATOM      2  C   UNL     1       7.547  -3.279  22.868  0.00  0.00    +0.100 A 
ATOM      3  C   UNL     1       6.623  -3.480  21.824  0.00  0.00    +0.030 A 
ATOM      4  C   UNL     1       6.082  -4.739  21.559  0.00  0.00    +0.002 A 
ATOM      5  C   UNL     1       6.470  -5.834  22.321  0.00  0.00    +0.001 A 
ATOM      6  C   UNL     1       7.407  -5.670  23.338  0.00  0.00    +0.017 A 
ENDROOT
BRANCH   1   7
ATOM      7  C   UNL     1       8.961  -4.345  24.708  0.00  0.00    +0.339 C 
ATOM      8  O   UNL     1       8.712  -4.712  25.844  0.00  0.00    -0.245 OA
BRANCH   7   9
ATOM      9  O   UNL     1      10.139  -3.780  24.372  0.00  0.00    -0.477 OA
ATOM     10  H   UNL     1      10.114  -3.231  23.564  0.00  0.00    +0.295 HD
ENDBRANCH   7   9
ENDBRANCH   1   7
BRANCH   2  11
ATOM     11  N   UNL     1       8.090  -2.002  23.155  0.00  0.00    -0.148 NA
ATOM     12  N   UNL     1       9.067  -1.722  22.428  0.00  0.00    -0.149 NA
BRANCH  12  13
ATOM     13  C   UNL     1       9.565  -0.428  22.669  0.00  0.00    +0.086 A 
ATOM     14  C   UNL     1       9.456   0.522  21.646  0.00  0.00    +0.033 A 
ATOM     15  C   UNL     1       9.897   1.831  21.839  0.00  0.00    +0.047 A 
ATOM     16  C   UNL     1      10.455   2.194  23.059  0.00  0.00    +0.117 A 
ATOM     17  C   UNL     1      10.624   1.256  24.072  0.00  0.00    +0.047 A 
ATOM     18  C   UNL     1      10.188  -0.056  23.871  0.00  0.00    +0.033 A 
BRANCH  16  19
ATOM     19  O   UNL     1      10.820   3.494  23.227  0.00  0.00    -0.507 OA
ATOM     20  H   UNL     1      11.234   3.809  22.406  0.00  0.00    +0.292 HD
ENDBRANCH  16  19
ENDBRANCH  12  13
ENDBRANCH   2  11
TORSDOF 5
ENDMDL
MODEL 2
REMARK VINA RESULT:      -6.1      2.507      3.164
REMARK  Name = 
REMARK  5 active torsions:
REMARK  status: ('A' for Active; 'I' for Inactive)
REMARK    1  A    between atoms: O_1  and  C_2
REMARK    2  A    between atoms: C_2  and  C_4
REMARK    3  A    between atoms: C_9  and  N_10
REMARK    4  A    between atoms: N_11  and  C_12
REMARK    5  A    between atoms: C_15  and  O_16
REMARK                            x       y       z     vdW  Elec       q    Type
REMARK                         _______ _______ _______ _____ _____    ______ ____
ROOT
ATOM      1  C   UNL     1       6.031  -5.067  23.116  0.00  0.00    +0.086 A 
ATOM      2  C   UNL     1       6.758  -4.187  23.941  0.00  0.00    +0.100 A 
ATOM      3  C   UNL     1       6.647  -4.351  25.336  0.00  0.00    +0.030 A 
ATOM      4  C   UNL     1       5.877  -5.372  25.894  0.00  0.00    +0.002 A 
ATOM      5  C   UNL     1       5.183  -6.246  25.067  0.00  0.00    +0.001 A 
ATOM      6  C   UNL     1       5.248  -6.088  23.685  0.00  0.00    +0.017 A 
ENDROOT
BRANCH   1   7
ATOM      7  C   UNL     1       6.006  -4.971  21.630  0.00  0.00    +0.339 C 
ATOM      8  O   UNL     1       6.398  -5.878  20.915  0.00  0.00    -0.245 OA
BRANCH   7   9
ATOM      9  O   UNL     1       5.605  -3.782  21.135  0.00  0.00    -0.477 OA
ATOM     10  H   UNL     1       4.815  -3.824  20.561  0.00  0.00    +0.295 HD
ENDBRANCH   7   9
ENDBRANCH   1   7
BRANCH   2  11
ATOM     11  N   UNL     1       7.548  -3.162  23.365  0.00  0.00    -0.148 NA
ATOM     12  N   UNL     1       6.941  -2.072  23.294  0.00  0.00    -0.149 NA
BRANCH  12  13
ATOM     13  C   UNL     1       7.748  -1.038  22.782  0.00  0.00    +0.086 A 
ATOM     14  C   UNL     1       7.352   0.284  23.016  0.00  0.00    +0.033 A 
ATOM     15  C   UNL     1       8.131   1.352  22.568  0.00  0.00    +0.047 A 
ATOM     16  C   UNL     1       9.308   1.097  21.875  0.00  0.00    +0.117 A 
ATOM     17  C   UNL     1       9.695  -0.207  21.582  0.00  0.00    +0.047 A 
ATOM     18  C   UNL     1       8.908  -1.271  22.027  0.00  0.00    +0.033 A 
BRANCH  16  19
ATOM     19  O   UNL     1      10.069   2.163  21.504  0.00  0.00    -0.507 OA
ATOM     20  H   UNL     1      10.994   1.873  21.428  0.00  0.00    +0.292 HD
ENDBRANCH  16  19
ENDBRANCH  12  13
ENDBRANCH   2  11
TORSDOF 5
ENDMDL
MODEL 3
REMARK VINA RESULT:      -5.9      1.858      2.329
REMARK  Name = 
REMARK  5 active torsions:
REMARK  status: ('A' for Active; 'I' for Inactive)
REMARK    1  A    between atoms: O_1  and  C_2
REMARK    2  A    between atoms: C_2  and  C_4
REMARK    3  A    between atoms: C_9  and  N_10
REMARK    4  A    between atoms: N_11  and  C_12
REMARK    5  A    between atoms: C_15  and  O_16
REMARK                            x       y       z     vdW  Elec       q    Type
REMARK                         _______ _______ _______ _____ _____    ______ ____
ROOT
ATOM      1  C   UNL     1       7.029  -4.552  25.373  0.00  0.00    +0.086 A 
ATOM      2  C   UNL     1       6.814  -4.187  24.029  0.00  0.00    +0.100 A 
ATOM      3  C   UNL     1       5.829  -4.889  23.307  0.00  0.00    +0.030 A 
ATOM      4  C   UNL     1       5.057  -5.887  23.902  0.00  0.00    +0.002 A 
ATOM      5  C   UNL     1       5.266  -6.222  25.234  0.00  0.00    +0.001 A 
ATOM      6  C   UNL     1       6.255  -5.568  25.963  0.00  0.00    +0.017 A 
ENDROOT
BRANCH   1   7
ATOM      7  C   UNL     1       8.077  -3.939  26.234  0.00  0.00    +0.339 C 
ATOM      8  O   UNL     1       8.778  -4.608  26.977  0.00  0.00    -0.245 OA
BRANCH   7   9
ATOM      9  O   UNL     1       8.139  -2.592  26.201  0.00  0.00    -0.477 OA
ATOM     10  H   UNL     1       7.684  -2.181  25.441  0.00  0.00    +0.295 HD
ENDBRANCH   7   9
ENDBRANCH   1   7
BRANCH   2  11
ATOM     11  N   UNL     1       7.592  -3.161  23.439  0.00  0.00    -0.148 NA
ATOM     12  N   UNL     1       6.955  -2.094  23.305  0.00  0.00    -0.149 NA
BRANCH  12  13
ATOM     13  C   UNL     1       7.747  -1.056  22.779  0.00  0.00    +0.086 A 
ATOM     14  C   UNL     1       7.337   0.264  23.003  0.00  0.00    +0.033 A 
ATOM     15  C   UNL     1       8.100   1.336  22.540  0.00  0.00    +0.047 A 
ATOM     16  C   UNL     1       9.277   1.088  21.843  0.00  0.00    +0.117 A 
ATOM     17  C   UNL     1       9.678  -0.213  21.561  0.00  0.00    +0.047 A 
ATOM     18  C   UNL     1       8.906  -1.283  22.021  0.00  0.00    +0.033 A 
BRANCH  16  19
ATOM     19  O   UNL     1      10.023   2.159  21.458  0.00  0.00    -0.507 OA
ATOM     20  H   UNL     1      10.932   2.037  21.781  0.00  0.00    +0.292 HD
ENDBRANCH  16  19
ENDBRANCH  12  13
ENDBRANCH   2  11
TORSDOF 5
ENDMDL
MODEL 4
REMARK VINA RESULT:      -5.8      2.114      6.435
REMARK  Name = 
REMARK  5 active torsions:
REMARK  status: ('A' for Active; 'I' for Inactive)
REMARK    1  A    between atoms: O_1  and  C_2
REMARK    2  A    between atoms: C_2  and  C_4
REMARK    3  A    between atoms: C_9  and  N_10
REMARK    4  A    between atoms: N_11  and  C_12
REMARK    5  A    between atoms: C_15  and  O_16
REMARK                            x       y       z     vdW  Elec       q    Type
REMARK                         _______ _______ _______ _____ _____    ______ ____
ROOT
ATOM      1  C   UNL     1       9.114  -0.396  22.709  0.00  0.00    +0.086 A 
ATOM      2  C   UNL     1       7.707  -0.389  22.780  0.00  0.00    +0.100 A 
ATOM      3  C   UNL     1       7.041   0.823  22.514  0.00  0.00    +0.030 A 
ATOM      4  C   UNL     1       7.738   1.977  22.153  0.00  0.00    +0.002 A 
ATOM      5  C   UNL     1       9.124   1.950  22.067  0.00  0.00    +0.001 A 
ATOM      6  C   UNL     1       9.811   0.774  22.356  0.00  0.00    +0.017 A 
ENDROOT
BRANCH   1   7
ATOM      7  C   UNL     1       9.948  -1.588  23.026  0.00  0.00    +0.339 C 
ATOM      8  O   UNL     1      10.868  -1.944  22.308  0.00  0.00    -0.245 OA
BRANCH   7   9
ATOM      9  O   UNL     1       9.562  -2.294  24.109  0.00  0.00    -0.477 OA
ATOM     10  H   UNL     1      10.209  -2.307  24.840  0.00  0.00    +0.295 HD
ENDBRANCH   7   9
ENDBRANCH   1   7
BRANCH   2  11
ATOM     11  N   UNL     1       7.008  -1.570  23.133  0.00  0.00    -0.148 NA
ATOM     12  N   UNL     1       6.995  -2.412  22.210  0.00  0.00    -0.149 NA
BRANCH  12  13
ATOM     13  C   UNL     1       6.357  -3.610  22.582  0.00  0.00    +0.086 A 
ATOM     14  C   UNL     1       6.827  -4.807  22.028  0.00  0.00    +0.033 A 
ATOM     15  C   UNL     1       6.260  -6.031  22.388  0.00  0.00    +0.047 A 
ATOM     16  C   UNL     1       5.215  -6.058  23.303  0.00  0.00    +0.117 A 
ATOM     17  C   UNL     1       4.694  -4.879  23.827  0.00  0.00    +0.047 A 
ATOM     18  C   UNL     1       5.261  -3.657  23.457  0.00  0.00    +0.033 A 
BRANCH  16  19
ATOM     19  O   UNL     1       4.727  -7.274  23.672  0.00  0.00    -0.507 OA
ATOM     20  H   UNL     1       5.430  -7.937  23.561  0.00  0.00    +0.292 HD
ENDBRANCH  16  19
ENDBRANCH  12  13
ENDBRANCH   2  11
TORSDOF 5
ENDMDL
MODEL 5
REMARK VINA RESULT:      -5.7      2.386      3.108
REMARK  Name = 
REMARK  5 active torsions:
REMARK  status: ('A' for Active; 'I' for Inactive)
REMARK    1  A    between atoms: O_1  and  C_2
REMARK    2  A    between atoms: C_2  and  C_4
REMARK    3  A    between atoms: C_9  and  N_10
REMARK    4  A    between atoms: N_11  and  C_12
REMARK    5  A    between atoms: C_15  and  O_16
REMARK                            x       y       z     vdW  Elec       q    Type
REMARK                         _______ _______ _______ _____ _____    ______ ____
ROOT
ATOM      1  C   UNL     1       6.228  -5.586  26.029  0.00  0.00    +0.086 A 
ATOM      2  C   UNL     1       6.564  -4.883  24.856  0.00  0.00    +0.100 A 
ATOM      3  C   UNL     1       5.889  -5.226  23.668  0.00  0.00    +0.030 A 
ATOM      4  C   UNL     1       4.890  -6.200  23.648  0.00  0.00    +0.002 A 
ATOM      5  C   UNL     1       4.554  -6.870  24.818  0.00  0.00    +0.001 A 
ATOM      6  C   UNL     1       5.228  -6.575  26.000  0.00  0.00    +0.017 A 
ENDROOT
BRANCH   1   7
ATOM      7  C   UNL     1       6.902  -5.372  27.339  0.00  0.00    +0.339 C 
ATOM      8  O   UNL     1       6.340  -4.829  28.276  0.00  0.00    -0.245 OA
BRANCH   7   9
ATOM      9  O   UNL     1       8.199  -5.739  27.389  0.00  0.00    -0.477 OA
ATOM     10  H   UNL     1       8.753  -5.384  26.665  0.00  0.00    +0.295 HD
ENDBRANCH   7   9
ENDBRANCH   1   7
BRANCH   2  11
ATOM     11  N   UNL     1       7.569  -3.885  24.889  0.00  0.00    -0.148 NA
ATOM     12  N   UNL     1       7.550  -3.153  23.876  0.00  0.00    -0.149 NA
BRANCH  12  13
ATOM     13  C   UNL     1       8.506  -2.121  23.939  0.00  0.00    +0.086 A 
ATOM     14  C   UNL     1       8.592  -1.373  25.120  0.00  0.00    +0.033 A 
ATOM     15  C   UNL     1       9.545  -0.364  25.256  0.00  0.00    +0.047 A 
ATOM     16  C   UNL     1      10.413  -0.095  24.205  0.00  0.00    +0.117 A 
ATOM     17  C   UNL     1      10.312  -0.786  23.003  0.00  0.00    +0.047 A 
ATOM     18  C   UNL     1       9.351  -1.791  22.869  0.00  0.00    +0.033 A 
BRANCH  16  19
ATOM     19  O   UNL     1      11.365   0.858  24.398  0.00  0.00    -0.507 OA
ATOM     20  H   UNL     1      12.088   0.708  23.764  0.00  0.00    +0.292 HD
ENDBRANCH  16  19
ENDBRANCH  12  13
ENDBRANCH   2  11
TORSDOF 5
ENDMDL
MODEL 6
REMARK VINA RESULT:      -5.7      2.316      6.391
REMARK  Name = 
REMARK  5 active torsions:
REMARK  status: ('A' for Active; 'I' for Inactive)
REMARK    1  A    between atoms: O_1  and  C_2
REMARK    2  A    between atoms: C_2  and  C_4
REMARK    3  A    between atoms: C_9  and  N_10
REMARK    4  A    between atoms: N_11  and  C_12
REMARK    5  A    between atoms: C_15  and  O_16
REMARK                            x       y       z     vdW  Elec       q    Type
REMARK                         _______ _______ _______ _____ _____    ______ ____
ROOT
ATOM      1  C   UNL     1       8.816   0.440  24.244  0.00  0.00    +0.086 A 
ATOM      2  C   UNL     1       8.431  -0.038  22.976  0.00  0.00    +0.100 A 
ATOM      3  C   UNL     1       8.997   0.577  21.842  0.00  0.00    +0.030 A 
ATOM      4  C   UNL     1       9.939   1.600  21.957  0.00  0.00    +0.002 A 
ATOM      5  C   UNL     1      10.324   2.047  23.215  0.00  0.00    +0.001 A 
ATOM      6  C   UNL     1       9.757   1.480  24.353  0.00  0.00    +0.017 A 
ENDROOT
BRANCH   1   7
ATOM      7  C   UNL     1       8.253  -0.073  25.523  0.00  0.00    +0.339 C 
ATOM      8  O   UNL     1       7.788   0.671  26.371  0.00  0.00    -0.245 OA
BRANCH   7   9
ATOM      9  O   UNL     1       8.371  -1.403  25.715  0.00  0.00    -0.477 OA
ATOM     10  H   UNL     1       8.956  -1.659  26.455  0.00  0.00    +0.295 HD
ENDBRANCH   7   9
ENDBRANCH   1   7
BRANCH   2  11
ATOM     11  N   UNL     1       7.486  -1.088  22.870  0.00  0.00    -0.148 NA
ATOM     12  N   UNL     1       8.024  -2.198  22.670  0.00  0.00    -0.149 NA
BRANCH  12  13
ATOM     13  C   UNL     1       7.090  -3.250  22.630  0.00  0.00    +0.086 A 
ATOM     14  C   UNL     1       5.784  -2.991  23.064  0.00  0.00    +0.033 A 
ATOM     15  C   UNL     1       4.804  -3.982  23.011  0.00  0.00    +0.047 A 
ATOM     16  C   UNL     1       5.132  -5.243  22.527  0.00  0.00    +0.117 A 
ATOM     17  C   UNL     1       6.434  -5.543  22.141  0.00  0.00    +0.047 A 
ATOM     18  C   UNL     1       7.413  -4.548  22.203  0.00  0.00    +0.033 A 
BRANCH  16  19
ATOM     19  O   UNL     1       4.135  -6.166  22.438  0.00  0.00    -0.507 OA
ATOM     20  H   UNL     1       4.516  -7.005  22.126  0.00  0.00    +0.292 HD
ENDBRANCH  16  19
ENDBRANCH  12  13
ENDBRANCH   2  11
TORSDOF 5
ENDMDL
MODEL 7
REMARK VINA RESULT:      -5.6      2.488      6.809
REMARK  Name = 
REMARK  5 active torsions:
REMARK  status: ('A' for Active; 'I' for Inactive)
REMARK    1  A    between atoms: O_1  and  C_2
REMARK    2  A    between atoms: C_2  and  C_4
REMARK    3  A    between atoms: C_9  and  N_10
REMARK    4  A    between atoms: N_11  and  C_12
REMARK    5  A    between atoms: C_15  and  O_16
REMARK                            x       y       z     vdW  Elec       q    Type
REMARK                         _______ _______ _______ _____ _____    ______ ____
ROOT
ATOM      1  C   UNL     1       8.452   1.036  23.215  0.00  0.00    +0.086 A 
ATOM      2  C   UNL     1       8.974  -0.261  23.386  0.00  0.00    +0.100 A 
ATOM      3  C   UNL     1      10.260  -0.383  23.949  0.00  0.00    +0.030 A 
ATOM      4  C   UNL     1      10.987   0.734  24.363  0.00  0.00    +0.002 A 
ATOM      5  C   UNL     1      10.450   2.006  24.207  0.00  0.00    +0.001 A 
ATOM      6  C   UNL     1       9.195   2.159  23.625  0.00  0.00    +0.017 A 
ENDROOT
BRANCH   1   7
ATOM      7  C   UNL     1       7.136   1.316  22.579  0.00  0.00    +0.339 C 
ATOM      8  O   UNL     1       6.974   2.247  21.806  0.00  0.00    -0.245 OA
BRANCH   7   9
ATOM      9  O   UNL     1       6.119   0.527  22.981  0.00  0.00    -0.477 OA
ATOM     10  H   UNL     1       6.387  -0.240  23.525  0.00  0.00    +0.295 HD
ENDBRANCH   7   9
ENDBRANCH   1   7
BRANCH   2  11
ATOM     11  N   UNL     1       8.222  -1.389  22.976  0.00  0.00    -0.148 NA
ATOM     12  N   UNL     1       7.842  -2.087  23.941  0.00  0.00    -0.149 NA
BRANCH  12  13
ATOM     13  C   UNL     1       7.040  -3.171  23.539  0.00  0.00    +0.086 A 
ATOM     14  C   UNL     1       5.663  -2.957  23.400  0.00  0.00    +0.033 A 
ATOM     15  C   UNL     1       4.822  -3.983  22.966  0.00  0.00    +0.047 A 
ATOM     16  C   UNL     1       5.359  -5.232  22.677  0.00  0.00    +0.117 A 
ATOM     17  C   UNL     1       6.714  -5.485  22.859  0.00  0.00    +0.047 A 
ATOM     18  C   UNL     1       7.550  -4.457  23.299  0.00  0.00    +0.033 A 
BRANCH  16  19
ATOM     19  O   UNL     1       4.515  -6.189  22.202  0.00  0.00    -0.507 OA
ATOM     20  H   UNL     1       3.611  -5.830  22.195  0.00  0.00    +0.292 HD
ENDBRANCH  16  19
ENDBRANCH  12  13
ENDBRANCH   2  11
TORSDOF 5
ENDMDL
MODEL 8
REMARK VINA RESULT:      -5.6      1.888      2.133
REMARK  Name = 
REMARK  5 active torsions:
REMARK  status: ('A' for Active; 'I' for Inactive)
REMARK    1  A    between atoms: O_1  and  C_2
REMARK    2  A    between atoms: C_2  and  C_4
REMARK    3  A    between atoms: C_9  and  N_10
REMARK    4  A    between atoms: N_11  and  C_12
REMARK    5  A    between atoms: C_15  and  O_16
REMARK                            x       y       z     vdW  Elec       q    Type
REMARK                         _______ _______ _______ _____ _____    ______ ____
ROOT
ATOM      1  C   UNL     1       5.823  -3.785  23.770  0.00  0.00    +0.086 A 
ATOM      2  C   UNL     1       6.835  -3.488  22.837  0.00  0.00    +0.100 A 
ATOM      3  C   UNL     1       7.272  -4.525  21.990  0.00  0.00    +0.030 A 
ATOM      4  C   UNL     1       6.703  -5.798  22.036  0.00  0.00    +0.002 A 
ATOM      5  C   UNL     1       5.691  -6.070  22.948  0.00  0.00    +0.001 A 
ATOM      6  C   UNL     1       5.261  -5.074  23.820  0.00  0.00    +0.017 A 
ENDROOT
BRANCH   1   7
ATOM      7  C   UNL     1       5.309  -2.806  24.768  0.00  0.00    +0.339 C 
ATOM      8  O   UNL     1       4.117  -2.588  24.907  0.00  0.00    -0.245 OA
BRANCH   7   9
ATOM      9  O   UNL     1       6.253  -2.116  25.440  0.00  0.00    -0.477 OA
ATOM     10  H   UNL     1       6.972  -1.757  24.883  0.00  0.00    +0.295 HD
ENDBRANCH   7   9
ENDBRANCH   1   7
BRANCH   2  11
ATOM     11  N   UNL     1       7.396  -2.188  22.787  0.00  0.00    -0.148 NA
ATOM     12  N   UNL     1       8.541  -2.142  23.286  0.00  0.00    -0.149 NA
BRANCH  12  13
ATOM     13  C   UNL     1       9.124  -0.865  23.178  0.00  0.00    +0.086 A 
ATOM     14  C   UNL     1       9.204  -0.282  21.907  0.00  0.00    +0.033 A 
ATOM     15  C   UNL     1       9.737   0.997  21.742  0.00  0.00    +0.047 A 
ATOM     16  C   UNL     1      10.198   1.695  22.851  0.00  0.00    +0.117 A 
ATOM     17  C   UNL     1      10.180   1.117  24.116  0.00  0.00    +0.047 A 
ATOM     18  C   UNL     1       9.652  -0.167  24.275  0.00  0.00    +0.033 A 
BRANCH  16  19
ATOM     19  O   UNL     1      10.657   2.962  22.657  0.00  0.00    -0.507 OA
ATOM     20  H   UNL     1       9.898   3.569  22.649  0.00  0.00    +0.292 HD
ENDBRANCH  16  19
ENDBRANCH  12  13
ENDBRANCH   2  11
TORSDOF 5
ENDMDL
MODEL 9
REMARK VINA RESULT:      -5.6      2.051      2.256
REMARK  Name = 
REMARK  5 active torsions:
REMARK  status: ('A' for Active; 'I' for Inactive)
REMARK    1  A    between atoms: O_1  and  C_2
REMARK    2  A    between atoms: C_2  and  C_4
REMARK    3  A    between atoms: C_9  and  N_10
REMARK    4  A    between atoms: N_11  and  C_12
REMARK    5  A    between atoms: C_15  and  O_16
REMARK                            x       y       z     vdW  Elec       q    Type
REMARK                         _______ _______ _______ _____ _____    ______ ____
ROOT
ATOM      1  C   UNL     1       6.785  -4.341  24.399  0.00  0.00    +0.086 A 
ATOM      2  C   UNL     1       6.261  -3.037  24.305  0.00  0.00    +0.100 A 
ATOM      3  C   UNL     1       4.992  -2.797  24.866  0.00  0.00    +0.030 A 
ATOM      4  C   UNL     1       4.284  -3.799  25.530  0.00  0.00    +0.002 A 
ATOM      5  C   UNL     1       4.823  -5.075  25.633  0.00  0.00    +0.001 A 
ATOM      6  C   UNL     1       6.061  -5.350  25.059  0.00  0.00    +0.017 A 
ENDROOT
BRANCH   1   7
ATOM      7  C   UNL     1       8.085  -4.751  23.797  0.00  0.00    +0.339 C 
ATOM      8  O   UNL     1       8.182  -5.722  23.065  0.00  0.00    -0.245 OA
BRANCH   7   9
ATOM      9  O   UNL     1       9.156  -4.029  24.187  0.00  0.00    -0.477 OA
ATOM     10  H   UNL     1       9.968  -4.190  23.668  0.00  0.00    +0.295 HD
ENDBRANCH   7   9
ENDBRANCH   1   7
BRANCH   2  11
ATOM     11  N   UNL     1       6.995  -2.022  23.642  0.00  0.00    -0.148 NA
ATOM     12  N   UNL     1       7.678  -1.334  24.430  0.00  0.00    -0.149 NA
BRANCH  12  13
ATOM     13  C   UNL     1       8.458  -0.368  23.765  0.00  0.00    +0.086 A 
ATOM     14  C   UNL     1       8.646  -0.508  22.385  0.00  0.00    +0.033 A 
ATOM     15  C   UNL     1       9.375   0.438  21.665  0.00  0.00    +0.047 A 
ATOM     16  C   UNL     1       9.926   1.528  22.328  0.00  0.00    +0.117 A 
ATOM     17  C   UNL     1       9.799   1.662  23.707  0.00  0.00    +0.047 A 
ATOM     18  C   UNL     1       9.074   0.707  24.424  0.00  0.00    +0.033 A 
BRANCH  16  19
ATOM     19  O   UNL     1      10.581   2.459  21.582  0.00  0.00    -0.507 OA
ATOM     20  H   UNL     1      11.233   2.005  21.022  0.00  0.00    +0.292 HD
ENDBRANCH  16  19
ENDBRANCH  12  13
ENDBRANCH   2  11
TORSDOF 5
ENDMDL
