MODEL 1
REMARK VINA RESULT:      -7.1      0.000      0.000
REMARK  Name = 
REMARK  13 active torsions:
REMARK  status: ('A' for Active; 'I' for Inactive)
REMARK    1  A    between atoms: C_2  and  C_3
REMARK    2  A    between atoms: C_2  and  N_17
REMARK    3  A    between atoms: C_2  and  C_33
REMARK    4  A    between atoms: C_3  and  C_4
REMARK    5  A    between atoms: C_7  and  C_10
REMARK    6  A    between atoms: C_10  and  P_13
REMARK    7  A    between atoms: P_13  and  O_14
REMARK    8  A    between atoms: P_13  and  O_15
REMARK    9  A    between atoms: C_18  and  C_20
REMARK   10  A    between atoms: C_20  and  C_22
REMARK   11  A    between atoms: C_20  and  N_29
REMARK   12  A    between atoms: C_22  and  C_23
REMARK   13  A    between atoms: C_30  and  C_31
REMARK                            x       y       z     vdW  Elec       q    Type
REMARK                         _______ _______ _______ _____ _____    ______ ____
ROOT
ATOM      1  C   UNL     1       7.304   0.969  26.585  0.00  0.00    +0.163 C 
ENDROOT
BRANCH   1   2
ATOM      2  C   UNL     1       6.812   1.711  27.836  0.00  0.00    +0.231 C 
ATOM      3  O   UNL     1       5.716   2.264  27.913  0.00  0.00    -0.274 OA
ATOM      4  N   UNL     1       7.593   1.583  28.951  0.00  0.00    -0.328 N 
ATOM      5  H   UNL     1       7.296   2.035  29.805  0.00  0.00    +0.145 HD
ATOM      6  H   UNL     1       8.476   1.080  28.958  0.00  0.00    +0.145 HD
ENDBRANCH   1   2
BRANCH   1   7
ATOM      7  N   UNL     1       8.202   1.875  25.874  0.00  0.00    -0.302 N 
ATOM      8  H   UNL     1       9.113   2.032  26.290  0.00  0.00    +0.150 HD
ATOM      9  C   UNL     1       7.865   2.428  24.663  0.00  0.00    +0.234 C 
ATOM     10  O   UNL     1       6.804   2.143  24.100  0.00  0.00    -0.274 OA
BRANCH   9  11
ATOM     11  C   UNL     1       8.915   3.343  23.993  0.00  0.00    +0.163 C 
BRANCH  11  12
ATOM     12  N   UNL     1       9.119   4.480  24.894  0.00  0.00    -0.304 N 
ATOM     13  H   UNL     1       8.887   4.322  25.871  0.00  0.00    +0.149 HD
ATOM     14  C   UNL     1       9.329   5.758  24.446  0.00  0.00    +0.211 C 
ATOM     15  O   UNL     1       9.396   6.054  23.257  0.00  0.00    -0.276 OA
ATOM     16  C   UNL     1       9.520   6.776  25.536  0.00  0.00    +0.109 C 
ENDBRANCH  11  12
BRANCH  11  17
ATOM     17  C   UNL     1      10.223   2.637  23.590  0.00  0.00    +0.067 C 
BRANCH  17  18
ATOM     18  C   UNL     1      10.088   1.222  23.071  0.00  0.00    -0.045 A 
ATOM     19  C   UNL     1       9.542   0.993  21.801  0.00  0.00    +0.004 A 
ATOM     20  C   UNL     1       9.358  -0.308  21.331  0.00  0.00    +0.000 A 
ATOM     21  C   UNL     1       9.730  -1.396  22.121  0.00  0.00    +0.000 A 
ATOM     22  C   UNL     1      10.285  -1.181  23.379  0.00  0.00    +0.000 A 
ATOM     23  C   UNL     1      10.456   0.120  23.854  0.00  0.00    +0.004 A 
ENDBRANCH  17  18
ENDBRANCH  11  17
ENDBRANCH   9  11
ENDBRANCH   1   7
BRANCH   1  24
ATOM     24  C   UNL     1       8.059  -0.316  26.943  0.00  0.00    +0.067 C 
BRANCH  24  25
ATOM     25  C   UNL     1       7.704  -1.462  26.030  0.00  0.00    -0.045 A 
ATOM     26  C   UNL     1       6.780  -1.271  24.997  0.00  0.00    +0.004 A 
ATOM     27  C   UNL     1       6.556  -2.278  24.067  0.00  0.00    +0.010 A 
ATOM     28  C   UNL     1       7.259  -3.484  24.154  0.00  0.00    +0.033 A 
ATOM     29  C   UNL     1       8.134  -3.699  25.225  0.00  0.00    +0.010 A 
ATOM     30  C   UNL     1       8.349  -2.697  26.164  0.00  0.00    +0.004 A 
BRANCH  28  31
ATOM     31  C   UNL     1       7.225  -4.453  23.012  0.00  0.00    +0.371 C 
ATOM     32  F   UNL     1       7.957  -5.591  23.206  0.00  0.00    -0.187 F 
ATOM     33  F   UNL     1       7.621  -3.959  21.802  0.00  0.00    -0.187 F 
BRANCH  31  34
ATOM     34  P   UNL     1       5.564  -5.165  22.722  0.00  0.00    +0.401 P 
ATOM     35  O   UNL     1       4.159  -5.766  22.477  0.00  0.00    -0.252 OA
BRANCH  34  36
ATOM     36  O   UNL     1       6.307  -6.540  22.132  0.00  0.00    -0.320 OA
ATOM     37  H   UNL     1       6.119  -7.349  22.656  0.00  0.00    +0.220 HD
ENDBRANCH  34  36
BRANCH  34  38
ATOM     38  O   UNL     1       5.569  -4.365  21.258  0.00  0.00    -0.320 OA
ATOM     39  H   UNL     1       5.742  -5.006  20.537  0.00  0.00    +0.220 HD
ENDBRANCH  34  38
ENDBRANCH  31  34
ENDBRANCH  28  31
ENDBRANCH  24  25
ENDBRANCH   1  24
TORSDOF 12
ENDMDL
MODEL 2
REMARK VINA RESULT:      -6.7      2.143      2.588
REMARK  Name = 
REMARK  13 active torsions:
REMARK  status: ('A' for Active; 'I' for Inactive)
REMARK    1  A    between atoms: C_2  and  C_3
REMARK    2  A    between atoms: C_2  and  N_17
REMARK    3  A    between atoms: C_2  and  C_33
REMARK    4  A    between atoms: C_3  and  C_4
REMARK    5  A    between atoms: C_7  and  C_10
REMARK    6  A    between atoms: C_10  and  P_13
REMARK    7  A    between atoms: P_13  and  O_14
REMARK    8  A    between atoms: P_13  and  O_15
REMARK    9  A    between atoms: C_18  and  C_20
REMARK   10  A    between atoms: C_20  and  C_22
REMARK   11  A    between atoms: C_20  and  N_29
REMARK   12  A    between atoms: C_22  and  C_23
REMARK   13  A    between atoms: C_30  and  C_31
REMARK                            x       y       z     vdW  Elec       q    Type
REMARK                         _______ _______ _______ _____ _____    ______ ____
ROOT
ATOM      1  C   UNL     1       6.222   1.687  23.790  0.00  0.00    +0.163 C 
ENDROOT
BRANCH   1   2
ATOM      2  C   UNL     1       5.340   2.943  23.844  0.00  0.00    +0.231 C 
ATOM      3  O   UNL     1       5.161   3.692  22.884  0.00  0.00    -0.274 OA
ATOM      4  N   UNL     1       4.605   3.107  24.985  0.00  0.00    -0.328 N 
ATOM      5  H   UNL     1       3.992   3.908  25.056  0.00  0.00    +0.145 HD
ATOM      6  H   UNL     1       4.666   2.480  25.782  0.00  0.00    +0.145 HD
ENDBRANCH   1   2
BRANCH   1   7
ATOM      7  N   UNL     1       7.609   2.132  23.903  0.00  0.00    -0.302 N 
ATOM      8  H   UNL     1       7.926   2.401  24.827  0.00  0.00    +0.150 HD
ATOM      9  C   UNL     1       8.466   2.114  22.831  0.00  0.00    +0.234 C 
ATOM     10  O   UNL     1       8.112   1.674  21.732  0.00  0.00    -0.274 OA
BRANCH   9  11
ATOM     11  C   UNL     1       9.919   2.575  23.085  0.00  0.00    +0.163 C 
BRANCH  11  12
ATOM     12  N   UNL     1       9.849   3.980  23.494  0.00  0.00    -0.304 N 
ATOM     13  H   UNL     1       8.919   4.387  23.533  0.00  0.00    +0.149 HD
ATOM     14  C   UNL     1      10.948   4.796  23.547  0.00  0.00    +0.211 C 
ATOM     15  O   UNL     1      12.086   4.414  23.290  0.00  0.00    -0.276 OA
ATOM     16  C   UNL     1      10.659   6.202  23.996  0.00  0.00    +0.109 C 
ENDBRANCH  11  12
BRANCH  11  17
ATOM     17  C   UNL     1      10.714   1.690  24.064  0.00  0.00    +0.067 C 
BRANCH  17  18
ATOM     18  C   UNL     1      10.349   0.222  24.087  0.00  0.00    -0.045 A 
ATOM     19  C   UNL     1      10.589  -0.576  22.961  0.00  0.00    +0.004 A 
ATOM     20  C   UNL     1      10.206  -1.918  22.946  0.00  0.00    +0.000 A 
ATOM     21  C   UNL     1       9.590  -2.481  24.062  0.00  0.00    +0.000 A 
ATOM     22  C   UNL     1       9.359  -1.703  25.192  0.00  0.00    +0.000 A 
ATOM     23  C   UNL     1       9.729  -0.357  25.201  0.00  0.00    +0.004 A 
ENDBRANCH  17  18
ENDBRANCH  11  17
ENDBRANCH   9  11
ENDBRANCH   1   7
BRANCH   1  24
ATOM     24  C   UNL     1       5.905   0.717  24.933  0.00  0.00    +0.067 C 
BRANCH  24  25
ATOM     25  C   UNL     1       5.863  -0.717  24.472  0.00  0.00    -0.045 A 
ATOM     26  C   UNL     1       6.313  -1.051  23.190  0.00  0.00    +0.004 A 
ATOM     27  C   UNL     1       6.411  -2.385  22.811  0.00  0.00    +0.010 A 
ATOM     28  C   UNL     1       6.069  -3.399  23.712  0.00  0.00    +0.033 A 
ATOM     29  C   UNL     1       5.558  -3.062  24.970  0.00  0.00    +0.010 A 
ATOM     30  C   UNL     1       5.446  -1.728  25.346  0.00  0.00    +0.004 A 
BRANCH  28  31
ATOM     31  C   UNL     1       6.429  -4.821  23.409  0.00  0.00    +0.371 C 
ATOM     32  F   UNL     1       5.631  -5.753  24.010  0.00  0.00    -0.187 F 
ATOM     33  F   UNL     1       7.712  -5.185  23.705  0.00  0.00    -0.187 F 
BRANCH  31  34
ATOM     34  P   UNL     1       6.197  -5.262  21.647  0.00  0.00    +0.401 P 
ATOM     35  O   UNL     1       6.001  -5.633  20.158  0.00  0.00    -0.252 OA
BRANCH  34  36
ATOM     36  O   UNL     1       5.021  -6.349  22.122  0.00  0.00    -0.320 OA
ATOM     37  H   UNL     1       5.376  -7.215  22.419  0.00  0.00    +0.220 HD
ENDBRANCH  34  36
BRANCH  34  38
ATOM     38  O   UNL     1       7.462  -6.332  21.836  0.00  0.00    -0.320 OA
ATOM     39  H   UNL     1       8.269  -5.841  22.098  0.00  0.00    +0.220 HD
ENDBRANCH  34  38
ENDBRANCH  31  34
ENDBRANCH  28  31
ENDBRANCH  24  25
ENDBRANCH   1  24
TORSDOF 12
ENDMDL
MODEL 3
REMARK VINA RESULT:      -6.5      4.198      8.353
REMARK  Name = 
REMARK  13 active torsions:
REMARK  status: ('A' for Active; 'I' for Inactive)
REMARK    1  A    between atoms: C_2  and  C_3
REMARK    2  A    between atoms: C_2  and  N_17
REMARK    3  A    between atoms: C_2  and  C_33
REMARK    4  A    between atoms: C_3  and  C_4
REMARK    5  A    between atoms: C_7  and  C_10
REMARK    6  A    between atoms: C_10  and  P_13
REMARK    7  A    between atoms: P_13  and  O_14
REMARK    8  A    between atoms: P_13  and  O_15
REMARK    9  A    between atoms: C_18  and  C_20
REMARK   10  A    between atoms: C_20  and  C_22
REMARK   11  A    between atoms: C_20  and  N_29
REMARK   12  A    between atoms: C_22  and  C_23
REMARK   13  A    between atoms: C_30  and  C_31
REMARK                            x       y       z     vdW  Elec       q    Type
REMARK                         _______ _______ _______ _____ _____    ______ ____
ROOT
ATOM      1  C   UNL     1       6.351  -4.407  22.645  0.00  0.00    +0.163 C 
ENDROOT
BRANCH   1   2
ATOM      2  C   UNL     1       6.048  -5.471  21.581  0.00  0.00    +0.231 C 
ATOM      3  O   UNL     1       5.948  -5.225  20.379  0.00  0.00    -0.274 OA
ATOM      4  N   UNL     1       6.065  -6.768  22.014  0.00  0.00    -0.328 N 
ATOM      5  H   UNL     1       5.894  -7.505  21.342  0.00  0.00    +0.145 HD
ATOM      6  H   UNL     1       6.210  -7.030  22.984  0.00  0.00    +0.145 HD
ENDBRANCH   1   2
BRANCH   1   7
ATOM      7  N   UNL     1       5.829  -4.908  23.914  0.00  0.00    -0.302 N 
ATOM      8  H   UNL     1       6.311  -5.700  24.323  0.00  0.00    +0.150 HD
ATOM      9  C   UNL     1       4.787  -4.293  24.563  0.00  0.00    +0.234 C 
ATOM     10  O   UNL     1       4.277  -3.257  24.124  0.00  0.00    -0.274 OA
BRANCH   9  11
ATOM     11  C   UNL     1       4.349  -4.897  25.917  0.00  0.00    +0.163 C 
BRANCH  11  12
ATOM     12  N   UNL     1       3.924  -6.273  25.646  0.00  0.00    -0.304 N 
ATOM     13  H   UNL     1       4.667  -6.937  25.444  0.00  0.00    +0.149 HD
ATOM     14  C   UNL     1       2.623  -6.614  25.390  0.00  0.00    +0.211 C 
ATOM     15  O   UNL     1       1.699  -5.806  25.398  0.00  0.00    -0.276 OA
ATOM     16  C   UNL     1       2.400  -8.080  25.142  0.00  0.00    +0.109 C 
ENDBRANCH  11  12
BRANCH  11  17
ATOM     17  C   UNL     1       5.396  -4.788  27.041  0.00  0.00    +0.067 C 
BRANCH  17  18
ATOM     18  C   UNL     1       6.448  -3.713  26.875  0.00  0.00    -0.045 A 
ATOM     19  C   UNL     1       6.083  -2.363  26.938  0.00  0.00    +0.004 A 
ATOM     20  C   UNL     1       7.031  -1.360  26.730  0.00  0.00    +0.000 A 
ATOM     21  C   UNL     1       8.358  -1.696  26.469  0.00  0.00    +0.000 A 
ATOM     22  C   UNL     1       8.736  -3.035  26.418  0.00  0.00    +0.000 A 
ATOM     23  C   UNL     1       7.785  -4.037  26.612  0.00  0.00    +0.004 A 
ENDBRANCH  17  18
ENDBRANCH  11  17
ENDBRANCH   9  11
ENDBRANCH   1   7
BRANCH   1  24
ATOM     24  C   UNL     1       7.855  -4.147  22.782  0.00  0.00    +0.067 C 
BRANCH  24  25
ATOM     25  C   UNL     1       8.180  -2.676  22.826  0.00  0.00    -0.045 A 
ATOM     26  C   UNL     1       7.149  -1.736  22.929  0.00  0.00    +0.004 A 
ATOM     27  C   UNL     1       7.447  -0.391  23.114  0.00  0.00    +0.010 A 
ATOM     28  C   UNL     1       8.779   0.027  23.207  0.00  0.00    +0.033 A 
ATOM     29  C   UNL     1       9.810  -0.904  23.039  0.00  0.00    +0.010 A 
ATOM     30  C   UNL     1       9.513  -2.248  22.840  0.00  0.00    +0.004 A 
BRANCH  28  31
ATOM     31  C   UNL     1       9.096   1.414  23.675  0.00  0.00    +0.371 C 
ATOM     32  F   UNL     1      10.389   1.806  23.470  0.00  0.00    -0.187 F 
ATOM     33  F   UNL     1       8.835   1.671  24.991  0.00  0.00    -0.187 F 
BRANCH  31  34
ATOM     34  P   UNL     1       8.197   2.710  22.745  0.00  0.00    +0.401 P 
ATOM     35  O   UNL     1       7.437   3.805  21.958  0.00  0.00    -0.252 OA
BRANCH  34  36
ATOM     36  O   UNL     1       9.019   2.228  21.372  0.00  0.00    -0.320 OA
ATOM     37  H   UNL     1       8.449   2.141  20.577  0.00  0.00    +0.220 HD
ENDBRANCH  34  36
BRANCH  34  38
ATOM     38  O   UNL     1       9.379   3.773  23.249  0.00  0.00    -0.320 OA
ATOM     39  H   UNL     1      10.261   3.419  23.008  0.00  0.00    +0.220 HD
ENDBRANCH  34  38
ENDBRANCH  31  34
ENDBRANCH  28  31
ENDBRANCH  24  25
ENDBRANCH   1  24
TORSDOF 12
ENDMDL
MODEL 4
REMARK VINA RESULT:      -6.5      2.837      5.123
REMARK  Name = 
REMARK  13 active torsions:
REMARK  status: ('A' for Active; 'I' for Inactive)
REMARK    1  A    between atoms: C_2  and  C_3
REMARK    2  A    between atoms: C_2  and  N_17
REMARK    3  A    between atoms: C_2  and  C_33
REMARK    4  A    between atoms: C_3  and  C_4
REMARK    5  A    between atoms: C_7  and  C_10
REMARK    6  A    between atoms: C_10  and  P_13
REMARK    7  A    between atoms: P_13  and  O_14
REMARK    8  A    between atoms: P_13  and  O_15
REMARK    9  A    between atoms: C_18  and  C_20
REMARK   10  A    between atoms: C_20  and  C_22
REMARK   11  A    between atoms: C_20  and  N_29
REMARK   12  A    between atoms: C_22  and  C_23
REMARK   13  A    between atoms: C_30  and  C_31
REMARK                            x       y       z     vdW  Elec       q    Type
REMARK                         _______ _______ _______ _____ _____    ______ ____
ROOT
ATOM      1  C   UNL     1       6.586  -0.773  25.830  0.00  0.00    +0.163 C 
ENDROOT
BRANCH   1   2
ATOM      2  C   UNL     1       7.357   0.405  26.442  0.00  0.00    +0.231 C 
ATOM      3  O   UNL     1       7.481   1.499  25.890  0.00  0.00    -0.274 OA
ATOM      4  N   UNL     1       7.766   0.243  27.736  0.00  0.00    -0.328 N 
ATOM      5  H   UNL     1       8.257   1.002  28.189  0.00  0.00    +0.145 HD
ATOM      6  H   UNL     1       7.629  -0.617  28.260  0.00  0.00    +0.145 HD
ENDBRANCH   1   2
BRANCH   1   7
ATOM      7  N   UNL     1       7.532  -1.525  25.010  0.00  0.00    -0.302 N 
ATOM      8  H   UNL     1       8.230  -2.070  25.505  0.00  0.00    +0.150 HD
ATOM      9  C   UNL     1       7.438  -1.559  23.641  0.00  0.00    +0.234 C 
ATOM     10  O   UNL     1       6.517  -0.992  23.046  0.00  0.00    -0.274 OA
BRANCH   9  11
ATOM     11  C   UNL     1       8.477  -2.420  22.887  0.00  0.00    +0.163 C 
BRANCH  11  12
ATOM     12  N   UNL     1       7.727  -3.454  22.170  0.00  0.00    -0.304 N 
ATOM     13  H   UNL     1       7.190  -3.139  21.367  0.00  0.00    +0.149 HD
ATOM     14  C   UNL     1       7.508  -4.706  22.681  0.00  0.00    +0.211 C 
ATOM     15  O   UNL     1       7.948  -5.079  23.765  0.00  0.00    -0.276 OA
ATOM     16  C   UNL     1       6.719  -5.617  21.783  0.00  0.00    +0.109 C 
ENDBRANCH  11  12
BRANCH  11  17
ATOM     17  C   UNL     1       9.441  -1.626  21.986  0.00  0.00    +0.067 C 
BRANCH  17  18
ATOM     18  C   UNL     1       9.882  -0.275  22.505  0.00  0.00    -0.045 A 
ATOM     19  C   UNL     1      10.502  -0.175  23.757  0.00  0.00    +0.004 A 
ATOM     20  C   UNL     1      10.864   1.070  24.274  0.00  0.00    +0.000 A 
ATOM     21  C   UNL     1      10.620   2.229  23.539  0.00  0.00    +0.000 A 
ATOM     22  C   UNL     1      10.017   2.143  22.288  0.00  0.00    +0.000 A 
ATOM     23  C   UNL     1       9.643   0.899  21.778  0.00  0.00    +0.004 A 
ENDBRANCH  17  18
ENDBRANCH  11  17
ENDBRANCH   9  11
ENDBRANCH   1   7
BRANCH   1  24
ATOM     24  C   UNL     1       6.003  -1.695  26.907  0.00  0.00    +0.067 C 
BRANCH  24  25
ATOM     25  C   UNL     1       5.331  -2.909  26.319  0.00  0.00    -0.045 A 
ATOM     26  C   UNL     1       4.278  -2.753  25.411  0.00  0.00    +0.004 A 
ATOM     27  C   UNL     1       3.750  -3.860  24.757  0.00  0.00    +0.010 A 
ATOM     28  C   UNL     1       4.276  -5.134  24.998  0.00  0.00    +0.033 A 
ATOM     29  C   UNL     1       5.284  -5.298  25.955  0.00  0.00    +0.010 A 
ATOM     30  C   UNL     1       5.803  -4.192  26.619  0.00  0.00    +0.004 A 
BRANCH  28  31
ATOM     31  C   UNL     1       3.901  -6.277  24.105  0.00  0.00    +0.371 C 
ATOM     32  F   UNL     1       4.832  -7.277  24.036  0.00  0.00    -0.187 F 
ATOM     33  F   UNL     1       3.612  -5.950  22.811  0.00  0.00    -0.187 F 
BRANCH  31  34
ATOM     34  P   UNL     1       2.445  -7.211  24.704  0.00  0.00    +0.401 P 
ATOM     35  O   UNL     1       1.213  -7.999  25.210  0.00  0.00    -0.252 OA
BRANCH  34  36
ATOM     36  O   UNL     1       3.484  -8.179  25.583  0.00  0.00    -0.320 OA
ATOM     37  H   UNL     1       4.011  -8.799  25.033  0.00  0.00    +0.220 HD
ENDBRANCH  34  36
BRANCH  34  38
ATOM     38  O   UNL     1       2.557  -8.116  23.308  0.00  0.00    -0.320 OA
ATOM     39  H   UNL     1       3.355  -8.685  23.351  0.00  0.00    +0.220 HD
ENDBRANCH  34  38
ENDBRANCH  31  34
ENDBRANCH  28  31
ENDBRANCH  24  25
ENDBRANCH   1  24
TORSDOF 12
ENDMDL
MODEL 5
REMARK VINA RESULT:      -6.4      2.373      2.860
REMARK  Name = 
REMARK  13 active torsions:
REMARK  status: ('A' for Active; 'I' for Inactive)
REMARK    1  A    between atoms: C_2  and  C_3
REMARK    2  A    between atoms: C_2  and  N_17
REMARK    3  A    between atoms: C_2  and  C_33
REMARK    4  A    between atoms: C_3  and  C_4
REMARK    5  A    between atoms: C_7  and  C_10
REMARK    6  A    between atoms: C_10  and  P_13
REMARK    7  A    between atoms: P_13  and  O_14
REMARK    8  A    between atoms: P_13  and  O_15
REMARK    9  A    between atoms: C_18  and  C_20
REMARK   10  A    between atoms: C_20  and  C_22
REMARK   11  A    between atoms: C_20  and  N_29
REMARK   12  A    between atoms: C_22  and  C_23
REMARK   13  A    between atoms: C_30  and  C_31
REMARK                            x       y       z     vdW  Elec       q    Type
REMARK                         _______ _______ _______ _____ _____    ______ ____
ROOT
ATOM      1  C   UNL     1       6.319   2.292  25.720  0.00  0.00    +0.163 C 
ENDROOT
BRANCH   1   2
ATOM      2  C   UNL     1       5.838   3.601  26.363  0.00  0.00    +0.231 C 
ATOM      3  O   UNL     1       4.898   4.268  25.931  0.00  0.00    -0.274 OA
ATOM      4  N   UNL     1       6.402   3.916  27.568  0.00  0.00    -0.328 N 
ATOM      5  H   UNL     1       6.099   4.757  28.041  0.00  0.00    +0.145 HD
ATOM      6  H   UNL     1       7.136   3.362  28.001  0.00  0.00    +0.145 HD
ENDBRANCH   1   2
BRANCH   1   7
ATOM      7  N   UNL     1       7.109   2.656  24.547  0.00  0.00    -0.302 N 
ATOM      8  H   UNL     1       8.093   2.844  24.701  0.00  0.00    +0.150 HD
ATOM      9  C   UNL     1       6.569   2.669  23.284  0.00  0.00    +0.234 C 
ATOM     10  O   UNL     1       5.400   2.325  23.081  0.00  0.00    -0.274 OA
BRANCH   9  11
ATOM     11  C   UNL     1       7.516   3.036  22.119  0.00  0.00    +0.163 C 
BRANCH  11  12
ATOM     12  N   UNL     1       7.240   4.433  21.776  0.00  0.00    -0.304 N 
ATOM     13  H   UNL     1       6.998   4.614  20.806  0.00  0.00    +0.149 HD
ATOM     14  C   UNL     1       7.554   5.479  22.602  0.00  0.00    +0.211 C 
ATOM     15  O   UNL     1       8.063   5.335  23.710  0.00  0.00    -0.276 OA
ATOM     16  C   UNL     1       7.182   6.833  22.063  0.00  0.00    +0.109 C 
ENDBRANCH  11  12
BRANCH  11  17
ATOM     17  C   UNL     1       9.006   2.752  22.385  0.00  0.00    +0.067 C 
BRANCH  17  18
ATOM     18  C   UNL     1       9.396   1.297  22.527  0.00  0.00    -0.045 A 
ATOM     19  C   UNL     1      10.145   0.879  23.633  0.00  0.00    +0.004 A 
ATOM     20  C   UNL     1      10.562  -0.449  23.749  0.00  0.00    +0.000 A 
ATOM     21  C   UNL     1      10.222  -1.376  22.764  0.00  0.00    +0.000 A 
ATOM     22  C   UNL     1       9.466  -0.975  21.667  0.00  0.00    +0.000 A 
ATOM     23  C   UNL     1       9.063   0.355  21.545  0.00  0.00    +0.004 A 
ENDBRANCH  17  18
ENDBRANCH  11  17
ENDBRANCH   9  11
ENDBRANCH   1   7
BRANCH   1  24
ATOM     24  C   UNL     1       7.185   1.469  26.679  0.00  0.00    +0.067 C 
BRANCH  24  25
ATOM     25  C   UNL     1       7.479   0.091  26.145  0.00  0.00    -0.045 A 
ATOM     26  C   UNL     1       8.430  -0.715  26.779  0.00  0.00    +0.004 A 
ATOM     27  C   UNL     1       8.604  -2.035  26.379  0.00  0.00    +0.010 A 
ATOM     28  C   UNL     1       7.822  -2.566  25.348  0.00  0.00    +0.033 A 
ATOM     29  C   UNL     1       6.918  -1.740  24.671  0.00  0.00    +0.010 A 
ATOM     30  C   UNL     1       6.753  -0.416  25.061  0.00  0.00    +0.004 A 
BRANCH  28  31
ATOM     31  C   UNL     1       7.812  -4.043  25.102  0.00  0.00    +0.371 C 
ATOM     32  F   UNL     1       9.002  -4.559  24.668  0.00  0.00    -0.187 F 
ATOM     33  F   UNL     1       6.870  -4.493  24.221  0.00  0.00    -0.187 F 
BRANCH  31  34
ATOM     34  P   UNL     1       7.553  -5.024  26.626  0.00  0.00    +0.401 P 
ATOM     35  O   UNL     1       7.335  -5.853  27.915  0.00  0.00    -0.252 OA
BRANCH  34  36
ATOM     36  O   UNL     1       8.812  -6.013  26.148  0.00  0.00    -0.320 OA
ATOM     37  H   UNL     1       8.872  -6.852  26.653  0.00  0.00    +0.220 HD
ENDBRANCH  34  36
BRANCH  34  38
ATOM     38  O   UNL     1       6.386  -5.867  25.784  0.00  0.00    -0.320 OA
ATOM     39  H   UNL     1       6.593  -5.842  24.826  0.00  0.00    +0.220 HD
ENDBRANCH  34  38
ENDBRANCH  31  34
ENDBRANCH  28  31
ENDBRANCH  24  25
ENDBRANCH   1  24
TORSDOF 12
ENDMDL
MODEL 6
REMARK VINA RESULT:      -6.4      4.633      8.161
REMARK  Name = 
REMARK  13 active torsions:
REMARK  status: ('A' for Active; 'I' for Inactive)
REMARK    1  A    between atoms: C_2  and  C_3
REMARK    2  A    between atoms: C_2  and  N_17
REMARK    3  A    between atoms: C_2  and  C_33
REMARK    4  A    between atoms: C_3  and  C_4
REMARK    5  A    between atoms: C_7  and  C_10
REMARK    6  A    between atoms: C_10  and  P_13
REMARK    7  A    between atoms: P_13  and  O_14
REMARK    8  A    between atoms: P_13  and  O_15
REMARK    9  A    between atoms: C_18  and  C_20
REMARK   10  A    between atoms: C_20  and  C_22
REMARK   11  A    between atoms: C_20  and  N_29
REMARK   12  A    between atoms: C_22  and  C_23
REMARK   13  A    between atoms: C_30  and  C_31
REMARK                            x       y       z     vdW  Elec       q    Type
REMARK                         _______ _______ _______ _____ _____    ______ ____
ROOT
ATOM      1  C   UNL     1       5.176  -4.235  27.776  0.00  0.00    +0.163 C 
ENDROOT
BRANCH   1   2
ATOM      2  C   UNL     1       4.510  -4.416  29.147  0.00  0.00    +0.231 C 
ATOM      3  O   UNL     1       3.530  -3.770  29.520  0.00  0.00    -0.274 OA
ATOM      4  N   UNL     1       4.956  -5.472  29.892  0.00  0.00    -0.328 N 
ATOM      5  H   UNL     1       4.530  -5.644  30.793  0.00  0.00    +0.145 HD
ATOM      6  H   UNL     1       5.718  -6.077  29.600  0.00  0.00    +0.145 HD
ENDBRANCH   1   2
BRANCH   1   7
ATOM      7  N   UNL     1       4.377  -4.983  26.809  0.00  0.00    -0.302 N 
ATOM      8  H   UNL     1       3.471  -4.596  26.571  0.00  0.00    +0.150 HD
ATOM      9  C   UNL     1       4.856  -6.113  26.192  0.00  0.00    +0.234 C 
ATOM     10  O   UNL     1       6.005  -6.518  26.394  0.00  0.00    -0.274 OA
BRANCH   9  11
ATOM     11  C   UNL     1       3.929  -6.796  25.161  0.00  0.00    +0.163 C 
BRANCH  11  12
ATOM     12  N   UNL     1       2.718  -7.195  25.883  0.00  0.00    -0.304 N 
ATOM     13  H   UNL     1       2.575  -6.758  26.789  0.00  0.00    +0.149 HD
ATOM     14  C   UNL     1       1.964  -8.283  25.530  0.00  0.00    +0.211 C 
ATOM     15  O   UNL     1       2.219  -8.995  24.562  0.00  0.00    -0.276 OA
ATOM     16  C   UNL     1       0.760  -8.515  26.399  0.00  0.00    +0.109 C 
ENDBRANCH  11  12
BRANCH  11  17
ATOM     17  C   UNL     1       3.643  -5.962  23.898  0.00  0.00    +0.067 C 
BRANCH  17  18
ATOM     18  C   UNL     1       4.834  -5.277  23.264  0.00  0.00    -0.045 A 
ATOM     19  C   UNL     1       4.819  -3.891  23.064  0.00  0.00    +0.004 A 
ATOM     20  C   UNL     1       5.886  -3.252  22.430  0.00  0.00    +0.000 A 
ATOM     21  C   UNL     1       6.986  -3.992  21.998  0.00  0.00    +0.000 A 
ATOM     22  C   UNL     1       7.019  -5.368  22.204  0.00  0.00    +0.000 A 
ATOM     23  C   UNL     1       5.946  -6.007  22.825  0.00  0.00    +0.004 A 
ENDBRANCH  17  18
ENDBRANCH  11  17
ENDBRANCH   9  11
ENDBRANCH   1   7
BRANCH   1  24
ATOM     24  C   UNL     1       5.230  -2.762  27.357  0.00  0.00    +0.067 C 
BRANCH  24  25
ATOM     25  C   UNL     1       6.301  -2.498  26.330  0.00  0.00    -0.045 A 
ATOM     26  C   UNL     1       6.299  -1.298  25.611  0.00  0.00    +0.004 A 
ATOM     27  C   UNL     1       7.359  -0.987  24.768  0.00  0.00    +0.010 A 
ATOM     28  C   UNL     1       8.438  -1.869  24.642  0.00  0.00    +0.033 A 
ATOM     29  C   UNL     1       8.409  -3.098  25.310  0.00  0.00    +0.010 A 
ATOM     30  C   UNL     1       7.342  -3.416  26.143  0.00  0.00    +0.004 A 
BRANCH  28  31
ATOM     31  C   UNL     1       9.693  -1.421  23.959  0.00  0.00    +0.371 C 
ATOM     32  F   UNL     1      10.495  -2.435  23.513  0.00  0.00    -0.187 F 
ATOM     33  F   UNL     1      10.506  -0.600  24.687  0.00  0.00    -0.187 F 
BRANCH  31  34
ATOM     34  P   UNL     1       9.380  -0.523  22.394  0.00  0.00    +0.401 P 
ATOM     35  O   UNL     1       9.114   0.235  21.071  0.00  0.00    -0.252 OA
BRANCH  34  36
ATOM     36  O   UNL     1      10.472  -1.542  21.645  0.00  0.00    -0.320 OA
ATOM     37  H   UNL     1      10.611  -2.392  22.116  0.00  0.00    +0.220 HD
ENDBRANCH  34  36
BRANCH  34  38
ATOM     38  O   UNL     1      10.532   0.575  22.892  0.00  0.00    -0.320 OA
ATOM     39  H   UNL     1      10.118   1.234  23.487  0.00  0.00    +0.220 HD
ENDBRANCH  34  38
ENDBRANCH  31  34
ENDBRANCH  28  31
ENDBRANCH  24  25
ENDBRANCH   1  24
TORSDOF 12
ENDMDL
MODEL 7
REMARK VINA RESULT:      -6.3      3.116      5.013
REMARK  Name = 
REMARK  13 active torsions:
REMARK  status: ('A' for Active; 'I' for Inactive)
REMARK    1  A    between atoms: C_2  and  C_3
REMARK    2  A    between atoms: C_2  and  N_17
REMARK    3  A    between atoms: C_2  and  C_33
REMARK    4  A    between atoms: C_3  and  C_4
REMARK    5  A    between atoms: C_7  and  C_10
REMARK    6  A    between atoms: C_10  and  P_13
REMARK    7  A    between atoms: P_13  and  O_14
REMARK    8  A    between atoms: P_13  and  O_15
REMARK    9  A    between atoms: C_18  and  C_20
REMARK   10  A    between atoms: C_20  and  C_22
REMARK   11  A    between atoms: C_20  and  N_29
REMARK   12  A    between atoms: C_22  and  C_23
REMARK   13  A    between atoms: C_30  and  C_31
REMARK                            x       y       z     vdW  Elec       q    Type
REMARK                         _______ _______ _______ _____ _____    ______ ____
ROOT
ATOM      1  C   UNL     1       8.773   0.398  23.308  0.00  0.00    +0.163 C 
ENDROOT
BRANCH   1   2
ATOM      2  C   UNL     1       9.335  -0.043  21.949  0.00  0.00    +0.231 C 
ATOM      3  O   UNL     1       9.920  -1.111  21.766  0.00  0.00    -0.274 OA
ATOM      4  N   UNL     1       9.001   0.744  20.882  0.00  0.00    -0.328 N 
ATOM      5  H   UNL     1       9.329   0.480  19.963  0.00  0.00    +0.145 HD
ATOM      6  H   UNL     1       8.463   1.601  20.969  0.00  0.00    +0.145 HD
ENDBRANCH   1   2
BRANCH   1   7
ATOM      7  N   UNL     1       9.053   1.825  23.446  0.00  0.00    -0.302 N 
ATOM      8  H   UNL     1       8.274   2.457  23.303  0.00  0.00    +0.150 HD
ATOM      9  C   UNL     1      10.288   2.288  23.826  0.00  0.00    +0.234 C 
ATOM     10  O   UNL     1      11.205   1.512  24.116  0.00  0.00    -0.274 OA
BRANCH   9  11
ATOM     11  C   UNL     1      10.450   3.818  23.972  0.00  0.00    +0.163 C 
BRANCH  11  12
ATOM     12  N   UNL     1      11.466   4.229  22.999  0.00  0.00    -0.304 N 
ATOM     13  H   UNL     1      11.636   3.582  22.234  0.00  0.00    +0.149 HD
ATOM     14  C   UNL     1      12.343   5.256  23.226  0.00  0.00    +0.211 C 
ATOM     15  O   UNL     1      12.332   5.940  24.245  0.00  0.00    -0.276 OA
ATOM     16  C   UNL     1      13.301   5.518  22.098  0.00  0.00    +0.109 C 
ENDBRANCH  11  12
BRANCH  11  17
ATOM     17  C   UNL     1       9.138   4.618  23.864  0.00  0.00    +0.067 C 
BRANCH  17  18
ATOM     18  C   UNL     1       8.587   5.178  25.157  0.00  0.00    -0.045 A 
ATOM     19  C   UNL     1       9.062   6.400  25.648  0.00  0.00    +0.004 A 
ATOM     20  C   UNL     1       8.606   6.902  26.868  0.00  0.00    +0.000 A 
ATOM     21  C   UNL     1       7.658   6.192  27.605  0.00  0.00    +0.000 A 
ATOM     22  C   UNL     1       7.168   4.983  27.121  0.00  0.00    +0.000 A 
ATOM     23  C   UNL     1       7.636   4.475  25.908  0.00  0.00    +0.004 A 
ENDBRANCH  17  18
ENDBRANCH  11  17
ENDBRANCH   9  11
ENDBRANCH   1   7
BRANCH   1  24
ATOM     24  C   UNL     1       7.262   0.165  23.403  0.00  0.00    +0.067 C 
BRANCH  24  25
ATOM     25  C   UNL     1       6.926  -1.172  24.014  0.00  0.00    -0.045 A 
ATOM     26  C   UNL     1       6.494  -2.223  23.198  0.00  0.00    +0.004 A 
ATOM     27  C   UNL     1       6.321  -3.494  23.732  0.00  0.00    +0.010 A 
ATOM     28  C   UNL     1       6.585  -3.730  25.085  0.00  0.00    +0.033 A 
ATOM     29  C   UNL     1       6.953  -2.664  25.914  0.00  0.00    +0.010 A 
ATOM     30  C   UNL     1       7.114  -1.389  25.384  0.00  0.00    +0.004 A 
BRANCH  28  31
ATOM     31  C   UNL     1       6.664  -5.135  25.598  0.00  0.00    +0.371 C 
ATOM     32  F   UNL     1       7.884  -5.733  25.442  0.00  0.00    -0.187 F 
ATOM     33  F   UNL     1       5.754  -6.010  25.076  0.00  0.00    -0.187 F 
BRANCH  31  34
ATOM     34  P   UNL     1       6.459  -5.252  27.413  0.00  0.00    +0.401 P 
ATOM     35  O   UNL     1       6.285  -5.350  28.948  0.00  0.00    -0.252 OA
BRANCH  34  36
ATOM     36  O   UNL     1       8.006  -5.878  27.501  0.00  0.00    -0.320 OA
ATOM     37  H   UNL     1       8.551  -5.704  26.704  0.00  0.00    +0.220 HD
ENDBRANCH  34  36
BRANCH  34  38
ATOM     38  O   UNL     1       5.726  -6.727  27.150  0.00  0.00    -0.320 OA
ATOM     39  H   UNL     1       6.413  -7.419  27.050  0.00  0.00    +0.220 HD
ENDBRANCH  34  38
ENDBRANCH  31  34
ENDBRANCH  28  31
ENDBRANCH  24  25
ENDBRANCH   1  24
TORSDOF 12
ENDMDL
MODEL 8
REMARK VINA RESULT:      -6.3      4.428      7.896
REMARK  Name = 
REMARK  13 active torsions:
REMARK  status: ('A' for Active; 'I' for Inactive)
REMARK    1  A    between atoms: C_2  and  C_3
REMARK    2  A    between atoms: C_2  and  N_17
REMARK    3  A    between atoms: C_2  and  C_33
REMARK    4  A    between atoms: C_3  and  C_4
REMARK    5  A    between atoms: C_7  and  C_10
REMARK    6  A    between atoms: C_10  and  P_13
REMARK    7  A    between atoms: P_13  and  O_14
REMARK    8  A    between atoms: P_13  and  O_15
REMARK    9  A    between atoms: C_18  and  C_20
REMARK   10  A    between atoms: C_20  and  C_22
REMARK   11  A    between atoms: C_20  and  N_29
REMARK   12  A    between atoms: C_22  and  C_23
REMARK   13  A    between atoms: C_30  and  C_31
REMARK                            x       y       z     vdW  Elec       q    Type
REMARK                         _______ _______ _______ _____ _____    ______ ____
ROOT
ATOM      1  C   UNL     1       6.912   0.333  25.578  0.00  0.00    +0.163 C 
ENDROOT
BRANCH   1   2
ATOM      2  C   UNL     1       5.524   0.670  26.140  0.00  0.00    +0.231 C 
ATOM      3  O   UNL     1       4.600   1.112  25.457  0.00  0.00    -0.274 OA
ATOM      4  N   UNL     1       5.295   0.288  27.433  0.00  0.00    -0.328 N 
ATOM      5  H   UNL     1       4.386   0.468  27.838  0.00  0.00    +0.145 HD
ATOM      6  H   UNL     1       6.003  -0.142  28.020  0.00  0.00    +0.145 HD
ENDBRANCH   1   2
BRANCH   1   7
ATOM      7  N   UNL     1       7.107  -1.104  25.751  0.00  0.00    -0.302 N 
ATOM      8  H   UNL     1       6.419  -1.711  25.320  0.00  0.00    +0.150 HD
ATOM      9  C   UNL     1       8.207  -1.614  26.396  0.00  0.00    +0.234 C 
ATOM     10  O   UNL     1       9.104  -0.878  26.817  0.00  0.00    -0.274 OA
BRANCH   9  11
ATOM     11  C   UNL     1       8.318  -3.153  26.483  0.00  0.00    +0.163 C 
BRANCH  11  12
ATOM     12  N   UNL     1       6.957  -3.664  26.669  0.00  0.00    -0.304 N 
ATOM     13  H   UNL     1       6.207  -2.993  26.530  0.00  0.00    +0.149 HD
ATOM     14  C   UNL     1       6.688  -4.867  27.265  0.00  0.00    +0.211 C 
ATOM     15  O   UNL     1       7.560  -5.633  27.664  0.00  0.00    -0.276 OA
ATOM     16  C   UNL     1       5.226  -5.205  27.354  0.00  0.00    +0.109 C 
ENDBRANCH  11  12
BRANCH  11  17
ATOM     17  C   UNL     1       9.066  -3.813  25.310  0.00  0.00    +0.067 C 
BRANCH  17  18
ATOM     18  C   UNL     1       9.110  -3.028  24.017  0.00  0.00    -0.045 A 
ATOM     19  C   UNL     1      10.242  -2.267  23.700  0.00  0.00    +0.004 A 
ATOM     20  C   UNL     1      10.275  -1.493  22.539  0.00  0.00    +0.000 A 
ATOM     21  C   UNL     1       9.181  -1.480  21.676  0.00  0.00    +0.000 A 
ATOM     22  C   UNL     1       8.055  -2.242  21.973  0.00  0.00    +0.000 A 
ATOM     23  C   UNL     1       8.017  -3.005  23.141  0.00  0.00    +0.004 A 
ENDBRANCH  17  18
ENDBRANCH  11  17
ENDBRANCH   9  11
ENDBRANCH   1   7
BRANCH   1  24
ATOM     24  C   UNL     1       7.026   0.686  24.091  0.00  0.00    +0.067 C 
BRANCH  24  25
ATOM     25  C   UNL     1       7.979   1.828  23.845  0.00  0.00    -0.045 A 
ATOM     26  C   UNL     1       7.491   3.060  23.397  0.00  0.00    +0.004 A 
ATOM     27  C   UNL     1       8.341   4.156  23.306  0.00  0.00    +0.010 A 
ATOM     28  C   UNL     1       9.686   4.033  23.671  0.00  0.00    +0.033 A 
ATOM     29  C   UNL     1      10.188   2.786  24.056  0.00  0.00    +0.010 A 
ATOM     30  C   UNL     1       9.341   1.686  24.135  0.00  0.00    +0.004 A 
BRANCH  28  31
ATOM     31  C   UNL     1      10.530   5.260  23.835  0.00  0.00    +0.371 C 
ATOM     32  F   UNL     1      10.597   5.741  25.113  0.00  0.00    -0.187 F 
ATOM     33  F   UNL     1      10.185   6.327  23.055  0.00  0.00    -0.187 F 
BRANCH  31  34
ATOM     34  P   UNL     1      12.304   4.965  23.491  0.00  0.00    +0.401 P 
ATOM     35  O   UNL     1      13.803   4.714  23.201  0.00  0.00    -0.252 OA
BRANCH  34  36
ATOM     36  O   UNL     1      12.662   6.289  24.445  0.00  0.00    -0.320 OA
ATOM     37  H   UNL     1      12.208   7.114  24.167  0.00  0.00    +0.220 HD
ENDBRANCH  34  36
BRANCH  34  38
ATOM     38  O   UNL     1      12.094   5.852  22.094  0.00  0.00    -0.320 OA
ATOM     39  H   UNL     1      12.156   5.257  21.318  0.00  0.00    +0.220 HD
ENDBRANCH  34  38
ENDBRANCH  31  34
ENDBRANCH  28  31
ENDBRANCH  24  25
ENDBRANCH   1  24
TORSDOF 12
ENDMDL
MODEL 9
REMARK VINA RESULT:      -6.3      3.841      7.421
REMARK  Name = 
REMARK  13 active torsions:
REMARK  status: ('A' for Active; 'I' for Inactive)
REMARK    1  A    between atoms: C_2  and  C_3
REMARK    2  A    between atoms: C_2  and  N_17
REMARK    3  A    between atoms: C_2  and  C_33
REMARK    4  A    between atoms: C_3  and  C_4
REMARK    5  A    between atoms: C_7  and  C_10
REMARK    6  A    between atoms: C_10  and  P_13
REMARK    7  A    between atoms: P_13  and  O_14
REMARK    8  A    between atoms: P_13  and  O_15
REMARK    9  A    between atoms: C_18  and  C_20
REMARK   10  A    between atoms: C_20  and  C_22
REMARK   11  A    between atoms: C_20  and  N_29
REMARK   12  A    between atoms: C_22  and  C_23
REMARK   13  A    between atoms: C_30  and  C_31
REMARK                            x       y       z     vdW  Elec       q    Type
REMARK                         _______ _______ _______ _____ _____    ______ ____
ROOT
ATOM      1  C   UNL     1       8.451  -4.096  24.703  0.00  0.00    +0.163 C 
ENDROOT
BRANCH   1   2
ATOM      2  C   UNL     1       8.682  -5.292  25.638  0.00  0.00    +0.231 C 
ATOM      3  O   UNL     1       7.826  -5.732  26.406  0.00  0.00    -0.274 OA
ATOM      4  N   UNL     1       9.852  -5.975  25.455  0.00  0.00    -0.328 N 
ATOM      5  H   UNL     1      10.036  -6.784  26.032  0.00  0.00    +0.145 HD
ATOM      6  H   UNL     1      10.563  -5.692  24.787  0.00  0.00    +0.145 HD
ENDBRANCH   1   2
BRANCH   1   7
ATOM      7  N   UNL     1       7.505  -3.206  25.371  0.00  0.00    -0.302 N 
ATOM      8  H   UNL     1       7.830  -2.748  26.215  0.00  0.00    +0.150 HD
ATOM      9  C   UNL     1       6.266  -2.937  24.843  0.00  0.00    +0.234 C 
ATOM     10  O   UNL     1       5.917  -3.402  23.754  0.00  0.00    -0.274 OA
BRANCH   9  11
ATOM     11  C   UNL     1       5.369  -1.951  25.626  0.00  0.00    +0.163 C 
BRANCH  11  12
ATOM     12  N   UNL     1       4.585  -2.752  26.569  0.00  0.00    -0.304 N 
ATOM     13  H   UNL     1       5.097  -3.144  27.354  0.00  0.00    +0.149 HD
ATOM     14  C   UNL     1       3.320  -3.201  26.294  0.00  0.00    +0.211 C 
ATOM     15  O   UNL     1       2.725  -2.944  25.251  0.00  0.00    -0.276 OA
ATOM     16  C   UNL     1       2.690  -4.002  27.398  0.00  0.00    +0.109 C 
ENDBRANCH  11  12
BRANCH  11  17
ATOM     17  C   UNL     1       6.122  -0.783  26.290  0.00  0.00    +0.067 C 
BRANCH  17  18
ATOM     18  C   UNL     1       5.922   0.582  25.669  0.00  0.00    -0.045 A 
ATOM     19  C   UNL     1       5.568   1.671  26.474  0.00  0.00    +0.004 A 
ATOM     20  C   UNL     1       5.324   2.924  25.909  0.00  0.00    +0.000 A 
ATOM     21  C   UNL     1       5.445   3.105  24.532  0.00  0.00    +0.000 A 
ATOM     22  C   UNL     1       5.810   2.033  23.722  0.00  0.00    +0.000 A 
ATOM     23  C   UNL     1       6.039   0.778  24.287  0.00  0.00    +0.004 A 
ENDBRANCH  17  18
ENDBRANCH  11  17
ENDBRANCH   9  11
ENDBRANCH   1   7
BRANCH   1  24
ATOM     24  C   UNL     1       9.751  -3.335  24.419  0.00  0.00    +0.067 C 
BRANCH  24  25
ATOM     25  C   UNL     1       9.497  -1.928  23.941  0.00  0.00    -0.045 A 
ATOM     26  C   UNL     1       9.754  -0.845  24.789  0.00  0.00    +0.004 A 
ATOM     27  C   UNL     1       9.659   0.456  24.308  0.00  0.00    +0.010 A 
ATOM     28  C   UNL     1       9.314   0.687  22.973  0.00  0.00    +0.033 A 
ATOM     29  C   UNL     1       8.994  -0.393  22.143  0.00  0.00    +0.010 A 
ATOM     30  C   UNL     1       9.075  -1.694  22.627  0.00  0.00    +0.004 A 
BRANCH  28  31
ATOM     31  C   UNL     1       9.477   2.056  22.386  0.00  0.00    +0.371 C 
ATOM     32  F   UNL     1       8.490   2.425  21.515  0.00  0.00    -0.187 F 
ATOM     33  F   UNL     1      10.654   2.286  21.732  0.00  0.00    -0.187 F 
BRANCH  31  34
ATOM     34  P   UNL     1       9.348   3.392  23.631  0.00  0.00    +0.401 P 
ATOM     35  O   UNL     1       9.238   4.521  24.684  0.00  0.00    -0.252 OA
BRANCH  34  36
ATOM     36  O   UNL     1       8.379   4.233  22.560  0.00  0.00    -0.320 OA
ATOM     37  H   UNL     1       7.417   4.112  22.714  0.00  0.00    +0.220 HD
ENDBRANCH  34  36
BRANCH  34  38
ATOM     38  O   UNL     1      10.781   3.986  23.019  0.00  0.00    -0.320 OA
ATOM     39  H   UNL     1      10.884   4.924  23.282  0.00  0.00    +0.220 HD
ENDBRANCH  34  38
ENDBRANCH  31  34
ENDBRANCH  28  31
ENDBRANCH  24  25
ENDBRANCH   1  24
TORSDOF 12
ENDMDL
