MODEL 1
REMARK VINA RESULT:      -5.7      0.000      0.000
REMARK  Name = 
REMARK  6 active torsions:
REMARK  status: ('A' for Active; 'I' for Inactive)
REMARK    1  A    between atoms: C_1  and  O_2
REMARK    2  A    between atoms: O_2  and  C_3
REMARK    3  A    between atoms: C_5  and  C_6
REMARK    4  A    between atoms: C_7  and  C_8
REMARK    5  A    between atoms: C_8  and  O_9
REMARK    6  A    between atoms: C_13  and  O_14
REMARK                            x       y       z     vdW  Elec       q    Type
REMARK                         _______ _______ _______ _____ _____    ______ ____
ROOT
ATOM      1  C   UNL     1       9.830   0.863  23.549  0.00  0.00    +0.162 A 
ATOM      2  C   UNL     1       9.697   0.890  22.158  0.00  0.00    +0.158 A 
ATOM      3  C   UNL     1       9.623  -0.303  21.436  0.00  0.00    +0.050 A 
ATOM      4  C   UNL     1       9.694  -1.529  22.101  0.00  0.00    +0.012 A 
ATOM      5  C   UNL     1       9.841  -1.585  23.493  0.00  0.00    -0.021 A 
ATOM      6  C   UNL     1       9.919  -0.377  24.202  0.00  0.00    +0.057 A 
ENDROOT
BRANCH   1   8
ATOM      7  C   UNL     1       8.759   2.553  24.831  0.00  0.00    +0.277 C 
ATOM      8  O   UNL     1       9.964   1.940  24.385  0.00  0.00    -0.491 OA
ENDBRANCH   1   8
BRANCH   2   9
ATOM      9  O   UNL     1       9.678   2.069  21.468  0.00  0.00    -0.503 OA
ATOM     10  H   UNL     1       9.605   1.882  20.518  0.00  0.00    +0.292 HD
ENDBRANCH   2   9
BRANCH   5  11
ATOM     11  C   UNL     1       9.973  -2.908  24.126  0.00  0.00    +0.015 C 
ATOM     12  C   UNL     1       8.973  -3.561  24.738  0.00  0.00    +0.092 C 
BRANCH  12  13
ATOM     13  C   UNL     1       9.071  -4.906  25.336  0.00  0.00    +0.330 C 
ATOM     14  O   UNL     1       8.109  -5.450  25.853  0.00  0.00    -0.246 OA
BRANCH  13  15
ATOM     15  O   UNL     1      10.295  -5.465  25.298  0.00  0.00    -0.478 OA
ATOM     16  H   UNL     1      10.773  -5.341  24.460  0.00  0.00    +0.295 HD
ENDBRANCH  13  15
ENDBRANCH  12  13
ENDBRANCH   5  11
TORSDOF 5
ENDMDL
MODEL 2
REMARK VINA RESULT:      -5.4      2.912      6.420
REMARK  Name = 
REMARK  6 active torsions:
REMARK  status: ('A' for Active; 'I' for Inactive)
REMARK    1  A    between atoms: C_1  and  O_2
REMARK    2  A    between atoms: O_2  and  C_3
REMARK    3  A    between atoms: C_5  and  C_6
REMARK    4  A    between atoms: C_7  and  C_8
REMARK    5  A    between atoms: C_8  and  O_9
REMARK    6  A    between atoms: C_13  and  O_14
REMARK                            x       y       z     vdW  Elec       q    Type
REMARK                         _______ _______ _______ _____ _____    ______ ____
ROOT
ATOM      1  C   UNL     1       9.876  -0.431  23.686  0.00  0.00    +0.162 A 
ATOM      2  C   UNL     1       9.453  -0.650  22.373  0.00  0.00    +0.158 A 
ATOM      3  C   UNL     1       9.417   0.407  21.461  0.00  0.00    +0.050 A 
ATOM      4  C   UNL     1       9.791   1.691  21.863  0.00  0.00    +0.012 A 
ATOM      5  C   UNL     1      10.206   1.941  23.177  0.00  0.00    -0.021 A 
ATOM      6  C   UNL     1      10.232   0.870  24.081  0.00  0.00    +0.057 A 
ENDROOT
BRANCH   1   8
ATOM      7  C   UNL     1       8.788  -1.398  25.564  0.00  0.00    +0.277 C 
ATOM      8  O   UNL     1       9.919  -1.349  24.702  0.00  0.00    -0.491 OA
ENDBRANCH   1   8
BRANCH   2   9
ATOM      9  O   UNL     1       9.029  -1.880  21.958  0.00  0.00    -0.503 OA
ATOM     10  H   UNL     1       9.227  -1.985  21.013  0.00  0.00    +0.292 HD
ENDBRANCH   2   9
BRANCH   5  11
ATOM     11  C   UNL     1      10.527   3.328  23.553  0.00  0.00    +0.015 C 
ATOM     12  C   UNL     1      11.707   3.924  23.326  0.00  0.00    +0.092 C 
BRANCH  12  13
ATOM     13  C   UNL     1      12.035   5.325  23.651  0.00  0.00    +0.330 C 
ATOM     14  O   UNL     1      11.167   6.156  23.862  0.00  0.00    -0.246 OA
BRANCH  13  15
ATOM     15  O   UNL     1      13.349   5.621  23.662  0.00  0.00    -0.478 OA
ATOM     16  H   UNL     1      13.869   5.192  22.961  0.00  0.00    +0.295 HD
ENDBRANCH  13  15
ENDBRANCH  12  13
ENDBRANCH   5  11
TORSDOF 5
ENDMDL
MODEL 3
REMARK VINA RESULT:      -5.0      2.909      3.718
REMARK  Name = 
REMARK  6 active torsions:
REMARK  status: ('A' for Active; 'I' for Inactive)
REMARK    1  A    between atoms: C_1  and  O_2
REMARK    2  A    between atoms: O_2  and  C_3
REMARK    3  A    between atoms: C_5  and  C_6
REMARK    4  A    between atoms: C_7  and  C_8
REMARK    5  A    between atoms: C_8  and  O_9
REMARK    6  A    between atoms: C_13  and  O_14
REMARK                            x       y       z     vdW  Elec       q    Type
REMARK                         _______ _______ _______ _____ _____    ______ ____
ROOT
ATOM      1  C   UNL     1       9.626  -0.690  22.870  0.00  0.00    +0.162 A 
ATOM      2  C   UNL     1       9.708  -0.811  24.260  0.00  0.00    +0.158 A 
ATOM      3  C   UNL     1       8.994  -1.813  24.921  0.00  0.00    +0.050 A 
ATOM      4  C   UNL     1       8.184  -2.689  24.197  0.00  0.00    +0.012 A 
ATOM      5  C   UNL     1       8.073  -2.582  22.805  0.00  0.00    -0.021 A 
ATOM      6  C   UNL     1       8.793  -1.567  22.157  0.00  0.00    +0.057 A 
ENDROOT
BRANCH   1   8
ATOM      7  C   UNL     1       9.436   1.403  21.762  0.00  0.00    +0.277 C 
ATOM      8  O   UNL     1      10.224   0.264  22.090  0.00  0.00    -0.491 OA
ENDBRANCH   1   8
BRANCH   2   9
ATOM      9  O   UNL     1      10.448   0.061  25.007  0.00  0.00    -0.503 OA
ATOM     10  H   UNL     1      11.376   0.013  24.729  0.00  0.00    +0.292 HD
ENDBRANCH   2   9
BRANCH   5  11
ATOM     11  C   UNL     1       7.154  -3.497  22.107  0.00  0.00    +0.015 C 
ATOM     12  C   UNL     1       7.239  -4.835  22.145  0.00  0.00    +0.092 C 
BRANCH  12  13
ATOM     13  C   UNL     1       6.302  -5.771  21.494  0.00  0.00    +0.330 C 
ATOM     14  O   UNL     1       5.932  -5.613  20.343  0.00  0.00    -0.246 OA
BRANCH  13  15
ATOM     15  O   UNL     1       5.867  -6.782  22.271  0.00  0.00    -0.478 OA
ATOM     16  H   UNL     1       6.141  -6.726  23.202  0.00  0.00    +0.295 HD
ENDBRANCH  13  15
ENDBRANCH  12  13
ENDBRANCH   5  11
TORSDOF 5
ENDMDL
MODEL 4
REMARK VINA RESULT:      -5.0      1.318      2.086
REMARK  Name = 
REMARK  6 active torsions:
REMARK  status: ('A' for Active; 'I' for Inactive)
REMARK    1  A    between atoms: C_1  and  O_2
REMARK    2  A    between atoms: O_2  and  C_3
REMARK    3  A    between atoms: C_5  and  C_6
REMARK    4  A    between atoms: C_7  and  C_8
REMARK    5  A    between atoms: C_8  and  O_9
REMARK    6  A    between atoms: C_13  and  O_14
REMARK                            x       y       z     vdW  Elec       q    Type
REMARK                         _______ _______ _______ _____ _____    ______ ____
ROOT
ATOM      1  C   UNL     1       9.196   1.342  22.341  0.00  0.00    +0.162 A 
ATOM      2  C   UNL     1      10.024   2.055  23.212  0.00  0.00    +0.158 A 
ATOM      3  C   UNL     1      10.805   1.378  24.152  0.00  0.00    +0.050 A 
ATOM      4  C   UNL     1      10.750  -0.015  24.233  0.00  0.00    +0.012 A 
ATOM      5  C   UNL     1       9.920  -0.753  23.381  0.00  0.00    -0.021 A 
ATOM      6  C   UNL     1       9.139  -0.058  22.446  0.00  0.00    +0.057 A 
ENDROOT
BRANCH   1   8
ATOM      7  C   UNL     1       7.066   2.284  21.874  0.00  0.00    +0.277 C 
ATOM      8  O   UNL     1       8.342   1.863  21.405  0.00  0.00    -0.491 OA
ENDBRANCH   1   8
BRANCH   2   9
ATOM      9  O   UNL     1      10.063   3.421  23.199  0.00  0.00    -0.503 OA
ATOM     10  H   UNL     1       9.534   3.763  23.937  0.00  0.00    +0.292 HD
ENDBRANCH   2   9
BRANCH   5  11
ATOM     11  C   UNL     1       9.861  -2.214  23.560  0.00  0.00    +0.015 C 
ATOM     12  C   UNL     1       9.262  -2.830  24.590  0.00  0.00    +0.092 C 
BRANCH  12  13
ATOM     13  C   UNL     1       9.150  -4.291  24.765  0.00  0.00    +0.330 C 
ATOM     14  O   UNL     1       8.067  -4.848  24.835  0.00  0.00    -0.246 OA
BRANCH  13  15
ATOM     15  O   UNL     1      10.320  -4.949  24.873  0.00  0.00    -0.478 OA
ATOM     16  H   UNL     1      11.107  -4.378  24.896  0.00  0.00    +0.295 HD
ENDBRANCH  13  15
ENDBRANCH  12  13
ENDBRANCH   5  11
TORSDOF 5
ENDMDL
MODEL 5
REMARK VINA RESULT:      -4.9      2.008      6.303
REMARK  Name = 
REMARK  6 active torsions:
REMARK  status: ('A' for Active; 'I' for Inactive)
REMARK    1  A    between atoms: C_1  and  O_2
REMARK    2  A    between atoms: O_2  and  C_3
REMARK    3  A    between atoms: C_5  and  C_6
REMARK    4  A    between atoms: C_7  and  C_8
REMARK    5  A    between atoms: C_8  and  O_9
REMARK    6  A    between atoms: C_13  and  O_14
REMARK                            x       y       z     vdW  Elec       q    Type
REMARK                         _______ _______ _______ _____ _____    ______ ____
ROOT
ATOM      1  C   UNL     1       7.626  -3.898  23.038  0.00  0.00    +0.162 A 
ATOM      2  C   UNL     1       8.498  -4.281  24.060  0.00  0.00    +0.158 A 
ATOM      3  C   UNL     1       9.512  -3.417  24.479  0.00  0.00    +0.050 A 
ATOM      4  C   UNL     1       9.667  -2.172  23.868  0.00  0.00    +0.012 A 
ATOM      5  C   UNL     1       8.815  -1.768  22.832  0.00  0.00    -0.021 A 
ATOM      6  C   UNL     1       7.805  -2.649  22.420  0.00  0.00    +0.057 A 
ENDROOT
BRANCH   1   8
ATOM      7  C   UNL     1       7.005  -5.614  21.516  0.00  0.00    +0.277 C 
ATOM      8  O   UNL     1       6.620  -4.649  22.488  0.00  0.00    -0.491 OA
ENDBRANCH   1   8
BRANCH   2   9
ATOM      9  O   UNL     1       8.411  -5.513  24.645  0.00  0.00    -0.503 OA
ATOM     10  H   UNL     1       9.264  -5.734  25.052  0.00  0.00    +0.292 HD
ENDBRANCH   2   9
BRANCH   5  11
ATOM     11  C   UNL     1       9.071  -0.469  22.187  0.00  0.00    +0.015 C 
ATOM     12  C   UNL     1       8.444   0.674  22.505  0.00  0.00    +0.092 C 
BRANCH  12  13
ATOM     13  C   UNL     1       8.717   1.995  21.907  0.00  0.00    +0.330 C 
ATOM     14  O   UNL     1       7.857   2.855  21.829  0.00  0.00    -0.246 OA
BRANCH  13  15
ATOM     15  O   UNL     1       9.966   2.163  21.430  0.00  0.00    -0.478 OA
ATOM     16  H   UNL     1      10.674   1.890  22.038  0.00  0.00    +0.295 HD
ENDBRANCH  13  15
ENDBRANCH  12  13
ENDBRANCH   5  11
TORSDOF 5
ENDMDL
MODEL 6
REMARK VINA RESULT:      -4.8      2.415      2.551
REMARK  Name = 
REMARK  6 active torsions:
REMARK  status: ('A' for Active; 'I' for Inactive)
REMARK    1  A    between atoms: C_1  and  O_2
REMARK    2  A    between atoms: O_2  and  C_3
REMARK    3  A    between atoms: C_5  and  C_6
REMARK    4  A    between atoms: C_7  and  C_8
REMARK    5  A    between atoms: C_8  and  O_9
REMARK    6  A    between atoms: C_13  and  O_14
REMARK                            x       y       z     vdW  Elec       q    Type
REMARK                         _______ _______ _______ _____ _____    ______ ____
ROOT
ATOM      1  C   UNL     1       7.987   1.009  22.651  0.00  0.00    +0.162 A 
ATOM      2  C   UNL     1       9.132   0.981  21.850  0.00  0.00    +0.158 A 
ATOM      3  C   UNL     1       9.683  -0.240  21.454  0.00  0.00    +0.050 A 
ATOM      4  C   UNL     1       9.099  -1.438  21.870  0.00  0.00    +0.012 A 
ATOM      5  C   UNL     1       7.959  -1.439  22.683  0.00  0.00    -0.021 A 
ATOM      6  C   UNL     1       7.421  -0.204  23.075  0.00  0.00    +0.057 A 
ENDROOT
BRANCH   1   8
ATOM      7  C   UNL     1       6.356   2.709  22.341  0.00  0.00    +0.277 C 
ATOM      8  O   UNL     1       7.363   2.119  23.156  0.00  0.00    -0.491 OA
ENDBRANCH   1   8
BRANCH   2   9
ATOM      9  O   UNL     1       9.762   2.131  21.469  0.00  0.00    -0.503 OA
ATOM     10  H   UNL     1       9.199   2.891  21.687  0.00  0.00    +0.292 HD
ENDBRANCH   2   9
BRANCH   5  11
ATOM     11  C   UNL     1       7.428  -2.735  23.138  0.00  0.00    +0.015 C 
ATOM     12  C   UNL     1       7.416  -3.853  22.396  0.00  0.00    +0.092 C 
BRANCH  12  13
ATOM     13  C   UNL     1       6.935  -5.173  22.847  0.00  0.00    +0.330 C 
ATOM     14  O   UNL     1       6.348  -5.316  23.906  0.00  0.00    -0.246 OA
BRANCH  13  15
ATOM     15  O   UNL     1       7.219  -6.201  22.024  0.00  0.00    -0.478 OA
ATOM     16  H   UNL     1       7.101  -7.083  22.418  0.00  0.00    +0.295 HD
ENDBRANCH  13  15
ENDBRANCH  12  13
ENDBRANCH   5  11
TORSDOF 5
ENDMDL
MODEL 7
REMARK VINA RESULT:      -4.8      3.447      6.548
REMARK  Name = 
REMARK  6 active torsions:
REMARK  status: ('A' for Active; 'I' for Inactive)
REMARK    1  A    between atoms: C_1  and  O_2
REMARK    2  A    between atoms: O_2  and  C_3
REMARK    3  A    between atoms: C_5  and  C_6
REMARK    4  A    between atoms: C_7  and  C_8
REMARK    5  A    between atoms: C_8  and  O_9
REMARK    6  A    between atoms: C_13  and  O_14
REMARK                            x       y       z     vdW  Elec       q    Type
REMARK                         _______ _______ _______ _____ _____    ______ ____
ROOT
ATOM      1  C   UNL     1       5.600  -5.344  24.490  0.00  0.00    +0.162 A 
ATOM      2  C   UNL     1       5.403  -6.322  23.511  0.00  0.00    +0.158 A 
ATOM      3  C   UNL     1       6.063  -6.231  22.284  0.00  0.00    +0.050 A 
ATOM      4  C   UNL     1       6.913  -5.154  22.025  0.00  0.00    +0.012 A 
ATOM      5  C   UNL     1       7.119  -4.153  22.983  0.00  0.00    -0.021 A 
ATOM      6  C   UNL     1       6.445  -4.257  24.208  0.00  0.00    +0.057 A 
ENDROOT
BRANCH   1   8
ATOM      7  C   UNL     1       3.879  -4.389  25.820  0.00  0.00    +0.277 C 
ATOM      8  O   UNL     1       4.992  -5.270  25.715  0.00  0.00    -0.491 OA
ENDBRANCH   1   8
BRANCH   2   9
ATOM      9  O   UNL     1       4.538  -7.361  23.708  0.00  0.00    -0.503 OA
ATOM     10  H   UNL     1       4.200  -7.663  22.849  0.00  0.00    +0.292 HD
ENDBRANCH   2   9
BRANCH   5  11
ATOM     11  C   UNL     1       7.978  -3.012  22.624  0.00  0.00    +0.015 C 
ATOM     12  C   UNL     1       9.075  -2.644  23.303  0.00  0.00    +0.092 C 
BRANCH  12  13
ATOM     13  C   UNL     1       9.976  -1.535  22.935  0.00  0.00    +0.330 C 
ATOM     14  O   UNL     1      10.312  -0.686  23.743  0.00  0.00    -0.246 OA
BRANCH  13  15
ATOM     15  O   UNL     1      10.368  -1.516  21.647  0.00  0.00    -0.478 OA
ATOM     16  H   UNL     1      10.685  -2.370  21.305  0.00  0.00    +0.295 HD
ENDBRANCH  13  15
ENDBRANCH  12  13
ENDBRANCH   5  11
TORSDOF 5
ENDMDL
MODEL 8
REMARK VINA RESULT:      -4.8      3.542      5.355
REMARK  Name = 
REMARK  6 active torsions:
REMARK  status: ('A' for Active; 'I' for Inactive)
REMARK    1  A    between atoms: C_1  and  O_2
REMARK    2  A    between atoms: O_2  and  C_3
REMARK    3  A    between atoms: C_5  and  C_6
REMARK    4  A    between atoms: C_7  and  C_8
REMARK    5  A    between atoms: C_8  and  O_9
REMARK    6  A    between atoms: C_13  and  O_14
REMARK                            x       y       z     vdW  Elec       q    Type
REMARK                         _______ _______ _______ _____ _____    ______ ____
ROOT
ATOM      1  C   UNL     1       7.464  -4.130  23.301  0.00  0.00    +0.162 A 
ATOM      2  C   UNL     1       8.350  -3.049  23.316  0.00  0.00    +0.158 A 
ATOM      3  C   UNL     1       8.984  -2.677  24.504  0.00  0.00    +0.050 A 
ATOM      4  C   UNL     1       8.724  -3.375  25.684  0.00  0.00    +0.012 A 
ATOM      5  C   UNL     1       7.831  -4.454  25.701  0.00  0.00    -0.021 A 
ATOM      6  C   UNL     1       7.199  -4.812  24.501  0.00  0.00    +0.057 A 
ENDROOT
BRANCH   1   8
ATOM      7  C   UNL     1       7.095  -5.855  21.710  0.00  0.00    +0.277 C 
ATOM      8  O   UNL     1       6.734  -4.582  22.234  0.00  0.00    -0.491 OA
ENDBRANCH   1   8
BRANCH   2   9
ATOM      9  O   UNL     1       8.588  -2.309  22.193  0.00  0.00    -0.503 OA
ATOM     10  H   UNL     1       7.884  -1.649  22.090  0.00  0.00    +0.292 HD
ENDBRANCH   2   9
BRANCH   5  11
ATOM     11  C   UNL     1       7.553  -5.108  26.990  0.00  0.00    +0.015 C 
ATOM     12  C   UNL     1       6.365  -5.625  27.339  0.00  0.00    +0.092 C 
BRANCH  12  13
ATOM     13  C   UNL     1       6.076  -6.327  28.605  0.00  0.00    +0.330 C 
ATOM     14  O   UNL     1       6.363  -5.844  29.687  0.00  0.00    -0.246 OA
BRANCH  13  15
ATOM     15  O   UNL     1       5.509  -7.542  28.472  0.00  0.00    -0.478 OA
ATOM     16  H   UNL     1       4.926  -7.801  29.206  0.00  0.00    +0.295 HD
ENDBRANCH  13  15
ENDBRANCH  12  13
ENDBRANCH   5  11
TORSDOF 5
ENDMDL
MODEL 9
REMARK VINA RESULT:      -4.8      2.572      6.586
REMARK  Name = 
REMARK  6 active torsions:
REMARK  status: ('A' for Active; 'I' for Inactive)
REMARK    1  A    between atoms: C_1  and  O_2
REMARK    2  A    between atoms: O_2  and  C_3
REMARK    3  A    between atoms: C_5  and  C_6
REMARK    4  A    between atoms: C_7  and  C_8
REMARK    5  A    between atoms: C_8  and  O_9
REMARK    6  A    between atoms: C_13  and  O_14
REMARK                            x       y       z     vdW  Elec       q    Type
REMARK                         _______ _______ _______ _____ _____    ______ ____
ROOT
ATOM      1  C   UNL     1       6.279  -5.292  24.914  0.00  0.00    +0.162 A 
ATOM      2  C   UNL     1       6.527  -5.743  26.213  0.00  0.00    +0.158 A 
ATOM      3  C   UNL     1       7.649  -5.293  26.912  0.00  0.00    +0.050 A 
ATOM      4  C   UNL     1       8.537  -4.400  26.309  0.00  0.00    +0.012 A 
ATOM      5  C   UNL     1       8.320  -3.942  25.003  0.00  0.00    -0.021 A 
ATOM      6  C   UNL     1       7.191  -4.407  24.314  0.00  0.00    +0.057 A 
ENDROOT
BRANCH   1   8
ATOM      7  C   UNL     1       4.676  -4.659  23.279  0.00  0.00    +0.277 C 
ATOM      8  O   UNL     1       5.255  -5.676  24.089  0.00  0.00    -0.491 OA
ENDBRANCH   1   8
BRANCH   2   9
ATOM      9  O   UNL     1       5.710  -6.658  26.816  0.00  0.00    -0.503 OA
ATOM     10  H   UNL     1       5.040  -6.191  27.340  0.00  0.00    +0.292 HD
ENDBRANCH   2   9
BRANCH   5  11
ATOM     11  C   UNL     1       9.327  -3.050  24.402  0.00  0.00    +0.015 C 
ATOM     12  C   UNL     1       9.104  -2.259  23.342  0.00  0.00    +0.092 C 
BRANCH  12  13
ATOM     13  C   UNL     1      10.082  -1.323  22.754  0.00  0.00    +0.330 C 
ATOM     14  O   UNL     1      10.605  -0.441  23.414  0.00  0.00    -0.246 OA
BRANCH  13  15
ATOM     15  O   UNL     1      10.324  -1.495  21.440  0.00  0.00    -0.478 OA
ATOM     16  H   UNL     1       9.721  -2.115  20.993  0.00  0.00    +0.295 HD
ENDBRANCH  13  15
ENDBRANCH  12  13
ENDBRANCH   5  11
TORSDOF 5
ENDMDL
