MODEL 1
REMARK VINA RESULT:      -5.0      0.000      0.000
REMARK  Name = 
REMARK  6 active torsions:
REMARK  status: ('A' for Active; 'I' for Inactive)
REMARK    1  A    between atoms: N_1  and  C_2
REMARK    2  A    between atoms: C_2  and  C_4
REMARK    3  A    between atoms: C_2  and  C_11
REMARK    4  A    between atoms: C_4  and  C_5
REMARK    5  A    between atoms: C_11  and  O_13
REMARK    6  A    between atoms: C_11  and  C_14
REMARK                            x       y       z     vdW  Elec       q    Type
REMARK                         _______ _______ _______ _____ _____    ______ ____
ROOT
ATOM      1  C   UNL     1       9.296  -2.668  23.960  0.00  0.00    +0.085 C 
ENDROOT
BRANCH   1   2
ATOM      2  N   UNL     1       9.946  -3.889  24.469  0.00  0.00    -0.325 NA
ATOM      3  H   UNL     1       9.305  -4.355  25.116  0.00  0.00    +0.119 HD
ATOM      4  H   UNL     1      10.102  -4.544  23.701  0.00  0.00    +0.119 HD
ENDBRANCH   1   2
BRANCH   1   5
ATOM      5  C   UNL     1       7.871  -3.003  23.430  0.00  0.00    +0.146 C 
BRANCH   5   6
ATOM      6  C   UNL     1       7.536  -4.484  23.668  0.00  0.00    +0.141 C 
ATOM      7 CL   UNL     1       7.305  -5.353  22.121  0.00  0.00    -0.123 Cl
ENDBRANCH   5   6
BRANCH   5   8
ATOM      8  O   UNL     1       7.795  -2.722  22.022  0.00  0.00    -0.389 OA
ATOM      9  H   UNL     1       8.546  -2.157  21.780  0.00  0.00    +0.210 HD
ENDBRANCH   5   8
ENDBRANCH   1   5
BRANCH   1  10
ATOM     10  C   UNL     1      10.148  -1.977  22.863  0.00  0.00    +0.056 C 
BRANCH  10  11
ATOM     11  C   UNL     1      10.180  -0.466  22.955  0.00  0.00    -0.046 A 
ATOM     12  C   UNL     1      10.605   0.177  24.125  0.00  0.00    +0.004 A 
ATOM     13  C   UNL     1      10.668   1.570  24.184  0.00  0.00    +0.000 A 
ATOM     14  C   UNL     1      10.290   2.333  23.082  0.00  0.00    +0.000 A 
ATOM     15  C   UNL     1       9.845   1.706  21.924  0.00  0.00    +0.000 A 
ATOM     16  C   UNL     1       9.789   0.314  21.857  0.00  0.00    +0.004 A 
ENDBRANCH  10  11
ENDBRANCH   1  10
TORSDOF 6
ENDMDL
MODEL 2
REMARK VINA RESULT:      -5.0      1.589      1.652
REMARK  Name = 
REMARK  6 active torsions:
REMARK  status: ('A' for Active; 'I' for Inactive)
REMARK    1  A    between atoms: N_1  and  C_2
REMARK    2  A    between atoms: C_2  and  C_4
REMARK    3  A    between atoms: C_2  and  C_11
REMARK    4  A    between atoms: C_4  and  C_5
REMARK    5  A    between atoms: C_11  and  O_13
REMARK    6  A    between atoms: C_11  and  C_14
REMARK                            x       y       z     vdW  Elec       q    Type
REMARK                         _______ _______ _______ _____ _____    ______ ____
ROOT
ATOM      1  C   UNL     1       9.278  -2.627  23.884  0.00  0.00    +0.085 C 
ENDROOT
BRANCH   1   2
ATOM      2  N   UNL     1       9.809  -3.885  24.441  0.00  0.00    -0.325 NA
ATOM      3  H   UNL     1       9.062  -4.354  24.960  0.00  0.00    +0.119 HD
ATOM      4  H   UNL     1      10.069  -4.517  23.682  0.00  0.00    +0.119 HD
ENDBRANCH   1   2
BRANCH   1   5
ATOM      5  C   UNL     1       7.942  -2.899  23.132  0.00  0.00    +0.146 C 
BRANCH   5   6
ATOM      6  C   UNL     1       6.760  -2.252  23.871  0.00  0.00    +0.141 C 
ATOM      7 CL   UNL     1       6.677  -0.495  23.545  0.00  0.00    -0.123 Cl
ENDBRANCH   5   6
BRANCH   5   8
ATOM      8  O   UNL     1       7.718  -4.315  23.030  0.00  0.00    -0.389 OA
ATOM      9  H   UNL     1       8.508  -4.724  22.641  0.00  0.00    +0.210 HD
ENDBRANCH   5   8
ENDBRANCH   1   5
BRANCH   1  10
ATOM     10  C   UNL     1      10.307  -1.931  22.954  0.00  0.00    +0.056 C 
BRANCH  10  11
ATOM     11  C   UNL     1      10.244  -0.418  22.975  0.00  0.00    -0.046 A 
ATOM     12  C   UNL     1      10.626   0.305  24.112  0.00  0.00    +0.004 A 
ATOM     13  C   UNL     1      10.602   1.700  24.105  0.00  0.00    +0.000 A 
ATOM     14  C   UNL     1      10.179   2.385  22.968  0.00  0.00    +0.000 A 
ATOM     15  C   UNL     1       9.776   1.678  21.843  0.00  0.00    +0.000 A 
ATOM     16  C   UNL     1       9.807   0.282  21.842  0.00  0.00    +0.004 A 
ENDBRANCH  10  11
ENDBRANCH   1  10
TORSDOF 6
ENDMDL
MODEL 3
REMARK VINA RESULT:      -4.9      2.914      5.134
REMARK  Name = 
REMARK  6 active torsions:
REMARK  status: ('A' for Active; 'I' for Inactive)
REMARK    1  A    between atoms: N_1  and  C_2
REMARK    2  A    between atoms: C_2  and  C_4
REMARK    3  A    between atoms: C_2  and  C_11
REMARK    4  A    between atoms: C_4  and  C_5
REMARK    5  A    between atoms: C_11  and  O_13
REMARK    6  A    between atoms: C_11  and  C_14
REMARK                            x       y       z     vdW  Elec       q    Type
REMARK                         _______ _______ _______ _____ _____    ______ ____
ROOT
ATOM      1  C   UNL     1       9.272  -0.362  21.725  0.00  0.00    +0.085 C 
ENDROOT
BRANCH   1   2
ATOM      2  N   UNL     1      10.232  -1.461  21.515  0.00  0.00    -0.325 NA
ATOM      3  H   UNL     1      11.039  -1.312  22.127  0.00  0.00    +0.119 HD
ATOM      4  H   UNL     1       9.814  -2.346  21.805  0.00  0.00    +0.119 HD
ENDBRANCH   1   2
BRANCH   1   5
ATOM      5  C   UNL     1      10.022   0.919  22.193  0.00  0.00    +0.146 C 
BRANCH   5   6
ATOM      6  C   UNL     1       9.687   1.243  23.657  0.00  0.00    +0.141 C 
ATOM      7 CL   UNL     1      10.901   0.540  24.769  0.00  0.00    -0.123 Cl
ENDBRANCH   5   6
BRANCH   5   8
ATOM      8  O   UNL     1       9.647   2.034  21.365  0.00  0.00    -0.389 OA
ATOM      9  H   UNL     1       9.871   2.854  21.834  0.00  0.00    +0.210 HD
ENDBRANCH   5   8
ENDBRANCH   1   5
BRANCH   1  10
ATOM     10  C   UNL     1       8.162  -0.755  22.735  0.00  0.00    +0.056 C 
BRANCH  10  11
ATOM     11  C   UNL     1       8.188  -2.209  23.159  0.00  0.00    -0.046 A 
ATOM     12  C   UNL     1       8.950  -2.627  24.258  0.00  0.00    +0.004 A 
ATOM     13  C   UNL     1       8.935  -3.963  24.663  0.00  0.00    +0.000 A 
ATOM     14  C   UNL     1       8.173  -4.895  23.964  0.00  0.00    +0.000 A 
ATOM     15  C   UNL     1       7.433  -4.497  22.858  0.00  0.00    +0.000 A 
ATOM     16  C   UNL     1       7.437  -3.161  22.454  0.00  0.00    +0.004 A 
ENDBRANCH  10  11
ENDBRANCH   1  10
TORSDOF 6
ENDMDL
MODEL 4
REMARK VINA RESULT:      -4.9      3.044      4.193
REMARK  Name = 
REMARK  6 active torsions:
REMARK  status: ('A' for Active; 'I' for Inactive)
REMARK    1  A    between atoms: N_1  and  C_2
REMARK    2  A    between atoms: C_2  and  C_4
REMARK    3  A    between atoms: C_2  and  C_11
REMARK    4  A    between atoms: C_4  and  C_5
REMARK    5  A    between atoms: C_11  and  O_13
REMARK    6  A    between atoms: C_11  and  C_14
REMARK                            x       y       z     vdW  Elec       q    Type
REMARK                         _______ _______ _______ _____ _____    ______ ____
ROOT
ATOM      1  C   UNL     1       9.857   1.164  22.303  0.00  0.00    +0.085 C 
ENDROOT
BRANCH   1   2
ATOM      2  N   UNL     1       9.104   1.890  21.265  0.00  0.00    -0.325 NA
ATOM      3  H   UNL     1       8.168   1.482  21.195  0.00  0.00    +0.119 HD
ATOM      4  H   UNL     1       8.971   2.862  21.549  0.00  0.00    +0.119 HD
ENDBRANCH   1   2
BRANCH   1   5
ATOM      5  C   UNL     1       9.384  -0.317  22.368  0.00  0.00    +0.146 C 
BRANCH   5   6
ATOM      6  C   UNL     1       9.561  -0.884  23.786  0.00  0.00    +0.141 C 
ATOM      7 CL   UNL     1      10.046  -2.605  23.739  0.00  0.00    -0.123 Cl
ENDBRANCH   5   6
BRANCH   5   8
ATOM      8  O   UNL     1      10.143  -1.114  21.443  0.00  0.00    -0.389 OA
ATOM      9  H   UNL     1      11.087  -0.957  21.604  0.00  0.00    +0.210 HD
ENDBRANCH   5   8
ENDBRANCH   1   5
BRANCH   1  10
ATOM     10  C   UNL     1       9.729   1.849  23.690  0.00  0.00    +0.056 C 
BRANCH  10  11
ATOM     11  C   UNL     1      10.204   3.287  23.723  0.00  0.00    -0.046 A 
ATOM     12  C   UNL     1      11.522   3.620  23.382  0.00  0.00    +0.004 A 
ATOM     13  C   UNL     1      11.936   4.953  23.377  0.00  0.00    +0.000 A 
ATOM     14  C   UNL     1      11.043   5.962  23.728  0.00  0.00    +0.000 A 
ATOM     15  C   UNL     1       9.741   5.641  24.091  0.00  0.00    +0.000 A 
ATOM     16  C   UNL     1       9.319   4.311  24.089  0.00  0.00    +0.004 A 
ENDBRANCH  10  11
ENDBRANCH   1  10
TORSDOF 6
ENDMDL
MODEL 5
REMARK VINA RESULT:      -4.9      2.145      2.673
REMARK  Name = 
REMARK  6 active torsions:
REMARK  status: ('A' for Active; 'I' for Inactive)
REMARK    1  A    between atoms: N_1  and  C_2
REMARK    2  A    between atoms: C_2  and  C_4
REMARK    3  A    between atoms: C_2  and  C_11
REMARK    4  A    between atoms: C_4  and  C_5
REMARK    5  A    between atoms: C_11  and  O_13
REMARK    6  A    between atoms: C_11  and  C_14
REMARK                            x       y       z     vdW  Elec       q    Type
REMARK                         _______ _______ _______ _____ _____    ______ ____
ROOT
ATOM      1  C   UNL     1       8.528  -3.469  24.142  0.00  0.00    +0.085 C 
ENDROOT
BRANCH   1   2
ATOM      2  N   UNL     1       7.565  -2.660  24.912  0.00  0.00    -0.325 NA
ATOM      3  H   UNL     1       7.329  -3.164  25.770  0.00  0.00    +0.119 HD
ATOM      4  H   UNL     1       8.004  -1.787  25.206  0.00  0.00    +0.119 HD
ENDBRANCH   1   2
BRANCH   1   5
ATOM      5  C   UNL     1       8.655  -4.888  24.769  0.00  0.00    +0.146 C 
BRANCH   5   6
ATOM      6  C   UNL     1       8.037  -4.919  26.175  0.00  0.00    +0.141 C 
ATOM      7 CL   UNL     1       6.455  -5.755  26.169  0.00  0.00    -0.123 Cl
ENDBRANCH   5   6
BRANCH   5   8
ATOM      8  O   UNL     1      10.040  -5.264  24.853  0.00  0.00    -0.389 OA
ATOM      9  H   UNL     1      10.434  -5.185  23.969  0.00  0.00    +0.210 HD
ENDBRANCH   5   8
ENDBRANCH   1   5
BRANCH   1  10
ATOM     10  C   UNL     1       9.914  -2.777  24.049  0.00  0.00    +0.056 C 
BRANCH  10  11
ATOM     11  C   UNL     1       9.902  -1.447  23.325  0.00  0.00    -0.046 A 
ATOM     12  C   UNL     1       9.495  -1.358  21.987  0.00  0.00    +0.004 A 
ATOM     13  C   UNL     1       9.449  -0.121  21.342  0.00  0.00    +0.000 A 
ATOM     14  C   UNL     1       9.825   1.034  22.022  0.00  0.00    +0.000 A 
ATOM     15  C   UNL     1      10.251   0.955  23.341  0.00  0.00    +0.000 A 
ATOM     16  C   UNL     1      10.291  -0.278  23.994  0.00  0.00    +0.004 A 
ENDBRANCH  10  11
ENDBRANCH   1  10
TORSDOF 6
ENDMDL
MODEL 6
REMARK VINA RESULT:      -4.9      1.208      1.812
REMARK  Name = 
REMARK  6 active torsions:
REMARK  status: ('A' for Active; 'I' for Inactive)
REMARK    1  A    between atoms: N_1  and  C_2
REMARK    2  A    between atoms: C_2  and  C_4
REMARK    3  A    between atoms: C_2  and  C_11
REMARK    4  A    between atoms: C_4  and  C_5
REMARK    5  A    between atoms: C_11  and  O_13
REMARK    6  A    between atoms: C_11  and  C_14
REMARK                            x       y       z     vdW  Elec       q    Type
REMARK                         _______ _______ _______ _____ _____    ______ ____
ROOT
ATOM      1  C   UNL     1       9.308  -2.614  24.089  0.00  0.00    +0.085 C 
ENDROOT
BRANCH   1   2
ATOM      2  N   UNL     1       9.933  -3.908  24.417  0.00  0.00    -0.325 NA
ATOM      3  H   UNL     1      10.918  -3.747  24.644  0.00  0.00    +0.119 HD
ATOM      4  H   UNL     1       9.506  -4.294  25.260  0.00  0.00    +0.119 HD
ENDBRANCH   1   2
BRANCH   1   5
ATOM      5  C   UNL     1       7.773  -2.794  23.905  0.00  0.00    +0.146 C 
BRANCH   5   6
ATOM      6  C   UNL     1       7.432  -3.104  22.439  0.00  0.00    +0.141 C 
ATOM      7 CL   UNL     1       5.682  -2.902  22.124  0.00  0.00    -0.123 Cl
ENDBRANCH   5   6
BRANCH   5   8
ATOM      8  O   UNL     1       7.088  -1.594  24.306  0.00  0.00    -0.389 OA
ATOM      9  H   UNL     1       7.720  -0.858  24.285  0.00  0.00    +0.210 HD
ENDBRANCH   5   8
ENDBRANCH   1   5
BRANCH   1  10
ATOM     10  C   UNL     1       9.946  -1.971  22.829  0.00  0.00    +0.056 C 
BRANCH  10  11
ATOM     11  C   UNL     1      10.091  -0.465  22.900  0.00  0.00    -0.046 A 
ATOM     12  C   UNL     1       9.752   0.345  21.809  0.00  0.00    +0.004 A 
ATOM     13  C   UNL     1       9.851   1.734  21.901  0.00  0.00    +0.000 A 
ATOM     14  C   UNL     1      10.305   2.325  23.077  0.00  0.00    +0.000 A 
ATOM     15  C   UNL     1      10.666   1.530  24.158  0.00  0.00    +0.000 A 
ATOM     16  C   UNL     1      10.561   0.141  24.074  0.00  0.00    +0.004 A 
ENDBRANCH  10  11
ENDBRANCH   1  10
TORSDOF 6
ENDMDL
MODEL 7
REMARK VINA RESULT:      -4.8      3.252      5.115
REMARK  Name = 
REMARK  6 active torsions:
REMARK  status: ('A' for Active; 'I' for Inactive)
REMARK    1  A    between atoms: N_1  and  C_2
REMARK    2  A    between atoms: C_2  and  C_4
REMARK    3  A    between atoms: C_2  and  C_11
REMARK    4  A    between atoms: C_4  and  C_5
REMARK    5  A    between atoms: C_11  and  O_13
REMARK    6  A    between atoms: C_11  and  C_14
REMARK                            x       y       z     vdW  Elec       q    Type
REMARK                         _______ _______ _______ _____ _____    ______ ____
ROOT
ATOM      1  C   UNL     1       9.167   0.701  22.153  0.00  0.00    +0.085 C 
ENDROOT
BRANCH   1   2
ATOM      2  N   UNL     1       8.684   1.477  20.997  0.00  0.00    -0.325 NA
ATOM      3  H   UNL     1       7.948   2.114  21.315  0.00  0.00    +0.119 HD
ATOM      4  H   UNL     1       9.435   2.068  20.638  0.00  0.00    +0.119 HD
ENDBRANCH   1   2
BRANCH   1   5
ATOM      5  C   UNL     1      10.237   1.518  22.935  0.00  0.00    +0.146 C 
BRANCH   5   6
ATOM      6  C   UNL     1       9.774   1.783  24.376  0.00  0.00    +0.141 C 
ATOM      7 CL   UNL     1       8.328   0.810  24.781  0.00  0.00    -0.123 Cl
ENDBRANCH   5   6
BRANCH   5   8
ATOM      8  O   UNL     1      10.471   2.774  22.276  0.00  0.00    -0.389 OA
ATOM      9  H   UNL     1      11.383   3.052  22.458  0.00  0.00    +0.210 HD
ENDBRANCH   5   8
ENDBRANCH   1   5
BRANCH   1  10
ATOM     10  C   UNL     1       9.729  -0.680  21.723  0.00  0.00    +0.056 C 
BRANCH  10  11
ATOM     11  C   UNL     1       9.229  -1.844  22.553  0.00  0.00    -0.046 A 
ATOM     12  C   UNL     1       9.967  -2.322  23.644  0.00  0.00    +0.004 A 
ATOM     13  C   UNL     1       9.476  -3.368  24.427  0.00  0.00    +0.000 A 
ATOM     14  C   UNL     1       8.254  -3.958  24.116  0.00  0.00    +0.000 A 
ATOM     15  C   UNL     1       7.524  -3.507  23.023  0.00  0.00    +0.000 A 
ATOM     16  C   UNL     1       8.006  -2.455  22.243  0.00  0.00    +0.004 A 
ENDBRANCH  10  11
ENDBRANCH   1  10
TORSDOF 6
ENDMDL
MODEL 8
REMARK VINA RESULT:      -4.8      3.375      5.158
REMARK  Name = 
REMARK  6 active torsions:
REMARK  status: ('A' for Active; 'I' for Inactive)
REMARK    1  A    between atoms: N_1  and  C_2
REMARK    2  A    between atoms: C_2  and  C_4
REMARK    3  A    between atoms: C_2  and  C_11
REMARK    4  A    between atoms: C_4  and  C_5
REMARK    5  A    between atoms: C_11  and  O_13
REMARK    6  A    between atoms: C_11  and  C_14
REMARK                            x       y       z     vdW  Elec       q    Type
REMARK                         _______ _______ _______ _____ _____    ______ ____
ROOT
ATOM      1  C   UNL     1       9.552   0.246  22.335  0.00  0.00    +0.085 C 
ENDROOT
BRANCH   1   2
ATOM      2  N   UNL     1       9.491  -0.490  21.060  0.00  0.00    -0.325 NA
ATOM      3  H   UNL     1       8.508  -0.624  20.807  0.00  0.00    +0.119 HD
ATOM      4  H   UNL     1       9.903   0.073  20.315  0.00  0.00    +0.119 HD
ENDBRANCH   1   2
BRANCH   1   5
ATOM      5  C   UNL     1      10.009   1.713  22.083  0.00  0.00    +0.146 C 
BRANCH   5   6
ATOM      6  C   UNL     1      10.461   2.375  23.394  0.00  0.00    +0.141 C 
ATOM      7 CL   UNL     1       9.070   2.692  24.473  0.00  0.00    -0.123 Cl
ENDBRANCH   5   6
BRANCH   5   8
ATOM      8  O   UNL     1       8.926   2.473  21.519  0.00  0.00    -0.389 OA
ATOM      9  H   UNL     1       9.251   3.364  21.313  0.00  0.00    +0.210 HD
ENDBRANCH   5   8
ENDBRANCH   1   5
BRANCH   1  10
ATOM     10  C   UNL     1      10.481  -0.456  23.361  0.00  0.00    +0.056 C 
BRANCH  10  11
ATOM     11  C   UNL     1       9.761  -1.367  24.333  0.00  0.00    -0.046 A 
ATOM     12  C   UNL     1       9.141  -0.853  25.480  0.00  0.00    +0.004 A 
ATOM     13  C   UNL     1       8.446  -1.698  26.348  0.00  0.00    +0.000 A 
ATOM     14  C   UNL     1       8.380  -3.064  26.087  0.00  0.00    +0.000 A 
ATOM     15  C   UNL     1       9.011  -3.588  24.966  0.00  0.00    +0.000 A 
ATOM     16  C   UNL     1       9.699  -2.747  24.090  0.00  0.00    +0.004 A 
ENDBRANCH  10  11
ENDBRANCH   1  10
TORSDOF 6
ENDMDL
MODEL 9
REMARK VINA RESULT:      -4.7      4.308      5.876
REMARK  Name = 
REMARK  6 active torsions:
REMARK  status: ('A' for Active; 'I' for Inactive)
REMARK    1  A    between atoms: N_1  and  C_2
REMARK    2  A    between atoms: C_2  and  C_4
REMARK    3  A    between atoms: C_2  and  C_11
REMARK    4  A    between atoms: C_4  and  C_5
REMARK    5  A    between atoms: C_11  and  O_13
REMARK    6  A    between atoms: C_11  and  C_14
REMARK                            x       y       z     vdW  Elec       q    Type
REMARK                         _______ _______ _______ _____ _____    ______ ____
ROOT
ATOM      1  C   UNL     1      10.310   3.344  23.221  0.00  0.00    +0.085 C 
ENDROOT
BRANCH   1   2
ATOM      2  N   UNL     1      11.561   4.090  22.993  0.00  0.00    -0.325 NA
ATOM      3  H   UNL     1      12.040   3.684  22.185  0.00  0.00    +0.119 HD
ATOM      4  H   UNL     1      11.347   5.056  22.741  0.00  0.00    +0.119 HD
ENDBRANCH   1   2
BRANCH   1   5
ATOM      5  C   UNL     1       9.241   4.277  23.861  0.00  0.00    +0.146 C 
BRANCH   5   6
ATOM      6  C   UNL     1       7.840   3.655  23.754  0.00  0.00    +0.141 C 
ATOM      7 CL   UNL     1       7.433   3.268  22.055  0.00  0.00    -0.123 Cl
ENDBRANCH   5   6
BRANCH   5   8
ATOM      8  O   UNL     1       9.245   5.552  23.197  0.00  0.00    -0.389 OA
ATOM      9  H   UNL     1       8.346   5.735  22.877  0.00  0.00    +0.210 HD
ENDBRANCH   5   8
ENDBRANCH   1   5
BRANCH   1  10
ATOM     10  C   UNL     1      10.544   2.085  24.098  0.00  0.00    +0.056 C 
BRANCH  10  11
ATOM     11  C   UNL     1      10.189   0.778  23.421  0.00  0.00    -0.046 A 
ATOM     12  C   UNL     1       9.857   0.736  22.060  0.00  0.00    +0.004 A 
ATOM     13  C   UNL     1       9.571  -0.480  21.438  0.00  0.00    +0.000 A 
ATOM     14  C   UNL     1       9.596  -1.662  22.174  0.00  0.00    +0.000 A 
ATOM     15  C   UNL     1       9.901  -1.630  23.529  0.00  0.00    +0.000 A 
ATOM     16  C   UNL     1      10.197  -0.418  24.153  0.00  0.00    +0.004 A 
ENDBRANCH  10  11
ENDBRANCH   1  10
TORSDOF 6
ENDMDL
