MODEL 1
REMARK VINA RESULT:      -6.7      0.000      0.000
REMARK  Name = 
REMARK  11 active torsions:
REMARK  status: ('A' for Active; 'I' for Inactive)
REMARK    1  A    between atoms: C_1  and  O_2
REMARK    2  A    between atoms: O_2  and  C_3
REMARK    3  A    between atoms: C_4  and  C_5
REMARK    4  A    between atoms: C_5  and  C_6
REMARK    5  A    between atoms: C_7  and  C_8
REMARK    6  A    between atoms: C_7  and  C_9
REMARK    7  A    between atoms: C_9  and  C_10
REMARK    8  A    between atoms: C_10  and  C_11
REMARK    9  A    between atoms: C_11  and  O_12
REMARK   10  A    between atoms: C_14  and  O_15
REMARK   11  A    between atoms: C_22  and  C_23
REMARK                            x       y       z     vdW  Elec       q    Type
REMARK                         _______ _______ _______ _____ _____    ______ ____
ROOT
ATOM      1  C   UNL     1       7.022  -4.701  23.808  0.00  0.00    +0.130 A 
ATOM      2  C   UNL     1       5.811  -5.374  24.126  0.00  0.00    -0.001 A 
ATOM      3  C   UNL     1       4.732  -5.569  23.099  0.00  0.00    +0.048 C 
ATOM      4  C   UNL     1       5.654  -5.867  25.417  0.00  0.00    +0.014 A 
ATOM      5  C   UNL     1       6.631  -5.673  26.365  0.00  0.00    +0.107 A 
ATOM      6  C   UNL     1       6.200  -6.278  27.628  0.00  0.00    +0.343 C 
ATOM      7  O   UNL     1       4.962  -6.821  27.390  0.00  0.00    -0.456 OA
ATOM      8  O   UNL     1       6.790  -6.338  28.686  0.00  0.00    -0.245 OA
ATOM      9  C   UNL     1       7.813  -5.002  26.081  0.00  0.00    +0.138 A 
ATOM     10  C   UNL     1       4.541  -6.620  26.031  0.00  0.00    +0.269 C 
ATOM     11  C   UNL     1       8.065  -4.525  24.773  0.00  0.00    +0.040 A 
ENDROOT
BRANCH   1  13
ATOM     12  C   UNL     1       6.767  -3.024  22.117  0.00  0.00    +0.277 C 
ATOM     13  O   UNL     1       7.145  -4.352  22.479  0.00  0.00    -0.494 OA
ENDBRANCH   1  13
BRANCH   9  14
ATOM     14  O   UNL     1       8.646  -4.827  27.140  0.00  0.00    -0.506 OA
ATOM     15  H   UNL     1       8.849  -3.890  27.259  0.00  0.00    +0.292 HD
ENDBRANCH   9  14
BRANCH  11  16
ATOM     16  C   UNL     1       9.321  -3.763  24.379  0.00  0.00    +0.069 C 
BRANCH  16  17
ATOM     17  C   UNL     1       9.410  -2.302  24.699  0.00  0.00    -0.023 C 
ATOM     18  C   UNL     1       9.824  -1.295  23.899  0.00  0.00    -0.076 C 
ATOM     19  C   UNL     1      10.195  -1.485  22.445  0.00  0.00    +0.039 C 
BRANCH  18  20
ATOM     20  C   UNL     1       9.807   0.151  24.365  0.00  0.00    +0.041 C 
BRANCH  20  21
ATOM     21  C   UNL     1       9.193   1.131  23.361  0.00  0.00    +0.125 C 
BRANCH  21  22
ATOM     22  C   UNL     1      10.182   2.155  22.878  0.00  0.00    +0.305 C 
ATOM     23  O   UNL     1      10.918   2.822  23.589  0.00  0.00    -0.251 OA
BRANCH  22  24
ATOM     24  O   UNL     1      10.186   2.258  21.526  0.00  0.00    -0.481 OA
ATOM     25  H   UNL     1       9.652   3.003  21.188  0.00  0.00    +0.295 HD
ENDBRANCH  22  24
ENDBRANCH  21  22
ENDBRANCH  20  21
ENDBRANCH  18  20
ENDBRANCH  16  17
ENDBRANCH  11  16
TORSDOF 8
ENDMDL
MODEL 2
REMARK VINA RESULT:      -6.3      1.836      3.303
REMARK  Name = 
REMARK  11 active torsions:
REMARK  status: ('A' for Active; 'I' for Inactive)
REMARK    1  A    between atoms: C_1  and  O_2
REMARK    2  A    between atoms: O_2  and  C_3
REMARK    3  A    between atoms: C_4  and  C_5
REMARK    4  A    between atoms: C_5  and  C_6
REMARK    5  A    between atoms: C_7  and  C_8
REMARK    6  A    between atoms: C_7  and  C_9
REMARK    7  A    between atoms: C_9  and  C_10
REMARK    8  A    between atoms: C_10  and  C_11
REMARK    9  A    between atoms: C_11  and  O_12
REMARK   10  A    between atoms: C_14  and  O_15
REMARK   11  A    between atoms: C_22  and  C_23
REMARK                            x       y       z     vdW  Elec       q    Type
REMARK                         _______ _______ _______ _____ _____    ______ ____
ROOT
ATOM      1  C   UNL     1       6.867  -5.165  25.172  0.00  0.00    +0.130 A 
ATOM      2  C   UNL     1       5.991  -5.739  26.133  0.00  0.00    -0.001 A 
ATOM      3  C   UNL     1       6.339  -5.757  27.596  0.00  0.00    +0.048 C 
ATOM      4  C   UNL     1       4.787  -6.274  25.689  0.00  0.00    +0.014 A 
ATOM      5  C   UNL     1       4.475  -6.278  24.350  0.00  0.00    +0.107 A 
ATOM      6  C   UNL     1       3.166  -6.909  24.165  0.00  0.00    +0.343 C 
ATOM      7  O   UNL     1       2.734  -7.268  25.417  0.00  0.00    -0.456 OA
ATOM      8  O   UNL     1       2.538  -7.079  23.141  0.00  0.00    -0.245 OA
ATOM      9  C   UNL     1       5.323  -5.738  23.391  0.00  0.00    +0.138 A 
ATOM     10  C   UNL     1       3.679  -6.904  26.435  0.00  0.00    +0.269 C 
ATOM     11  C   UNL     1       6.538  -5.126  23.780  0.00  0.00    +0.040 A 
ENDROOT
BRANCH   1  13
ATOM     12  C   UNL     1       9.208  -5.276  25.665  0.00  0.00    +0.277 C 
ATOM     13  O   UNL     1       7.979  -4.552  25.712  0.00  0.00    -0.494 OA
ENDBRANCH   1  13
BRANCH   9  14
ATOM     14  O   UNL     1       4.908  -5.884  22.106  0.00  0.00    -0.506 OA
ATOM     15  H   UNL     1       3.989  -5.603  22.014  0.00  0.00    +0.292 HD
ENDBRANCH   9  14
BRANCH  11  16
ATOM     16  C   UNL     1       7.535  -4.530  22.798  0.00  0.00    +0.069 C 
BRANCH  16  17
ATOM     17  C   UNL     1       7.481  -3.059  22.515  0.00  0.00    -0.023 C 
ATOM     18  C   UNL     1       8.385  -2.112  22.844  0.00  0.00    -0.076 C 
ATOM     19  C   UNL     1       9.711  -2.419  23.507  0.00  0.00    +0.039 C 
BRANCH  18  20
ATOM     20  C   UNL     1       8.203  -0.659  22.435  0.00  0.00    +0.041 C 
BRANCH  20  21
ATOM     21  C   UNL     1       9.349  -0.092  21.593  0.00  0.00    +0.125 C 
BRANCH  21  22
ATOM     22  C   UNL     1      10.000   1.101  22.237  0.00  0.00    +0.305 C 
ATOM     23  O   UNL     1      10.546   1.108  23.330  0.00  0.00    -0.251 OA
BRANCH  22  24
ATOM     24  O   UNL     1       9.933   2.202  21.450  0.00  0.00    -0.481 OA
ATOM     25  H   UNL     1       9.028   2.557  21.348  0.00  0.00    +0.295 HD
ENDBRANCH  22  24
ENDBRANCH  21  22
ENDBRANCH  20  21
ENDBRANCH  18  20
ENDBRANCH  16  17
ENDBRANCH  11  16
TORSDOF 8
ENDMDL
MODEL 3
REMARK VINA RESULT:      -6.1      2.143      7.874
REMARK  Name = 
REMARK  11 active torsions:
REMARK  status: ('A' for Active; 'I' for Inactive)
REMARK    1  A    between atoms: C_1  and  O_2
REMARK    2  A    between atoms: O_2  and  C_3
REMARK    3  A    between atoms: C_4  and  C_5
REMARK    4  A    between atoms: C_5  and  C_6
REMARK    5  A    between atoms: C_7  and  C_8
REMARK    6  A    between atoms: C_7  and  C_9
REMARK    7  A    between atoms: C_9  and  C_10
REMARK    8  A    between atoms: C_10  and  C_11
REMARK    9  A    between atoms: C_11  and  O_12
REMARK   10  A    between atoms: C_14  and  O_15
REMARK   11  A    between atoms: C_22  and  C_23
REMARK                            x       y       z     vdW  Elec       q    Type
REMARK                         _______ _______ _______ _____ _____    ______ ____
ROOT
ATOM      1  C   UNL     1       8.873  -0.297  23.846  0.00  0.00    +0.130 A 
ATOM      2  C   UNL     1       9.700   0.827  24.119  0.00  0.00    -0.001 A 
ATOM      3  C   UNL     1      11.046   0.667  24.768  0.00  0.00    +0.048 C 
ATOM      4  C   UNL     1       9.239   2.087  23.753  0.00  0.00    +0.014 A 
ATOM      5  C   UNL     1       8.000   2.239  23.177  0.00  0.00    +0.107 A 
ATOM      6  C   UNL     1       7.766   3.660  22.910  0.00  0.00    +0.343 C 
ATOM      7  O   UNL     1       8.890   4.320  23.342  0.00  0.00    -0.456 OA
ATOM      8  O   UNL     1       6.808   4.193  22.391  0.00  0.00    -0.245 OA
ATOM      9  C   UNL     1       7.168   1.157  22.918  0.00  0.00    +0.138 A 
ATOM     10  C   UNL     1       9.869   3.417  23.878  0.00  0.00    +0.269 C 
ATOM     11  C   UNL     1       7.598  -0.158  23.211  0.00  0.00    +0.040 A 
ENDROOT
BRANCH   1  13
ATOM     12  C   UNL     1      10.118  -2.185  23.058  0.00  0.00    +0.277 C 
ATOM     13  O   UNL     1       9.457  -1.514  24.130  0.00  0.00    -0.494 OA
ENDBRANCH   1  13
BRANCH   9  14
ATOM     14  O   UNL     1       5.947   1.476  22.414  0.00  0.00    -0.506 OA
ATOM     15  H   UNL     1       5.713   2.384  22.646  0.00  0.00    +0.292 HD
ENDBRANCH   9  14
BRANCH  11  16
ATOM     16  C   UNL     1       6.745  -1.397  22.980  0.00  0.00    +0.069 C 
BRANCH  16  17
ATOM     17  C   UNL     1       6.318  -2.211  24.163  0.00  0.00    -0.023 C 
ATOM     18  C   UNL     1       6.421  -3.547  24.338  0.00  0.00    -0.076 C 
ATOM     19  C   UNL     1       7.104  -4.467  23.351  0.00  0.00    +0.039 C 
BRANCH  18  20
ATOM     20  C   UNL     1       5.982  -4.217  25.630  0.00  0.00    +0.041 C 
BRANCH  20  21
ATOM     21  C   UNL     1       6.875  -3.912  26.835  0.00  0.00    +0.125 C 
BRANCH  21  22
ATOM     22  C   UNL     1       8.083  -4.805  26.899  0.00  0.00    +0.305 C 
ATOM     23  O   UNL     1       9.180  -4.551  26.426  0.00  0.00    -0.251 OA
BRANCH  22  24
ATOM     24  O   UNL     1       7.828  -5.955  27.570  0.00  0.00    -0.481 OA
ATOM     25  H   UNL     1       8.202  -6.750  27.142  0.00  0.00    +0.295 HD
ENDBRANCH  22  24
ENDBRANCH  21  22
ENDBRANCH  20  21
ENDBRANCH  18  20
ENDBRANCH  16  17
ENDBRANCH  11  16
TORSDOF 8
ENDMDL
MODEL 4
REMARK VINA RESULT:      -6.1      1.862      3.327
REMARK  Name = 
REMARK  11 active torsions:
REMARK  status: ('A' for Active; 'I' for Inactive)
REMARK    1  A    between atoms: C_1  and  O_2
REMARK    2  A    between atoms: O_2  and  C_3
REMARK    3  A    between atoms: C_4  and  C_5
REMARK    4  A    between atoms: C_5  and  C_6
REMARK    5  A    between atoms: C_7  and  C_8
REMARK    6  A    between atoms: C_7  and  C_9
REMARK    7  A    between atoms: C_9  and  C_10
REMARK    8  A    between atoms: C_10  and  C_11
REMARK    9  A    between atoms: C_11  and  O_12
REMARK   10  A    between atoms: C_14  and  O_15
REMARK   11  A    between atoms: C_22  and  C_23
REMARK                            x       y       z     vdW  Elec       q    Type
REMARK                         _______ _______ _______ _____ _____    ______ ____
ROOT
ATOM      1  C   UNL     1       7.626  -4.003  24.705  0.00  0.00    +0.130 A 
ATOM      2  C   UNL     1       6.994  -4.982  25.518  0.00  0.00    -0.001 A 
ATOM      3  C   UNL     1       7.576  -5.395  26.841  0.00  0.00    +0.048 C 
ATOM      4  C   UNL     1       5.804  -5.544  25.066  0.00  0.00    +0.014 A 
ATOM      5  C   UNL     1       5.279  -5.183  23.847  0.00  0.00    +0.107 A 
ATOM      6  C   UNL     1       4.041  -5.932  23.619  0.00  0.00    +0.343 C 
ATOM      7  O   UNL     1       3.865  -6.727  24.724  0.00  0.00    -0.456 OA
ATOM      8  O   UNL     1       3.278  -5.878  22.677  0.00  0.00    -0.245 OA
ATOM      9  C   UNL     1       5.890  -4.242  23.028  0.00  0.00    +0.138 A 
ATOM     10  C   UNL     1       4.915  -6.546  25.687  0.00  0.00    +0.269 C 
ATOM     11  C   UNL     1       7.071  -3.589  23.453  0.00  0.00    +0.040 A 
ENDROOT
BRANCH   1  13
ATOM     12  C   UNL     1       8.500  -2.305  26.151  0.00  0.00    +0.277 C 
ATOM     13  O   UNL     1       8.732  -3.414  25.283  0.00  0.00    -0.494 OA
ENDBRANCH   1  13
BRANCH   9  14
ATOM     14  O   UNL     1       5.290  -4.048  21.825  0.00  0.00    -0.506 OA
ATOM     15  H   UNL     1       4.381  -3.746  21.946  0.00  0.00    +0.292 HD
ENDBRANCH   9  14
BRANCH  11  16
ATOM     16  C   UNL     1       7.817  -2.563  22.613  0.00  0.00    +0.069 C 
BRANCH  16  17
ATOM     17  C   UNL     1       7.654  -1.109  22.934  0.00  0.00    -0.023 C 
ATOM     18  C   UNL     1       8.366  -0.064  22.460  0.00  0.00    -0.076 C 
ATOM     19  C   UNL     1       9.439  -0.198  21.401  0.00  0.00    +0.039 C 
BRANCH  18  20
ATOM     20  C   UNL     1       8.038   1.368  22.851  0.00  0.00    +0.041 C 
BRANCH  20  21
ATOM     21  C   UNL     1       8.509   1.763  24.253  0.00  0.00    +0.125 C 
BRANCH  21  22
ATOM     22  C   UNL     1       9.995   1.617  24.423  0.00  0.00    +0.305 C 
ATOM     23  O   UNL     1      10.845   2.259  23.826  0.00  0.00    -0.251 OA
BRANCH  22  24
ATOM     24  O   UNL     1      10.310   0.679  25.350  0.00  0.00    -0.481 OA
ATOM     25  H   UNL     1      10.251   1.001  26.270  0.00  0.00    +0.295 HD
ENDBRANCH  22  24
ENDBRANCH  21  22
ENDBRANCH  20  21
ENDBRANCH  18  20
ENDBRANCH  16  17
ENDBRANCH  11  16
TORSDOF 8
ENDMDL
MODEL 5
REMARK VINA RESULT:      -5.9      2.893      7.138
REMARK  Name = 
REMARK  11 active torsions:
REMARK  status: ('A' for Active; 'I' for Inactive)
REMARK    1  A    between atoms: C_1  and  O_2
REMARK    2  A    between atoms: O_2  and  C_3
REMARK    3  A    between atoms: C_4  and  C_5
REMARK    4  A    between atoms: C_5  and  C_6
REMARK    5  A    between atoms: C_7  and  C_8
REMARK    6  A    between atoms: C_7  and  C_9
REMARK    7  A    between atoms: C_9  and  C_10
REMARK    8  A    between atoms: C_10  and  C_11
REMARK    9  A    between atoms: C_11  and  O_12
REMARK   10  A    between atoms: C_14  and  O_15
REMARK   11  A    between atoms: C_22  and  C_23
REMARK                            x       y       z     vdW  Elec       q    Type
REMARK                         _______ _______ _______ _____ _____    ______ ____
ROOT
ATOM      1  C   UNL     1       5.737   0.476  24.564  0.00  0.00    +0.130 A 
ATOM      2  C   UNL     1       6.290   1.655  23.995  0.00  0.00    -0.001 A 
ATOM      3  C   UNL     1       5.754   3.016  24.343  0.00  0.00    +0.048 C 
ATOM      4  C   UNL     1       7.358   1.522  23.115  0.00  0.00    +0.014 A 
ATOM      5  C   UNL     1       7.838   0.278  22.779  0.00  0.00    +0.107 A 
ATOM      6  C   UNL     1       8.945   0.430  21.832  0.00  0.00    +0.343 C 
ATOM      7  O   UNL     1       9.092   1.780  21.629  0.00  0.00    -0.456 OA
ATOM      8  O   UNL     1       9.638  -0.425  21.324  0.00  0.00    -0.245 OA
ATOM      9  C   UNL     1       7.300  -0.889  23.309  0.00  0.00    +0.138 A 
ATOM     10  C   UNL     1       8.148   2.543  22.397  0.00  0.00    +0.269 C 
ATOM     11  C   UNL     1       6.251  -0.824  24.255  0.00  0.00    +0.040 A 
ENDROOT
BRANCH   1  13
ATOM     12  C   UNL     1       5.177   0.708  26.881  0.00  0.00    +0.277 C 
ATOM     13  O   UNL     1       4.764   0.706  25.515  0.00  0.00    -0.494 OA
ENDBRANCH   1  13
BRANCH   9  14
ATOM     14  O   UNL     1       7.833  -2.041  22.824  0.00  0.00    -0.506 OA
ATOM     15  H   UNL     1       7.421  -2.276  21.983  0.00  0.00    +0.292 HD
ENDBRANCH   9  14
BRANCH  11  16
ATOM     16  C   UNL     1       5.590  -2.049  24.868  0.00  0.00    +0.069 C 
BRANCH  16  17
ATOM     17  C   UNL     1       6.414  -2.962  25.725  0.00  0.00    -0.023 C 
ATOM     18  C   UNL     1       6.611  -4.291  25.581  0.00  0.00    -0.076 C 
ATOM     19  C   UNL     1       6.074  -5.092  24.415  0.00  0.00    +0.039 C 
BRANCH  18  20
ATOM     20  C   UNL     1       7.524  -5.067  26.516  0.00  0.00    +0.041 C 
BRANCH  20  21
ATOM     21  C   UNL     1       8.986  -4.615  26.490  0.00  0.00    +0.125 C 
BRANCH  21  22
ATOM     22  C   UNL     1       9.584  -4.679  25.111  0.00  0.00    +0.305 C 
ATOM     23  O   UNL     1       9.863  -3.716  24.413  0.00  0.00    -0.251 OA
BRANCH  22  24
ATOM     24  O   UNL     1       9.804  -5.955  24.712  0.00  0.00    -0.481 OA
ATOM     25  H   UNL     1      10.662  -6.083  24.263  0.00  0.00    +0.295 HD
ENDBRANCH  22  24
ENDBRANCH  21  22
ENDBRANCH  20  21
ENDBRANCH  18  20
ENDBRANCH  16  17
ENDBRANCH  11  16
TORSDOF 8
ENDMDL
MODEL 6
REMARK VINA RESULT:      -5.9      2.030      2.507
REMARK  Name = 
REMARK  11 active torsions:
REMARK  status: ('A' for Active; 'I' for Inactive)
REMARK    1  A    between atoms: C_1  and  O_2
REMARK    2  A    between atoms: O_2  and  C_3
REMARK    3  A    between atoms: C_4  and  C_5
REMARK    4  A    between atoms: C_5  and  C_6
REMARK    5  A    between atoms: C_7  and  C_8
REMARK    6  A    between atoms: C_7  and  C_9
REMARK    7  A    between atoms: C_9  and  C_10
REMARK    8  A    between atoms: C_10  and  C_11
REMARK    9  A    between atoms: C_11  and  O_12
REMARK   10  A    between atoms: C_14  and  O_15
REMARK   11  A    between atoms: C_22  and  C_23
REMARK                            x       y       z     vdW  Elec       q    Type
REMARK                         _______ _______ _______ _____ _____    ______ ____
ROOT
ATOM      1  C   UNL     1       5.814  -5.004  23.084  0.00  0.00    +0.130 A 
ATOM      2  C   UNL     1       4.872  -5.732  23.860  0.00  0.00    -0.001 A 
ATOM      3  C   UNL     1       3.566  -6.193  23.275  0.00  0.00    +0.048 C 
ATOM      4  C   UNL     1       5.195  -6.026  25.181  0.00  0.00    +0.014 A 
ATOM      5  C   UNL     1       6.379  -5.589  25.726  0.00  0.00    +0.107 A 
ATOM      6  C   UNL     1       6.453  -6.023  27.123  0.00  0.00    +0.343 C 
ATOM      7  O   UNL     1       5.294  -6.715  27.370  0.00  0.00    -0.456 OA
ATOM      8  O   UNL     1       7.344  -5.856  27.928  0.00  0.00    -0.245 OA
ATOM      9  C   UNL     1       7.306  -4.860  24.991  0.00  0.00    +0.138 A 
ATOM     10  C   UNL     1       4.448  -6.776  26.211  0.00  0.00    +0.269 C 
ATOM     11  C   UNL     1       7.068  -4.576  23.626  0.00  0.00    +0.040 A 
ENDROOT
BRANCH   1  13
ATOM     12  C   UNL     1       6.124  -5.711  20.817  0.00  0.00    +0.277 C 
ATOM     13  O   UNL     1       5.467  -4.862  21.757  0.00  0.00    -0.494 OA
ENDBRANCH   1  13
BRANCH   9  14
ATOM     14  O   UNL     1       8.392  -4.437  25.690  0.00  0.00    -0.506 OA
ATOM     15  H   UNL     1       9.187  -4.896  25.387  0.00  0.00    +0.292 HD
ENDBRANCH   9  14
BRANCH  11  16
ATOM     16  C   UNL     1       8.017  -3.768  22.753  0.00  0.00    +0.069 C 
BRANCH  16  17
ATOM     17  C   UNL     1       7.788  -2.294  22.609  0.00  0.00    -0.023 C 
ATOM     18  C   UNL     1       8.447  -1.284  23.217  0.00  0.00    -0.076 C 
ATOM     19  C   UNL     1       9.645  -1.492  24.118  0.00  0.00    +0.039 C 
BRANCH  18  20
ATOM     20  C   UNL     1       8.123   0.171  22.921  0.00  0.00    +0.041 C 
BRANCH  20  21
ATOM     21  C   UNL     1       6.679   0.573  23.234  0.00  0.00    +0.125 C 
BRANCH  21  22
ATOM     22  C   UNL     1       6.295   0.279  24.658  0.00  0.00    +0.305 C 
ATOM     23  O   UNL     1       6.839   0.740  25.650  0.00  0.00    -0.251 OA
BRANCH  22  24
ATOM     24  O   UNL     1       5.239  -0.567  24.734  0.00  0.00    -0.481 OA
ATOM     25  H   UNL     1       4.484  -0.304  24.173  0.00  0.00    +0.295 HD
ENDBRANCH  22  24
ENDBRANCH  21  22
ENDBRANCH  20  21
ENDBRANCH  18  20
ENDBRANCH  16  17
ENDBRANCH  11  16
TORSDOF 8
ENDMDL
MODEL 7
REMARK VINA RESULT:      -5.9      2.475      3.531
REMARK  Name = 
REMARK  11 active torsions:
REMARK  status: ('A' for Active; 'I' for Inactive)
REMARK    1  A    between atoms: C_1  and  O_2
REMARK    2  A    between atoms: O_2  and  C_3
REMARK    3  A    between atoms: C_4  and  C_5
REMARK    4  A    between atoms: C_5  and  C_6
REMARK    5  A    between atoms: C_7  and  C_8
REMARK    6  A    between atoms: C_7  and  C_9
REMARK    7  A    between atoms: C_9  and  C_10
REMARK    8  A    between atoms: C_10  and  C_11
REMARK    9  A    between atoms: C_11  and  O_12
REMARK   10  A    between atoms: C_14  and  O_15
REMARK   11  A    between atoms: C_22  and  C_23
REMARK                            x       y       z     vdW  Elec       q    Type
REMARK                         _______ _______ _______ _____ _____    ______ ____
ROOT
ATOM      1  C   UNL     1       5.871  -1.844  25.195  0.00  0.00    +0.130 A 
ATOM      2  C   UNL     1       5.899  -2.763  26.279  0.00  0.00    -0.001 A 
ATOM      3  C   UNL     1       4.984  -2.606  27.461  0.00  0.00    +0.048 C 
ATOM      4  C   UNL     1       6.789  -3.830  26.214  0.00  0.00    +0.014 A 
ATOM      5  C   UNL     1       7.642  -3.966  25.143  0.00  0.00    +0.107 A 
ATOM      6  C   UNL     1       8.471  -5.158  25.340  0.00  0.00    +0.343 C 
ATOM      7  O   UNL     1       8.081  -5.702  26.538  0.00  0.00    -0.456 OA
ATOM      8  O   UNL     1       9.321  -5.625  24.611  0.00  0.00    -0.245 OA
ATOM      9  C   UNL     1       7.644  -3.069  24.082  0.00  0.00    +0.138 A 
ATOM     10  C   UNL     1       7.028  -4.944  27.154  0.00  0.00    +0.269 C 
ATOM     11  C   UNL     1       6.725  -1.995  24.056  0.00  0.00    +0.040 A 
ENDROOT
BRANCH   1  13
ATOM     12  C   UNL     1       5.227   0.354  25.892  0.00  0.00    +0.277 C 
ATOM     13  O   UNL     1       4.880  -0.890  25.286  0.00  0.00    -0.494 OA
ENDBRANCH   1  13
BRANCH   9  14
ATOM     14  O   UNL     1       8.595  -3.297  23.137  0.00  0.00    -0.506 OA
ATOM     15  H   UNL     1       9.115  -4.078  23.364  0.00  0.00    +0.292 HD
ENDBRANCH   9  14
BRANCH  11  16
ATOM     16  C   UNL     1       6.672  -0.956  22.946  0.00  0.00    +0.069 C 
BRANCH  16  17
ATOM     17  C   UNL     1       7.520   0.274  23.065  0.00  0.00    -0.023 C 
ATOM     18  C   UNL     1       8.695   0.541  22.453  0.00  0.00    -0.076 C 
ATOM     19  C   UNL     1       9.325  -0.372  21.424  0.00  0.00    +0.039 C 
BRANCH  18  20
ATOM     20  C   UNL     1       9.410   1.868  22.644  0.00  0.00    +0.041 C 
BRANCH  20  21
ATOM     21  C   UNL     1       9.821   2.162  24.089  0.00  0.00    +0.125 C 
BRANCH  21  22
ATOM     22  C   UNL     1      10.558   1.015  24.722  0.00  0.00    +0.305 C 
ATOM     23  O   UNL     1      11.669   0.621  24.401  0.00  0.00    -0.251 OA
BRANCH  22  24
ATOM     24  O   UNL     1       9.849   0.451  25.730  0.00  0.00    -0.481 OA
ATOM     25  H   UNL     1       9.058  -0.036  25.428  0.00  0.00    +0.295 HD
ENDBRANCH  22  24
ENDBRANCH  21  22
ENDBRANCH  20  21
ENDBRANCH  18  20
ENDBRANCH  16  17
ENDBRANCH  11  16
TORSDOF 8
ENDMDL
MODEL 8
REMARK VINA RESULT:      -5.9      1.658      7.616
REMARK  Name = 
REMARK  11 active torsions:
REMARK  status: ('A' for Active; 'I' for Inactive)
REMARK    1  A    between atoms: C_1  and  O_2
REMARK    2  A    between atoms: O_2  and  C_3
REMARK    3  A    between atoms: C_4  and  C_5
REMARK    4  A    between atoms: C_5  and  C_6
REMARK    5  A    between atoms: C_7  and  C_8
REMARK    6  A    between atoms: C_7  and  C_9
REMARK    7  A    between atoms: C_9  and  C_10
REMARK    8  A    between atoms: C_10  and  C_11
REMARK    9  A    between atoms: C_11  and  O_12
REMARK   10  A    between atoms: C_14  and  O_15
REMARK   11  A    between atoms: C_22  and  C_23
REMARK                            x       y       z     vdW  Elec       q    Type
REMARK                         _______ _______ _______ _____ _____    ______ ____
ROOT
ATOM      1  C   UNL     1       8.378  -2.427  25.219  0.00  0.00    +0.130 A 
ATOM      2  C   UNL     1       8.746  -1.135  25.682  0.00  0.00    -0.001 A 
ATOM      3  C   UNL     1       8.689  -0.782  27.142  0.00  0.00    +0.048 C 
ATOM      4  C   UNL     1       9.181  -0.201  24.747  0.00  0.00    +0.014 A 
ATOM      5  C   UNL     1       9.215  -0.514  23.409  0.00  0.00    +0.107 A 
ATOM      6  C   UNL     1       9.695   0.648  22.657  0.00  0.00    +0.343 C 
ATOM      7  O   UNL     1       9.934   1.632  23.584  0.00  0.00    -0.456 OA
ATOM      8  O   UNL     1       9.886   0.761  21.465  0.00  0.00    -0.245 OA
ATOM      9  C   UNL     1       8.842  -1.765  22.932  0.00  0.00    +0.138 A 
ATOM     10  C   UNL     1       9.648   1.190  24.921  0.00  0.00    +0.269 C 
ATOM     11  C   UNL     1       8.446  -2.780  23.833  0.00  0.00    +0.040 A 
ENDROOT
BRANCH   1  13
ATOM     12  C   UNL     1       9.075  -4.286  26.559  0.00  0.00    +0.277 C 
ATOM     13  O   UNL     1       8.075  -3.324  26.222  0.00  0.00    -0.494 OA
ENDBRANCH   1  13
BRANCH   9  14
ATOM     14  O   UNL     1       8.861  -1.896  21.580  0.00  0.00    -0.506 OA
ATOM     15  H   UNL     1       9.056  -1.048  21.162  0.00  0.00    +0.292 HD
ENDBRANCH   9  14
BRANCH  11  16
ATOM     16  C   UNL     1       8.002  -4.169  23.398  0.00  0.00    +0.069 C 
BRANCH  16  17
ATOM     17  C   UNL     1       6.590  -4.593  23.666  0.00  0.00    -0.023 C 
ATOM     18  C   UNL     1       5.854  -5.511  23.002  0.00  0.00    -0.076 C 
ATOM     19  C   UNL     1       6.401  -6.366  21.880  0.00  0.00    +0.039 C 
BRANCH  18  20
ATOM     20  C   UNL     1       4.441  -5.865  23.436  0.00  0.00    +0.041 C 
BRANCH  20  21
ATOM     21  C   UNL     1       4.169  -5.662  24.928  0.00  0.00    +0.125 C 
BRANCH  21  22
ATOM     22  C   UNL     1       4.461  -6.895  25.739  0.00  0.00    +0.305 C 
ATOM     23  O   UNL     1       5.276  -6.971  26.646  0.00  0.00    -0.251 OA
BRANCH  22  24
ATOM     24  O   UNL     1       3.692  -7.945  25.361  0.00  0.00    -0.481 OA
ATOM     25  H   UNL     1       3.921  -8.302  24.481  0.00  0.00    +0.295 HD
ENDBRANCH  22  24
ENDBRANCH  21  22
ENDBRANCH  20  21
ENDBRANCH  18  20
ENDBRANCH  16  17
ENDBRANCH  11  16
TORSDOF 8
ENDMDL
MODEL 9
REMARK VINA RESULT:      -5.8      2.424      3.143
REMARK  Name = 
REMARK  11 active torsions:
REMARK  status: ('A' for Active; 'I' for Inactive)
REMARK    1  A    between atoms: C_1  and  O_2
REMARK    2  A    between atoms: O_2  and  C_3
REMARK    3  A    between atoms: C_4  and  C_5
REMARK    4  A    between atoms: C_5  and  C_6
REMARK    5  A    between atoms: C_7  and  C_8
REMARK    6  A    between atoms: C_7  and  C_9
REMARK    7  A    between atoms: C_9  and  C_10
REMARK    8  A    between atoms: C_10  and  C_11
REMARK    9  A    between atoms: C_11  and  O_12
REMARK   10  A    between atoms: C_14  and  O_15
REMARK   11  A    between atoms: C_22  and  C_23
REMARK                            x       y       z     vdW  Elec       q    Type
REMARK                         _______ _______ _______ _____ _____    ______ ____
ROOT
ATOM      1  C   UNL     1       7.734  -4.099  24.430  0.00  0.00    +0.130 A 
ATOM      2  C   UNL     1       6.815  -4.819  23.619  0.00  0.00    -0.001 A 
ATOM      3  C   UNL     1       7.288  -5.822  22.604  0.00  0.00    +0.048 C 
ATOM      4  C   UNL     1       5.456  -4.584  23.799  0.00  0.00    +0.014 A 
ATOM      5  C   UNL     1       5.021  -3.653  24.712  0.00  0.00    +0.107 A 
ATOM      6  C   UNL     1       3.557  -3.600  24.683  0.00  0.00    +0.343 C 
ATOM      7  O   UNL     1       3.160  -4.515  23.740  0.00  0.00    -0.456 OA
ATOM      8  O   UNL     1       2.804  -2.927  25.354  0.00  0.00    -0.245 OA
ATOM      9  C   UNL     1       5.902  -2.925  25.502  0.00  0.00    +0.138 A 
ATOM     10  C   UNL     1       4.279  -5.185  23.139  0.00  0.00    +0.269 C 
ATOM     11  C   UNL     1       7.295  -3.155  25.413  0.00  0.00    +0.040 A 
ENDROOT
BRANCH   1  13
ATOM     12  C   UNL     1       9.607  -5.333  25.270  0.00  0.00    +0.277 C 
ATOM     13  O   UNL     1       9.050  -4.479  24.271  0.00  0.00    -0.494 OA
ENDBRANCH   1  13
BRANCH   9  14
ATOM     14  O   UNL     1       5.323  -1.991  26.302  0.00  0.00    -0.506 OA
ATOM     15  H   UNL     1       5.998  -1.475  26.761  0.00  0.00    +0.292 HD
ENDBRANCH   9  14
BRANCH  11  16
ATOM     16  C   UNL     1       8.331  -2.390  26.223  0.00  0.00    +0.069 C 
BRANCH  16  17
ATOM     17  C   UNL     1       9.181  -1.369  25.529  0.00  0.00    -0.023 C 
ATOM     18  C   UNL     1       8.905  -0.066  25.304  0.00  0.00    -0.076 C 
ATOM     19  C   UNL     1       7.664   0.625  25.826  0.00  0.00    +0.039 C 
BRANCH  18  20
ATOM     20  C   UNL     1       9.905   0.855  24.624  0.00  0.00    +0.041 C 
BRANCH  20  21
ATOM     21  C   UNL     1       9.299   1.764  23.552  0.00  0.00    +0.125 C 
BRANCH  21  22
ATOM     22  C   UNL     1       9.743   1.392  22.164  0.00  0.00    +0.305 C 
ATOM     23  O   UNL     1       9.553   0.314  21.623  0.00  0.00    -0.251 OA
BRANCH  22  24
ATOM     24  O   UNL     1      10.386   2.413  21.547  0.00  0.00    -0.481 OA
ATOM     25  H   UNL     1      11.348   2.432  21.717  0.00  0.00    +0.295 HD
ENDBRANCH  22  24
ENDBRANCH  21  22
ENDBRANCH  20  21
ENDBRANCH  18  20
ENDBRANCH  16  17
ENDBRANCH  11  16
TORSDOF 8
ENDMDL
