MODEL 1
REMARK VINA RESULT:      -5.1      0.000      0.000
REMARK  Name = 
REMARK  1 active torsions:
REMARK  status: ('A' for Active; 'I' for Inactive)
REMARK    1  A    between atoms: N_1  and  N_2
REMARK                            x       y       z     vdW  Elec       q    Type
REMARK                         _______ _______ _______ _____ _____    ______ ____
ROOT
ATOM      1  N   UNL     1       5.166  -7.060  27.275  0.00  0.00    -0.266 N 
ATOM      2  H   UNL     1       5.110  -7.826  26.597  0.00  0.00    +0.168 HD
ATOM      3  C   UNL     1       6.159  -6.150  26.774  0.00  0.00    +0.162 A 
ATOM      4  C   UNL     1       6.038  -5.663  25.449  0.00  0.00    +0.026 A 
ATOM      5  C   UNL     1       7.036  -4.788  24.977  0.00  0.00    +0.005 A 
ATOM      6  C   UNL     1       6.969  -4.275  23.667  0.00  0.00    +0.010 A 
ATOM      7  C   UNL     1       5.913  -4.615  22.823  0.00  0.00    +0.001 A 
ATOM      8  C   UNL     1       4.914  -5.469  23.275  0.00  0.00    +0.001 A 
ATOM      9  C   UNL     1       8.064  -4.444  25.844  0.00  0.00    +0.143 A 
ATOM     10  N   UNL     1       8.139  -4.891  27.110  0.00  0.00    -0.155 NA
ATOM     11  C   UNL     1       4.974  -5.987  24.571  0.00  0.00    +0.012 A 
ATOM     12  N   UNL     1       7.172  -5.738  27.576  0.00  0.00    -0.133 NA
ENDROOT
BRANCH   1  13
ATOM     13  N   UNL     1       5.320  -7.517  28.608  0.00  0.00    -0.255 NA
ATOM     14  H   UNL     1       6.204  -8.033  28.686  0.00  0.00    +0.140 HD
ATOM     15  H   UNL     1       5.410  -6.724  29.246  0.00  0.00    +0.140 HD
ENDBRANCH   1  13
TORSDOF 1
ENDMDL
MODEL 2
REMARK VINA RESULT:      -5.1      2.687      3.696
REMARK  Name = 
REMARK  1 active torsions:
REMARK  status: ('A' for Active; 'I' for Inactive)
REMARK    1  A    between atoms: N_1  and  N_2
REMARK                            x       y       z     vdW  Elec       q    Type
REMARK                         _______ _______ _______ _____ _____    ______ ____
ROOT
ATOM      1  N   UNL     1       9.114  -5.430  25.124  0.00  0.00    -0.266 N 
ATOM      2  H   UNL     1       8.826  -6.270  24.612  0.00  0.00    +0.168 HD
ATOM      3  C   UNL     1       8.735  -4.309  24.309  0.00  0.00    +0.162 A 
ATOM      4  C   UNL     1       7.394  -4.209  23.862  0.00  0.00    +0.026 A 
ATOM      5  C   UNL     1       7.054  -3.111  23.048  0.00  0.00    +0.005 A 
ATOM      6  C   UNL     1       5.737  -2.961  22.571  0.00  0.00    +0.010 A 
ATOM      7  C   UNL     1       4.750  -3.888  22.904  0.00  0.00    +0.001 A 
ATOM      8  C   UNL     1       5.066  -4.973  23.713  0.00  0.00    +0.001 A 
ATOM      9  C   UNL     1       8.047  -2.187  22.751  0.00  0.00    +0.143 A 
ATOM     10  N   UNL     1       9.304  -2.284  23.217  0.00  0.00    -0.155 NA
ATOM     11  C   UNL     1       6.370  -5.132  24.188  0.00  0.00    +0.012 A 
ATOM     12  N   UNL     1       9.641  -3.346  24.011  0.00  0.00    -0.133 NA
ENDROOT
BRANCH   1  13
ATOM     13  N   UNL     1      10.463  -5.488  25.558  0.00  0.00    -0.255 NA
ATOM     14  H   UNL     1      10.487  -5.456  26.584  0.00  0.00    +0.140 HD
ATOM     15  H   UNL     1      10.878  -6.386  25.304  0.00  0.00    +0.140 HD
ENDBRANCH   1  13
TORSDOF 1
ENDMDL
MODEL 3
REMARK VINA RESULT:      -5.0      1.278      2.976
REMARK  Name = 
REMARK  1 active torsions:
REMARK  status: ('A' for Active; 'I' for Inactive)
REMARK    1  A    between atoms: N_1  and  N_2
REMARK                            x       y       z     vdW  Elec       q    Type
REMARK                         _______ _______ _______ _____ _____    ______ ____
ROOT
ATOM      1  N   UNL     1       8.890  -4.752  25.708  0.00  0.00    -0.266 N 
ATOM      2  H   UNL     1       8.845  -3.819  25.287  0.00  0.00    +0.168 HD
ATOM      3  C   UNL     1       7.571  -5.311  25.591  0.00  0.00    +0.162 A 
ATOM      4  C   UNL     1       6.951  -5.345  24.318  0.00  0.00    +0.026 A 
ATOM      5  C   UNL     1       5.650  -5.880  24.235  0.00  0.00    +0.005 A 
ATOM      6  C   UNL     1       4.983  -5.938  22.996  0.00  0.00    +0.010 A 
ATOM      7  C   UNL     1       5.600  -5.478  21.834  0.00  0.00    +0.001 A 
ATOM      8  C   UNL     1       6.887  -4.955  21.895  0.00  0.00    +0.001 A 
ATOM      9  C   UNL     1       5.065  -6.356  25.401  0.00  0.00    +0.143 A 
ATOM     10  N   UNL     1       5.688  -6.345  26.593  0.00  0.00    -0.155 NA
ATOM     11  C   UNL     1       7.555  -4.890  23.120  0.00  0.00    +0.012 A 
ATOM     12  N   UNL     1       6.952  -5.831  26.680  0.00  0.00    -0.133 NA
ENDROOT
BRANCH   1  13
ATOM     13  N   UNL     1       9.478  -4.744  26.998  0.00  0.00    -0.255 NA
ATOM     14  H   UNL     1      10.020  -5.606  27.125  0.00  0.00    +0.140 HD
ATOM     15  H   UNL     1      10.154  -3.982  27.074  0.00  0.00    +0.140 HD
ENDBRANCH   1  13
TORSDOF 1
ENDMDL
MODEL 4
REMARK VINA RESULT:      -5.0      2.270      3.715
REMARK  Name = 
REMARK  1 active torsions:
REMARK  status: ('A' for Active; 'I' for Inactive)
REMARK    1  A    between atoms: N_1  and  N_2
REMARK                            x       y       z     vdW  Elec       q    Type
REMARK                         _______ _______ _______ _____ _____    ______ ____
ROOT
ATOM      1  N   UNL     1       8.478  -5.055  26.522  0.00  0.00    -0.266 N 
ATOM      2  H   UNL     1       8.709  -4.161  26.966  0.00  0.00    +0.168 HD
ATOM      3  C   UNL     1       7.703  -4.737  25.354  0.00  0.00    +0.162 A 
ATOM      4  C   UNL     1       8.224  -3.812  24.416  0.00  0.00    +0.026 A 
ATOM      5  C   UNL     1       7.436  -3.504  23.290  0.00  0.00    +0.005 A 
ATOM      6  C   UNL     1       7.902  -2.589  22.325  0.00  0.00    +0.010 A 
ATOM      7  C   UNL     1       9.150  -1.984  22.463  0.00  0.00    +0.001 A 
ATOM      8  C   UNL     1       9.945  -2.283  23.563  0.00  0.00    +0.001 A 
ATOM      9  C   UNL     1       6.208  -4.138  23.161  0.00  0.00    +0.143 A 
ATOM     10  N   UNL     1       5.749  -5.040  24.046  0.00  0.00    -0.155 NA
ATOM     11  C   UNL     1       9.491  -3.186  24.527  0.00  0.00    +0.012 A 
ATOM     12  N   UNL     1       6.511  -5.347  25.140  0.00  0.00    -0.133 NA
ENDROOT
BRANCH   1  13
ATOM     13  N   UNL     1       7.923  -5.991  27.431  0.00  0.00    -0.255 NA
ATOM     14  H   UNL     1       7.222  -5.519  28.013  0.00  0.00    +0.140 HD
ATOM     15  H   UNL     1       7.413  -6.717  26.925  0.00  0.00    +0.140 HD
ENDBRANCH   1  13
TORSDOF 1
ENDMDL
MODEL 5
REMARK VINA RESULT:      -5.0      3.369      4.991
REMARK  Name = 
REMARK  1 active torsions:
REMARK  status: ('A' for Active; 'I' for Inactive)
REMARK    1  A    between atoms: N_1  and  N_2
REMARK                            x       y       z     vdW  Elec       q    Type
REMARK                         _______ _______ _______ _____ _____    ______ ____
ROOT
ATOM      1  N   UNL     1       8.732  -1.580  21.870  0.00  0.00    -0.266 N 
ATOM      2  H   UNL     1       7.990  -0.916  22.111  0.00  0.00    +0.168 HD
ATOM      3  C   UNL     1       8.710  -2.596  22.886  0.00  0.00    +0.162 A 
ATOM      4  C   UNL     1       7.490  -3.260  23.165  0.00  0.00    +0.026 A 
ATOM      5  C   UNL     1       7.491  -4.238  24.180  0.00  0.00    +0.005 A 
ATOM      6  C   UNL     1       6.307  -4.929  24.502  0.00  0.00    +0.010 A 
ATOM      7  C   UNL     1       5.121  -4.665  23.820  0.00  0.00    +0.001 A 
ATOM      8  C   UNL     1       5.103  -3.710  22.810  0.00  0.00    +0.001 A 
ATOM      9  C   UNL     1       8.690  -4.502  24.828  0.00  0.00    +0.143 A 
ATOM     10  N   UNL     1       9.844  -3.884  24.521  0.00  0.00    -0.155 NA
ATOM     11  C   UNL     1       6.271  -3.017  22.485  0.00  0.00    +0.012 A 
ATOM     12  N   UNL     1       9.851  -2.936  23.535  0.00  0.00    -0.133 NA
ENDROOT
BRANCH   1  13
ATOM     13  N   UNL     1       9.974  -0.946  21.616  0.00  0.00    -0.255 NA
ATOM     14  H   UNL     1      10.076  -0.142  22.246  0.00  0.00    +0.140 HD
ATOM     15  H   UNL     1      10.746  -1.574  21.848  0.00  0.00    +0.140 HD
ENDBRANCH   1  13
TORSDOF 1
ENDMDL
MODEL 6
REMARK VINA RESULT:      -4.9      1.884      2.751
REMARK  Name = 
REMARK  1 active torsions:
REMARK  status: ('A' for Active; 'I' for Inactive)
REMARK    1  A    between atoms: N_1  and  N_2
REMARK                            x       y       z     vdW  Elec       q    Type
REMARK                         _______ _______ _______ _____ _____    ______ ____
ROOT
ATOM      1  N   UNL     1       3.794  -7.190  23.521  0.00  0.00    -0.266 N 
ATOM      2  H   UNL     1       4.306  -7.597  22.732  0.00  0.00    +0.168 HD
ATOM      3  C   UNL     1       4.781  -6.597  24.381  0.00  0.00    +0.162 A 
ATOM      4  C   UNL     1       5.703  -5.674  23.830  0.00  0.00    +0.026 A 
ATOM      5  C   UNL     1       6.673  -5.122  24.691  0.00  0.00    +0.005 A 
ATOM      6  C   UNL     1       7.618  -4.200  24.199  0.00  0.00    +0.010 A 
ATOM      7  C   UNL     1       7.603  -3.813  22.860  0.00  0.00    +0.001 A 
ATOM      8  C   UNL     1       6.649  -4.341  21.999  0.00  0.00    +0.001 A 
ATOM      9  C   UNL     1       6.651  -5.503  26.026  0.00  0.00    +0.143 A 
ATOM     10  N   UNL     1       5.743  -6.354  26.534  0.00  0.00    -0.155 NA
ATOM     11  C   UNL     1       5.709  -5.258  22.476  0.00  0.00    +0.012 A 
ATOM     12  N   UNL     1       4.796  -6.891  25.705  0.00  0.00    -0.133 NA
ENDROOT
BRANCH   1  13
ATOM     13  N   UNL     1       2.884  -8.103  24.113  0.00  0.00    -0.255 NA
ATOM     14  H   UNL     1       3.155  -8.260  25.091  0.00  0.00    +0.140 HD
ATOM     15  H   UNL     1       1.948  -7.695  24.151  0.00  0.00    +0.140 HD
ENDBRANCH   1  13
TORSDOF 1
ENDMDL
MODEL 7
REMARK VINA RESULT:      -4.9      1.425      3.000
REMARK  Name = 
REMARK  1 active torsions:
REMARK  status: ('A' for Active; 'I' for Inactive)
REMARK    1  A    between atoms: N_1  and  N_2
REMARK                            x       y       z     vdW  Elec       q    Type
REMARK                         _______ _______ _______ _____ _____    ______ ____
ROOT
ATOM      1  N   UNL     1       8.989  -5.228  24.926  0.00  0.00    -0.266 N 
ATOM      2  H   UNL     1       8.893  -4.319  24.463  0.00  0.00    +0.168 HD
ATOM      3  C   UNL     1       7.869  -5.349  25.818  0.00  0.00    +0.162 A 
ATOM      4  C   UNL     1       6.561  -5.164  25.305  0.00  0.00    +0.026 A 
ATOM      5  C   UNL     1       5.482  -5.268  26.205  0.00  0.00    +0.005 A 
ATOM      6  C   UNL     1       4.160  -5.092  25.751  0.00  0.00    +0.010 A 
ATOM      7  C   UNL     1       3.898  -4.823  24.409  0.00  0.00    +0.001 A 
ATOM      8  C   UNL     1       4.949  -4.726  23.506  0.00  0.00    +0.001 A 
ATOM      9  C   UNL     1       5.766  -5.562  27.531  0.00  0.00    +0.143 A 
ATOM     10  N   UNL     1       7.013  -5.768  27.989  0.00  0.00    -0.155 NA
ATOM     11  C   UNL     1       6.264  -4.895  23.946  0.00  0.00    +0.012 A 
ATOM     12  N   UNL     1       8.066  -5.672  27.120  0.00  0.00    -0.133 NA
ENDROOT
BRANCH   1  13
ATOM     13  N   UNL     1      10.280  -5.428  25.478  0.00  0.00    -0.255 NA
ATOM     14  H   UNL     1      10.854  -5.953  24.808  0.00  0.00    +0.140 HD
ATOM     15  H   UNL     1      10.755  -4.532  25.600  0.00  0.00    +0.140 HD
ENDBRANCH   1  13
TORSDOF 1
ENDMDL
MODEL 8
REMARK VINA RESULT:      -4.9      2.808      3.832
REMARK  Name = 
REMARK  1 active torsions:
REMARK  status: ('A' for Active; 'I' for Inactive)
REMARK    1  A    between atoms: N_1  and  N_2
REMARK                            x       y       z     vdW  Elec       q    Type
REMARK                         _______ _______ _______ _____ _____    ______ ____
ROOT
ATOM      1  N   UNL     1       4.714  -6.825  24.435  0.00  0.00    -0.266 N 
ATOM      2  H   UNL     1       4.477  -6.330  25.300  0.00  0.00    +0.168 HD
ATOM      3  C   UNL     1       5.395  -5.874  23.599  0.00  0.00    +0.162 A 
ATOM      4  C   UNL     1       6.513  -5.179  24.121  0.00  0.00    +0.026 A 
ATOM      5  C   UNL     1       7.150  -4.238  23.288  0.00  0.00    +0.005 A 
ATOM      6  C   UNL     1       8.265  -3.515  23.755  0.00  0.00    +0.010 A 
ATOM      7  C   UNL     1       8.760  -3.724  25.040  0.00  0.00    +0.001 A 
ATOM      8  C   UNL     1       8.151  -4.655  25.873  0.00  0.00    +0.001 A 
ATOM      9  C   UNL     1       6.653  -4.065  22.003  0.00  0.00    +0.143 A 
ATOM     10  N   UNL     1       5.612  -4.763  21.516  0.00  0.00    -0.155 NA
ATOM     11  C   UNL     1       7.042  -5.375  25.421  0.00  0.00    +0.012 A 
ATOM     12  N   UNL     1       4.991  -5.681  22.319  0.00  0.00    -0.133 NA
ENDROOT
BRANCH   1  13
ATOM     13  N   UNL     1       3.605  -7.506  23.870  0.00  0.00    -0.255 NA
ATOM     14  H   UNL     1       2.740  -7.042  24.170  0.00  0.00    +0.140 HD
ATOM     15  H   UNL     1       3.620  -7.424  22.852  0.00  0.00    +0.140 HD
ENDBRANCH   1  13
TORSDOF 1
ENDMDL
MODEL 9
REMARK VINA RESULT:      -4.8      4.373      6.090
REMARK  Name = 
REMARK  1 active torsions:
REMARK  status: ('A' for Active; 'I' for Inactive)
REMARK    1  A    between atoms: N_1  and  N_2
REMARK                            x       y       z     vdW  Elec       q    Type
REMARK                         _______ _______ _______ _____ _____    ______ ____
ROOT
ATOM      1  N   UNL     1       9.156   0.059  26.412  0.00  0.00    -0.266 N 
ATOM      2  H   UNL     1       8.541   0.834  26.145  0.00  0.00    +0.168 HD
ATOM      3  C   UNL     1       8.995  -0.951  25.403  0.00  0.00    +0.162 A 
ATOM      4  C   UNL     1       9.170  -0.596  24.043  0.00  0.00    +0.026 A 
ATOM      5  C   UNL     1       8.986  -1.602  23.073  0.00  0.00    +0.005 A 
ATOM      6  C   UNL     1       9.145  -1.306  21.705  0.00  0.00    +0.010 A 
ATOM      7  C   UNL     1       9.494  -0.022  21.290  0.00  0.00    +0.001 A 
ATOM      8  C   UNL     1       9.688   0.980  22.234  0.00  0.00    +0.001 A 
ATOM      9  C   UNL     1       8.664  -2.879  23.511  0.00  0.00    +0.143 A 
ATOM     10  N   UNL     1       8.538  -3.201  24.811  0.00  0.00    -0.155 NA
ATOM     11  C   UNL     1       9.529   0.698  23.593  0.00  0.00    +0.012 A 
ATOM     12  N   UNL     1       8.718  -2.231  25.758  0.00  0.00    -0.133 NA
ENDROOT
BRANCH   1  13
ATOM     13  N   UNL     1       8.980  -0.339  27.762  0.00  0.00    -0.255 NA
ATOM     14  H   UNL     1       8.164   0.146  28.151  0.00  0.00    +0.140 HD
ATOM     15  H   UNL     1       8.754  -1.335  27.810  0.00  0.00    +0.140 HD
ENDBRANCH   1  13
TORSDOF 1
ENDMDL
