MODEL 1
REMARK VINA RESULT:      -8.0      0.000      0.000
REMARK  Name = 
REMARK  11 active torsions:
REMARK  status: ('A' for Active; 'I' for Inactive)
REMARK    1  A    between atoms: C_1  and  O_2
REMARK    2  A    between atoms: O_2  and  C_3
REMARK    3  A    between atoms: C_15  and  C_16
REMARK    4  A    between atoms: N_18  and  C_19
REMARK    5  A    between atoms: C_22  and  C_23
REMARK    6  A    between atoms: C_23  and  C_24
REMARK    7  A    between atoms: C_24  and  N_25
REMARK    8  A    between atoms: C_30  and  O_31
REMARK    9  A    between atoms: O_31  and  C_32
REMARK   10  A    between atoms: C_33  and  O_34
REMARK   11  A    between atoms: O_34  and  C_35
REMARK                            x       y       z     vdW  Elec       q    Type
REMARK                         _______ _______ _______ _____ _____    ______ ____
ROOT
ATOM      1  C   UNL     1       7.307  -2.283  23.028  0.00  0.00    +0.250 C 
ATOM      2  N   UNL     1       8.681  -2.094  22.981  0.00  0.00    -0.281 N 
ATOM      3  H   UNL     1       9.275  -2.886  22.767  0.00  0.00    +0.155 HD
ATOM      4  O   UNL     1       6.470  -1.414  23.252  0.00  0.00    -0.270 OA
ENDROOT
BRANCH   1  10
ATOM      5  C   UNL     1       4.853  -3.670  27.329  0.00  0.00    +0.144 A 
ATOM      6  C   UNL     1       5.095  -4.322  26.104  0.00  0.00    +0.093 A 
ATOM      7  N   UNL     1       5.713  -3.671  25.020  0.00  0.00    -0.351 N 
ATOM      8  H   UNL     1       6.248  -2.829  25.256  0.00  0.00    +0.166 HD
ATOM      9  C   UNL     1       6.073  -4.312  23.811  0.00  0.00    +0.063 A 
ATOM     10  C   UNL     1       6.773  -3.649  22.773  0.00  0.00    +0.061 A 
ATOM     11  C   UNL     1       7.055  -4.315  21.569  0.00  0.00    +0.015 A 
ATOM     12  C   UNL     1       6.632  -5.634  21.381  0.00  0.00    +0.002 A 
ATOM     13  C   UNL     1       5.928  -6.290  22.389  0.00  0.00    +0.014 A 
ATOM     14  C   UNL     1       5.641  -5.628  23.589  0.00  0.00    +0.046 A 
ATOM     15  C   UNL     1       4.896  -6.335  24.659  0.00  0.00    +0.197 A 
ATOM     16  O   UNL     1       4.513  -7.489  24.490  0.00  0.00    -0.287 OA
ATOM     17  C   UNL     1       4.631  -5.637  25.940  0.00  0.00    +0.049 A 
ATOM     18  C   UNL     1       3.947  -6.297  26.964  0.00  0.00    +0.014 A 
ATOM     19  C   UNL     1       3.688  -5.635  28.159  0.00  0.00    +0.004 A 
ATOM     20  C   UNL     1       4.131  -4.324  28.338  0.00  0.00    +0.048 A 
BRANCH   5  22
ATOM     21  C   UNL     1       4.305  -1.383  27.538  0.00  0.00    +0.277 C 
ATOM     22  O   UNL     1       5.322  -2.384  27.463  0.00  0.00    -0.493 OA
ENDBRANCH   5  22
ENDBRANCH   1  10
BRANCH   2  23
ATOM     23  C   UNL     1       9.335  -0.838  23.068  0.00  0.00    +0.034 A 
ATOM     24  C   UNL     1       9.393  -0.018  21.933  0.00  0.00    +0.023 A 
ATOM     25  C   UNL     1       9.950   1.270  22.009  0.00  0.00    +0.005 A 
ATOM     26  C   UNL     1      10.453   1.759  23.220  0.00  0.00    -0.046 A 
ATOM     27  C   UNL     1      10.419   0.926  24.339  0.00  0.00    +0.005 A 
ATOM     28  C   UNL     1       9.884  -0.357  24.256  0.00  0.00    +0.023 A 
BRANCH  26  29
ATOM     29  C   UNL     1      10.962   3.173  23.365  0.00  0.00    +0.050 C 
BRANCH  29  30
ATOM     30  C   UNL     1       9.903   4.127  23.950  0.00  0.00    +0.089 C 
BRANCH  30  31
ATOM     31  N   UNL     1       8.515   3.817  23.559  0.00  0.00    -0.298 NA
ATOM     32  C   UNL     1       7.674   3.464  24.723  0.00  0.00    +0.120 C 
ATOM     33  C   UNL     1       6.204   3.331  24.388  0.00  0.00    -0.026 A 
ATOM     34  C   UNL     1       5.668   3.914  23.236  0.00  0.00    -0.038 A 
ATOM     35  C   UNL     1       4.300   3.782  22.959  0.00  0.00    +0.053 A 
ATOM     36  C   UNL     1       3.438   3.094  23.827  0.00  0.00    +0.162 A 
ATOM     37  C   UNL     1       3.972   2.526  24.998  0.00  0.00    +0.162 A 
ATOM     38  C   UNL     1       6.572   4.623  22.260  0.00  0.00    +0.051 C 
ATOM     39  C   UNL     1       5.344   2.655  25.263  0.00  0.00    +0.054 A 
ATOM     40  C   UNL     1       7.927   4.983  22.875  0.00  0.00    +0.089 C 
BRANCH  37  41
ATOM     41  O   UNL     1       3.325   1.820  25.982  0.00  0.00    -0.491 OA
ATOM     42  C   UNL     1       3.443   2.254  27.327  0.00  0.00    +0.277 C 
ENDBRANCH  37  41
BRANCH  36  43
ATOM     43  O   UNL     1       2.098   2.954  23.581  0.00  0.00    -0.491 OA
ATOM     44  C   UNL     1       1.635   3.145  22.251  0.00  0.00    +0.277 C 
ENDBRANCH  36  43
ENDBRANCH  30  31
ENDBRANCH  29  30
ENDBRANCH  26  29
ENDBRANCH   2  23
TORSDOF 8
ENDMDL
MODEL 2
REMARK VINA RESULT:      -7.3      1.555      2.066
REMARK  Name = 
REMARK  11 active torsions:
REMARK  status: ('A' for Active; 'I' for Inactive)
REMARK    1  A    between atoms: C_1  and  O_2
REMARK    2  A    between atoms: O_2  and  C_3
REMARK    3  A    between atoms: C_15  and  C_16
REMARK    4  A    between atoms: N_18  and  C_19
REMARK    5  A    between atoms: C_22  and  C_23
REMARK    6  A    between atoms: C_23  and  C_24
REMARK    7  A    between atoms: C_24  and  N_25
REMARK    8  A    between atoms: C_30  and  O_31
REMARK    9  A    between atoms: O_31  and  C_32
REMARK   10  A    between atoms: C_33  and  O_34
REMARK   11  A    between atoms: O_34  and  C_35
REMARK                            x       y       z     vdW  Elec       q    Type
REMARK                         _______ _______ _______ _____ _____    ______ ____
ROOT
ATOM      1  C   UNL     1       8.014  -2.950  22.996  0.00  0.00    +0.250 C 
ATOM      2  N   UNL     1       7.746  -1.798  22.272  0.00  0.00    -0.281 N 
ATOM      3  H   UNL     1       7.002  -1.816  21.584  0.00  0.00    +0.155 HD
ATOM      4  O   UNL     1       8.865  -3.065  23.872  0.00  0.00    -0.270 OA
ENDROOT
BRANCH   1  10
ATOM      5  C   UNL     1       5.430  -3.947  27.329  0.00  0.00    +0.144 A 
ATOM      6  C   UNL     1       5.500  -4.591  26.078  0.00  0.00    +0.093 A 
ATOM      7  N   UNL     1       6.213  -4.045  24.995  0.00  0.00    -0.351 N 
ATOM      8  H   UNL     1       6.919  -3.342  25.239  0.00  0.00    +0.166 HD
ATOM      9  C   UNL     1       6.401  -4.703  23.757  0.00  0.00    +0.063 A 
ATOM     10  C   UNL     1       7.200  -4.164  22.717  0.00  0.00    +0.061 A 
ATOM     11  C   UNL     1       7.305  -4.831  21.485  0.00  0.00    +0.015 A 
ATOM     12  C   UNL     1       6.611  -6.025  21.272  0.00  0.00    +0.002 A 
ATOM     13  C   UNL     1       5.810  -6.555  22.281  0.00  0.00    +0.014 A 
ATOM     14  C   UNL     1       5.698  -5.891  23.508  0.00  0.00    +0.046 A 
ATOM     15  C   UNL     1       4.847  -6.465  24.581  0.00  0.00    +0.197 A 
ATOM     16  O   UNL     1       4.226  -7.506  24.388  0.00  0.00    -0.287 OA
ATOM     17  C   UNL     1       4.766  -5.773  25.889  0.00  0.00    +0.049 A 
ATOM     18  C   UNL     1       3.984  -6.313  26.914  0.00  0.00    +0.014 A 
ATOM     19  C   UNL     1       3.899  -5.654  28.136  0.00  0.00    +0.004 A 
ATOM     20  C   UNL     1       4.611  -4.472  28.340  0.00  0.00    +0.048 A 
BRANCH   5  22
ATOM     21  C   UNL     1       5.393  -1.590  27.445  0.00  0.00    +0.277 C 
ATOM     22  O   UNL     1       6.162  -2.793  27.486  0.00  0.00    -0.493 OA
ENDBRANCH   5  22
ENDBRANCH   1  10
BRANCH   2  23
ATOM     23  C   UNL     1       8.336  -0.529  22.509  0.00  0.00    +0.034 A 
ATOM     24  C   UNL     1       8.169   0.078  23.761  0.00  0.00    +0.023 A 
ATOM     25  C   UNL     1       8.817   1.289  24.060  0.00  0.00    +0.005 A 
ATOM     26  C   UNL     1       9.644   1.907  23.115  0.00  0.00    -0.046 A 
ATOM     27  C   UNL     1       9.782   1.313  21.860  0.00  0.00    +0.005 A 
ATOM     28  C   UNL     1       9.122   0.123  21.560  0.00  0.00    +0.023 A 
BRANCH  26  29
ATOM     29  C   UNL     1      10.438   3.151  23.436  0.00  0.00    +0.050 C 
BRANCH  29  30
ATOM     30  C   UNL     1       9.602   4.215  24.172  0.00  0.00    +0.089 C 
BRANCH  30  31
ATOM     31  N   UNL     1       8.459   4.739  23.401  0.00  0.00    -0.298 NA
ATOM     32  C   UNL     1       7.167   4.468  24.067  0.00  0.00    +0.120 C 
ATOM     33  C   UNL     1       5.991   5.157  23.407  0.00  0.00    -0.026 A 
ATOM     34  C   UNL     1       6.176   6.261  22.570  0.00  0.00    -0.038 A 
ATOM     35  C   UNL     1       5.066   6.884  21.983  0.00  0.00    +0.053 A 
ATOM     36  C   UNL     1       3.757   6.443  22.234  0.00  0.00    +0.162 A 
ATOM     37  C   UNL     1       3.568   5.348  23.095  0.00  0.00    +0.162 A 
ATOM     38  C   UNL     1       7.568   6.734  22.244  0.00  0.00    +0.051 C 
ATOM     39  C   UNL     1       4.685   4.723  23.672  0.00  0.00    +0.054 A 
ATOM     40  C   UNL     1       8.613   6.194  23.224  0.00  0.00    +0.089 C 
BRANCH  37  41
ATOM     41  O   UNL     1       2.394   4.753  23.484  0.00  0.00    -0.491 OA
ATOM     42  C   UNL     1       2.383   3.358  23.741  0.00  0.00    +0.277 C 
ENDBRANCH  37  41
BRANCH  36  43
ATOM     43  O   UNL     1       2.657   7.038  21.677  0.00  0.00    -0.491 OA
ATOM     44  C   UNL     1       2.491   6.960  20.267  0.00  0.00    +0.277 C 
ENDBRANCH  36  43
ENDBRANCH  30  31
ENDBRANCH  29  30
ENDBRANCH  26  29
ENDBRANCH   2  23
TORSDOF 8
ENDMDL
MODEL 3
REMARK VINA RESULT:      -7.2      2.810      5.266
REMARK  Name = 
REMARK  11 active torsions:
REMARK  status: ('A' for Active; 'I' for Inactive)
REMARK    1  A    between atoms: C_1  and  O_2
REMARK    2  A    between atoms: O_2  and  C_3
REMARK    3  A    between atoms: C_15  and  C_16
REMARK    4  A    between atoms: N_18  and  C_19
REMARK    5  A    between atoms: C_22  and  C_23
REMARK    6  A    between atoms: C_23  and  C_24
REMARK    7  A    between atoms: C_24  and  N_25
REMARK    8  A    between atoms: C_30  and  O_31
REMARK    9  A    between atoms: O_31  and  C_32
REMARK   10  A    between atoms: C_33  and  O_34
REMARK   11  A    between atoms: O_34  and  C_35
REMARK                            x       y       z     vdW  Elec       q    Type
REMARK                         _______ _______ _______ _____ _____    ______ ____
ROOT
ATOM      1  C   UNL     1       6.210  -4.208  26.705  0.00  0.00    +0.250 C 
ATOM      2  N   UNL     1       6.921  -4.743  25.641  0.00  0.00    -0.281 N 
ATOM      3  H   UNL     1       6.797  -5.723  25.415  0.00  0.00    +0.155 HD
ATOM      4  O   UNL     1       6.245  -3.039  27.076  0.00  0.00    -0.270 OA
ENDROOT
BRANCH   1  10
ATOM      5  C   UNL     1       2.811  -6.030  23.303  0.00  0.00    +0.144 A 
ATOM      6  C   UNL     1       2.976  -6.206  24.691  0.00  0.00    +0.093 A 
ATOM      7  N   UNL     1       4.076  -5.673  25.388  0.00  0.00    -0.351 N 
ATOM      8  H   UNL     1       4.570  -4.907  24.916  0.00  0.00    +0.166 HD
ATOM      9  C   UNL     1       4.230  -5.732  26.793  0.00  0.00    +0.063 A 
ATOM     10  C   UNL     1       5.305  -5.107  27.472  0.00  0.00    +0.061 A 
ATOM     11  C   UNL     1       5.442  -5.246  28.863  0.00  0.00    +0.015 A 
ATOM     12  C   UNL     1       4.526  -6.015  29.585  0.00  0.00    +0.002 A 
ATOM     13  C   UNL     1       3.474  -6.648  28.926  0.00  0.00    +0.014 A 
ATOM     14  C   UNL     1       3.336  -6.515  27.538  0.00  0.00    +0.046 A 
ATOM     15  C   UNL     1       2.210  -7.187  26.843  0.00  0.00    +0.197 A 
ATOM     16  O   UNL     1       1.413  -7.874  27.475  0.00  0.00    -0.287 OA
ATOM     17  C   UNL     1       2.053  -7.009  25.380  0.00  0.00    +0.049 A 
ATOM     18  C   UNL     1       0.986  -7.621  24.716  0.00  0.00    +0.014 A 
ATOM     19  C   UNL     1       0.849  -7.463  23.341  0.00  0.00    +0.004 A 
ATOM     20  C   UNL     1       1.762  -6.678  22.636  0.00  0.00    +0.048 A 
BRANCH   5  22
ATOM     21  C   UNL     1       4.923  -5.910  22.253  0.00  0.00    +0.277 C 
ATOM     22  O   UNL     1       3.729  -5.236  22.655  0.00  0.00    -0.493 OA
ENDBRANCH   5  22
ENDBRANCH   1  10
BRANCH   2  23
ATOM     23  C   UNL     1       7.717  -3.997  24.734  0.00  0.00    +0.034 A 
ATOM     24  C   UNL     1       7.110  -3.413  23.614  0.00  0.00    +0.023 A 
ATOM     25  C   UNL     1       7.849  -2.590  22.747  0.00  0.00    +0.005 A 
ATOM     26  C   UNL     1       9.204  -2.336  22.989  0.00  0.00    -0.046 A 
ATOM     27  C   UNL     1       9.810  -2.944  24.088  0.00  0.00    +0.005 A 
ATOM     28  C   UNL     1       9.079  -3.775  24.934  0.00  0.00    +0.023 A 
BRANCH  26  29
ATOM     29  C   UNL     1      10.004  -1.376  22.141  0.00  0.00    +0.050 C 
BRANCH  29  30
ATOM     30  C   UNL     1       9.128  -0.286  21.493  0.00  0.00    +0.089 C 
BRANCH  30  31
ATOM     31  N   UNL     1       9.426   1.087  21.939  0.00  0.00    -0.298 NA
ATOM     32  C   UNL     1       8.204   1.910  22.066  0.00  0.00    +0.120 C 
ATOM     33  C   UNL     1       8.448   3.260  22.706  0.00  0.00    -0.026 A 
ATOM     34  C   UNL     1       9.586   3.497  23.483  0.00  0.00    -0.038 A 
ATOM     35  C   UNL     1       9.778   4.755  24.072  0.00  0.00    +0.053 A 
ATOM     36  C   UNL     1       8.838   5.788  23.922  0.00  0.00    +0.162 A 
ATOM     37  C   UNL     1       7.683   5.543  23.159  0.00  0.00    +0.162 A 
ATOM     38  C   UNL     1      10.635   2.426  23.630  0.00  0.00    +0.051 C 
ATOM     39  C   UNL     1       7.502   4.284  22.566  0.00  0.00    +0.054 A 
ATOM     40  C   UNL     1      10.113   1.041  23.243  0.00  0.00    +0.089 C 
BRANCH  37  41
ATOM     41  O   UNL     1       6.639   6.391  22.884  0.00  0.00    -0.491 OA
ATOM     42  C   UNL     1       6.618   7.071  21.639  0.00  0.00    +0.277 C 
ENDBRANCH  37  41
BRANCH  36  43
ATOM     43  O   UNL     1       9.001   7.023  24.490  0.00  0.00    -0.491 OA
ATOM     44  C   UNL     1       9.689   7.108  25.731  0.00  0.00    +0.277 C 
ENDBRANCH  36  43
ENDBRANCH  30  31
ENDBRANCH  29  30
ENDBRANCH  26  29
ENDBRANCH   2  23
TORSDOF 8
ENDMDL
MODEL 4
REMARK VINA RESULT:      -7.2      2.742      9.342
REMARK  Name = 
REMARK  11 active torsions:
REMARK  status: ('A' for Active; 'I' for Inactive)
REMARK    1  A    between atoms: C_1  and  O_2
REMARK    2  A    between atoms: O_2  and  C_3
REMARK    3  A    between atoms: C_15  and  C_16
REMARK    4  A    between atoms: N_18  and  C_19
REMARK    5  A    between atoms: C_22  and  C_23
REMARK    6  A    between atoms: C_23  and  C_24
REMARK    7  A    between atoms: C_24  and  N_25
REMARK    8  A    between atoms: C_30  and  O_31
REMARK    9  A    between atoms: O_31  and  C_32
REMARK   10  A    between atoms: C_33  and  O_34
REMARK   11  A    between atoms: O_34  and  C_35
REMARK                            x       y       z     vdW  Elec       q    Type
REMARK                         _______ _______ _______ _____ _____    ______ ____
ROOT
ATOM      1  C   UNL     1       6.171   1.002  27.614  0.00  0.00    +0.250 C 
ATOM      2  N   UNL     1       4.796   0.888  27.759  0.00  0.00    -0.281 N 
ATOM      3  H   UNL     1       4.208   1.655  27.454  0.00  0.00    +0.155 HD
ATOM      4  O   UNL     1       6.998   0.148  27.917  0.00  0.00    -0.270 OA
ENDROOT
BRANCH   1  10
ATOM      5  C   UNL     1       8.466  -0.377  23.223  0.00  0.00    +0.144 A 
ATOM      6  C   UNL     1       8.321   0.856  23.890  0.00  0.00    +0.093 A 
ATOM      7  N   UNL     1       7.537   0.991  25.050  0.00  0.00    -0.351 N 
ATOM      8  H   UNL     1       7.338   0.120  25.555  0.00  0.00    +0.166 HD
ATOM      9  C   UNL     1       7.447   2.178  25.814  0.00  0.00    +0.063 A 
ATOM     10  C   UNL     1       6.717   2.256  27.026  0.00  0.00    +0.061 A 
ATOM     11  C   UNL     1       6.612   3.476  27.714  0.00  0.00    +0.015 A 
ATOM     12  C   UNL     1       7.215   4.626  27.199  0.00  0.00    +0.002 A 
ATOM     13  C   UNL     1       7.920   4.566  25.999  0.00  0.00    +0.014 A 
ATOM     14  C   UNL     1       8.024   3.353  25.307  0.00  0.00    +0.046 A 
ATOM     15  C   UNL     1       8.781   3.295  24.033  0.00  0.00    +0.197 A 
ATOM     16  O   UNL     1       9.299   4.308  23.573  0.00  0.00    -0.287 OA
ATOM     17  C   UNL     1       8.915   1.997  23.329  0.00  0.00    +0.049 A 
ATOM     18  C   UNL     1       9.642   1.924  22.137  0.00  0.00    +0.014 A 
ATOM     19  C   UNL     1       9.756   0.709  21.472  0.00  0.00    +0.004 A 
ATOM     20  C   UNL     1       9.163  -0.435  22.008  0.00  0.00    +0.048 A 
BRANCH   5  22
ATOM     21  C   UNL     1       6.675  -1.914  23.159  0.00  0.00    +0.277 C 
ATOM     22  O   UNL     1       7.876  -1.478  23.798  0.00  0.00    -0.493 OA
ENDBRANCH   5  22
ENDBRANCH   1  10
BRANCH   2  23
ATOM     23  C   UNL     1       4.114  -0.285  28.174  0.00  0.00    +0.034 A 
ATOM     24  C   UNL     1       3.298  -0.960  27.257  0.00  0.00    +0.023 A 
ATOM     25  C   UNL     1       2.683  -2.175  27.606  0.00  0.00    +0.005 A 
ATOM     26  C   UNL     1       2.878  -2.733  28.875  0.00  0.00    -0.046 A 
ATOM     27  C   UNL     1       3.667  -2.040  29.793  0.00  0.00    +0.005 A 
ATOM     28  C   UNL     1       4.259  -0.827  29.450  0.00  0.00    +0.023 A 
BRANCH  26  29
ATOM     29  C   UNL     1       2.320  -4.086  29.250  0.00  0.00    +0.050 C 
BRANCH  29  30
ATOM     30  C   UNL     1       3.231  -5.246  28.807  0.00  0.00    +0.089 C 
BRANCH  30  31
ATOM     31  N   UNL     1       3.700  -5.160  27.411  0.00  0.00    -0.298 NA
ATOM     32  C   UNL     1       5.170  -5.289  27.308  0.00  0.00    +0.120 C 
ATOM     33  C   UNL     1       5.668  -5.401  25.882  0.00  0.00    -0.026 A 
ATOM     34  C   UNL     1       4.814  -5.792  24.846  0.00  0.00    -0.038 A 
ATOM     35  C   UNL     1       5.308  -5.897  23.539  0.00  0.00    +0.053 A 
ATOM     36  C   UNL     1       6.657  -5.642  23.239  0.00  0.00    +0.162 A 
ATOM     37  C   UNL     1       7.521  -5.271  24.285  0.00  0.00    +0.162 A 
ATOM     38  C   UNL     1       3.353  -6.032  25.124  0.00  0.00    +0.051 C 
ATOM     39  C   UNL     1       7.016  -5.160  25.590  0.00  0.00    +0.054 A 
ATOM     40  C   UNL     1       3.066  -6.226  26.615  0.00  0.00    +0.089 C 
BRANCH  37  41
ATOM     41  O   UNL     1       8.861  -4.981  24.229  0.00  0.00    -0.491 OA
ATOM     42  C   UNL     1       9.598  -4.906  25.439  0.00  0.00    +0.277 C 
ENDBRANCH  37  41
BRANCH  36  43
ATOM     43  O   UNL     1       7.164  -5.742  21.972  0.00  0.00    -0.491 OA
ATOM     44  C   UNL     1       6.260  -5.661  20.877  0.00  0.00    +0.277 C 
ENDBRANCH  36  43
ENDBRANCH  30  31
ENDBRANCH  29  30
ENDBRANCH  26  29
ENDBRANCH   2  23
TORSDOF 8
ENDMDL
MODEL 5
REMARK VINA RESULT:      -7.1      2.411      9.188
REMARK  Name = 
REMARK  11 active torsions:
REMARK  status: ('A' for Active; 'I' for Inactive)
REMARK    1  A    between atoms: C_1  and  O_2
REMARK    2  A    between atoms: O_2  and  C_3
REMARK    3  A    between atoms: C_15  and  C_16
REMARK    4  A    between atoms: N_18  and  C_19
REMARK    5  A    between atoms: C_22  and  C_23
REMARK    6  A    between atoms: C_23  and  C_24
REMARK    7  A    between atoms: C_24  and  N_25
REMARK    8  A    between atoms: C_30  and  O_31
REMARK    9  A    between atoms: O_31  and  C_32
REMARK   10  A    between atoms: C_33  and  O_34
REMARK   11  A    between atoms: O_34  and  C_35
REMARK                            x       y       z     vdW  Elec       q    Type
REMARK                         _______ _______ _______ _____ _____    ______ ____
ROOT
ATOM      1  C   UNL     1       9.893   1.611  23.022  0.00  0.00    +0.250 C 
ATOM      2  N   UNL     1       9.407   0.714  23.963  0.00  0.00    -0.281 N 
ATOM      3  H   UNL     1       9.186   1.053  24.892  0.00  0.00    +0.155 HD
ATOM      4  O   UNL     1      10.180   1.346  21.860  0.00  0.00    -0.270 OA
ENDROOT
BRANCH   1  10
ATOM      5  C   UNL     1       5.255   3.264  24.507  0.00  0.00    +0.144 A 
ATOM      6  C   UNL     1       6.515   3.886  24.409  0.00  0.00    +0.093 A 
ATOM      7  N   UNL     1       7.679   3.171  24.071  0.00  0.00    -0.351 N 
ATOM      8  H   UNL     1       7.525   2.271  23.603  0.00  0.00    +0.166 HD
ATOM      9  C   UNL     1       8.943   3.768  23.856  0.00  0.00    +0.063 A 
ATOM     10  C   UNL     1      10.076   3.030  23.430  0.00  0.00    +0.061 A 
ATOM     11  C   UNL     1      11.322   3.663  23.289  0.00  0.00    +0.015 A 
ATOM     12  C   UNL     1      11.456   5.023  23.582  0.00  0.00    +0.002 A 
ATOM     13  C   UNL     1      10.353   5.754  24.017  0.00  0.00    +0.014 A 
ATOM     14  C   UNL     1       9.110   5.127  24.164  0.00  0.00    +0.046 A 
ATOM     15  C   UNL     1       7.938   5.913  24.623  0.00  0.00    +0.197 A 
ATOM     16  O   UNL     1       8.059   7.104  24.894  0.00  0.00    -0.287 OA
ATOM     17  C   UNL     1       6.620   5.247  24.739  0.00  0.00    +0.049 A 
ATOM     18  C   UNL     1       5.504   5.980  25.151  0.00  0.00    +0.014 A 
ATOM     19  C   UNL     1       4.270   5.350  25.272  0.00  0.00    +0.004 A 
ATOM     20  C   UNL     1       4.148   3.995  24.960  0.00  0.00    +0.048 A 
BRANCH   5  22
ATOM     21  C   UNL     1       5.345   1.032  25.272  0.00  0.00    +0.277 C 
ATOM     22  O   UNL     1       5.183   1.931  24.174  0.00  0.00    -0.493 OA
ENDBRANCH   5  22
ENDBRANCH   1  10
BRANCH   2  23
ATOM     23  C   UNL     1       9.053  -0.634  23.698  0.00  0.00    +0.034 A 
ATOM     24  C   UNL     1       9.878  -1.663  24.172  0.00  0.00    +0.023 A 
ATOM     25  C   UNL     1       9.509  -3.009  24.009  0.00  0.00    +0.005 A 
ATOM     26  C   UNL     1       8.308  -3.346  23.374  0.00  0.00    -0.046 A 
ATOM     27  C   UNL     1       7.505  -2.318  22.878  0.00  0.00    +0.005 A 
ATOM     28  C   UNL     1       7.884  -0.986  23.024  0.00  0.00    +0.023 A 
BRANCH  26  29
ATOM     29  C   UNL     1       7.827  -4.774  23.273  0.00  0.00    +0.050 C 
BRANCH  29  30
ATOM     30  C   UNL     1       6.406  -4.881  22.686  0.00  0.00    +0.089 C 
BRANCH  30  31
ATOM     31  N   UNL     1       5.408  -5.469  23.598  0.00  0.00    -0.298 NA
ATOM     32  C   UNL     1       5.891  -5.521  24.994  0.00  0.00    +0.120 C 
ATOM     33  C   UNL     1       4.825  -5.935  25.987  0.00  0.00    -0.026 A 
ATOM     34  C   UNL     1       3.467  -5.830  25.677  0.00  0.00    -0.038 A 
ATOM     35  C   UNL     1       2.504  -6.212  26.622  0.00  0.00    +0.053 A 
ATOM     36  C   UNL     1       2.868  -6.678  27.895  0.00  0.00    +0.162 A 
ATOM     37  C   UNL     1       4.235  -6.762  28.217  0.00  0.00    +0.162 A 
ATOM     38  C   UNL     1       3.040  -5.375  24.305  0.00  0.00    +0.051 C 
ATOM     39  C   UNL     1       5.193  -6.386  27.262  0.00  0.00    +0.054 A 
ATOM     40  C   UNL     1       4.169  -4.672  23.547  0.00  0.00    +0.089 C 
BRANCH  37  41
ATOM     41  O   UNL     1       4.817  -7.180  29.387  0.00  0.00    -0.491 OA
ATOM     42  C   UNL     1       5.844  -6.389  29.964  0.00  0.00    +0.277 C 
ENDBRANCH  37  41
BRANCH  36  43
ATOM     43  O   UNL     1       1.947  -7.052  28.837  0.00  0.00    -0.491 OA
ATOM     44  C   UNL     1       1.005  -8.060  28.493  0.00  0.00    +0.277 C 
ENDBRANCH  36  43
ENDBRANCH  30  31
ENDBRANCH  29  30
ENDBRANCH  26  29
ENDBRANCH   2  23
TORSDOF 8
ENDMDL
MODEL 6
REMARK VINA RESULT:      -6.8      2.325      9.449
REMARK  Name = 
REMARK  11 active torsions:
REMARK  status: ('A' for Active; 'I' for Inactive)
REMARK    1  A    between atoms: C_1  and  O_2
REMARK    2  A    between atoms: O_2  and  C_3
REMARK    3  A    between atoms: C_15  and  C_16
REMARK    4  A    between atoms: N_18  and  C_19
REMARK    5  A    between atoms: C_22  and  C_23
REMARK    6  A    between atoms: C_23  and  C_24
REMARK    7  A    between atoms: C_24  and  N_25
REMARK    8  A    between atoms: C_30  and  O_31
REMARK    9  A    between atoms: O_31  and  C_32
REMARK   10  A    between atoms: C_33  and  O_34
REMARK   11  A    between atoms: O_34  and  C_35
REMARK                            x       y       z     vdW  Elec       q    Type
REMARK                         _______ _______ _______ _____ _____    ______ ____
ROOT
ATOM      1  C   UNL     1       4.494   0.635  26.148  0.00  0.00    +0.250 C 
ATOM      2  N   UNL     1       3.860   0.528  27.378  0.00  0.00    -0.281 N 
ATOM      3  H   UNL     1       3.528   1.371  27.830  0.00  0.00    +0.155 HD
ATOM      4  O   UNL     1       4.924  -0.299  25.479  0.00  0.00    -0.270 OA
ENDROOT
BRANCH   1  10
ATOM      5  C   UNL     1       9.416   0.932  24.690  0.00  0.00    +0.144 A 
ATOM      6  C   UNL     1       8.342   1.842  24.650  0.00  0.00    +0.093 A 
ATOM      7  N   UNL     1       7.035   1.474  25.019  0.00  0.00    -0.351 N 
ATOM      8  H   UNL     1       6.960   0.633  25.602  0.00  0.00    +0.166 HD
ATOM      9  C   UNL     1       5.949   2.376  25.098  0.00  0.00    +0.063 A 
ATOM     10  C   UNL     1       4.665   1.990  25.558  0.00  0.00    +0.061 A 
ATOM     11  C   UNL     1       3.605   2.912  25.561  0.00  0.00    +0.015 A 
ATOM     12  C   UNL     1       3.807   4.214  25.094  0.00  0.00    +0.002 A 
ATOM     13  C   UNL     1       5.060   4.600  24.623  0.00  0.00    +0.014 A 
ATOM     14  C   UNL     1       6.118   3.682  24.615  0.00  0.00    +0.046 A 
ATOM     15  C   UNL     1       7.452   4.102  24.117  0.00  0.00    +0.197 A 
ATOM     16  O   UNL     1       7.626   5.241  23.694  0.00  0.00    -0.287 OA
ATOM     17  C   UNL     1       8.573   3.133  24.148  0.00  0.00    +0.049 A 
ATOM     18  C   UNL     1       9.839   3.520  23.700  0.00  0.00    +0.014 A 
ATOM     19  C   UNL     1      10.887   2.606  23.717  0.00  0.00    +0.004 A 
ATOM     20  C   UNL     1      10.674   1.315  24.202  0.00  0.00    +0.048 A 
BRANCH   5  22
ATOM     21  C   UNL     1       9.465  -1.395  24.295  0.00  0.00    +0.277 C 
ATOM     22  O   UNL     1       9.160  -0.324  25.189  0.00  0.00    -0.493 OA
ENDBRANCH   5  22
ENDBRANCH   1  10
BRANCH   2  23
ATOM     23  C   UNL     1       3.502  -0.692  28.008  0.00  0.00    +0.034 A 
ATOM     24  C   UNL     1       2.424  -1.431  27.503  0.00  0.00    +0.023 A 
ATOM     25  C   UNL     1       2.102  -2.687  28.044  0.00  0.00    +0.005 A 
ATOM     26  C   UNL     1       2.856  -3.225  29.094  0.00  0.00    -0.046 A 
ATOM     27  C   UNL     1       3.909  -2.471  29.612  0.00  0.00    +0.005 A 
ATOM     28  C   UNL     1       4.213  -1.218  29.086  0.00  0.00    +0.023 A 
BRANCH  26  29
ATOM     29  C   UNL     1       2.606  -4.615  29.630  0.00  0.00    +0.050 C 
BRANCH  29  30
ATOM     30  C   UNL     1       3.572  -5.660  29.040  0.00  0.00    +0.089 C 
BRANCH  30  31
ATOM     31  N   UNL     1       3.991  -5.394  27.651  0.00  0.00    -0.298 NA
ATOM     32  C   UNL     1       5.443  -5.590  27.459  0.00  0.00    +0.120 C 
ATOM     33  C   UNL     1       5.877  -5.516  26.010  0.00  0.00    -0.026 A 
ATOM     34  C   UNL     1       4.960  -5.700  24.970  0.00  0.00    -0.038 A 
ATOM     35  C   UNL     1       5.395  -5.637  23.639  0.00  0.00    +0.053 A 
ATOM     36  C   UNL     1       6.744  -5.417  23.316  0.00  0.00    +0.162 A 
ATOM     37  C   UNL     1       7.670  -5.256  24.361  0.00  0.00    +0.162 A 
ATOM     38  C   UNL     1       3.499  -5.894  25.280  0.00  0.00    +0.051 C 
ATOM     39  C   UNL     1       7.226  -5.312  25.691  0.00  0.00    +0.054 A 
ATOM     40  C   UNL     1       3.259  -6.291  26.738  0.00  0.00    +0.089 C 
BRANCH  37  41
ATOM     41  O   UNL     1       9.023  -5.038  24.284  0.00  0.00    -0.491 OA
ATOM     42  C   UNL     1       9.776  -4.962  25.484  0.00  0.00    +0.277 C 
ENDBRANCH  37  41
BRANCH  36  43
ATOM     43  O   UNL     1       7.193  -5.356  22.024  0.00  0.00    -0.491 OA
ATOM     44  C   UNL     1       6.277  -5.650  20.978  0.00  0.00    +0.277 C 
ENDBRANCH  36  43
ENDBRANCH  30  31
ENDBRANCH  29  30
ENDBRANCH  26  29
ENDBRANCH   2  23
TORSDOF 8
ENDMDL
MODEL 7
REMARK VINA RESULT:      -6.5      2.481      5.900
REMARK  Name = 
REMARK  11 active torsions:
REMARK  status: ('A' for Active; 'I' for Inactive)
REMARK    1  A    between atoms: C_1  and  O_2
REMARK    2  A    between atoms: O_2  and  C_3
REMARK    3  A    between atoms: C_15  and  C_16
REMARK    4  A    between atoms: N_18  and  C_19
REMARK    5  A    between atoms: C_22  and  C_23
REMARK    6  A    between atoms: C_23  and  C_24
REMARK    7  A    between atoms: C_24  and  N_25
REMARK    8  A    between atoms: C_30  and  O_31
REMARK    9  A    between atoms: O_31  and  C_32
REMARK   10  A    between atoms: C_33  and  O_34
REMARK   11  A    between atoms: O_34  and  C_35
REMARK                            x       y       z     vdW  Elec       q    Type
REMARK                         _______ _______ _______ _____ _____    ______ ____
ROOT
ATOM      1  C   UNL     1       5.810  -2.048  27.099  0.00  0.00    +0.250 C 
ATOM      2  N   UNL     1       4.915  -1.097  27.568  0.00  0.00    -0.281 N 
ATOM      3  H   UNL     1       4.009  -1.402  27.903  0.00  0.00    +0.155 HD
ATOM      4  O   UNL     1       6.943  -1.826  26.686  0.00  0.00    -0.270 OA
ENDROOT
BRANCH   1  10
ATOM      5  C   UNL     1       6.488  -3.735  22.289  0.00  0.00    +0.144 A 
ATOM      6  C   UNL     1       5.992  -4.338  23.462  0.00  0.00    +0.093 A 
ATOM      7  N   UNL     1       6.011  -3.682  24.706  0.00  0.00    -0.351 N 
ATOM      8  H   UNL     1       6.105  -2.661  24.667  0.00  0.00    +0.166 HD
ATOM      9  C   UNL     1       5.429  -4.201  25.886  0.00  0.00    +0.063 A 
ATOM     10  C   UNL     1       5.387  -3.476  27.103  0.00  0.00    +0.061 A 
ATOM     11  C   UNL     1       4.850  -4.062  28.260  0.00  0.00    +0.015 A 
ATOM     12  C   UNL     1       4.366  -5.372  28.223  0.00  0.00    +0.002 A 
ATOM     13  C   UNL     1       4.417  -6.101  27.037  0.00  0.00    +0.014 A 
ATOM     14  C   UNL     1       4.956  -5.522  25.882  0.00  0.00    +0.046 A 
ATOM     15  C   UNL     1       5.002  -6.303  24.620  0.00  0.00    +0.197 A 
ATOM     16  O   UNL     1       4.590  -7.458  24.591  0.00  0.00    -0.287 OA
ATOM     17  C   UNL     1       5.540  -5.666  23.395  0.00  0.00    +0.049 A 
ATOM     18  C   UNL     1       5.572  -6.383  22.195  0.00  0.00    +0.014 A 
ATOM     19  C   UNL     1       6.090  -5.788  21.050  0.00  0.00    +0.004 A 
ATOM     20  C   UNL     1       6.554  -4.473  21.098  0.00  0.00    +0.048 A 
BRANCH   5  22
ATOM     21  C   UNL     1       8.339  -2.278  22.450  0.00  0.00    +0.277 C 
ATOM     22  O   UNL     1       6.920  -2.433  22.384  0.00  0.00    -0.493 OA
ENDBRANCH   5  22
ENDBRANCH   1  10
BRANCH   2  23
ATOM     23  C   UNL     1       5.210   0.278  27.755  0.00  0.00    +0.034 A 
ATOM     24  C   UNL     1       4.429   1.239  27.098  0.00  0.00    +0.023 A 
ATOM     25  C   UNL     1       4.634   2.610  27.333  0.00  0.00    +0.005 A 
ATOM     26  C   UNL     1       5.618   3.039  28.231  0.00  0.00    -0.046 A 
ATOM     27  C   UNL     1       6.412   2.078  28.859  0.00  0.00    +0.005 A 
ATOM     28  C   UNL     1       6.220   0.722  28.608  0.00  0.00    +0.023 A 
BRANCH  26  29
ATOM     29  C   UNL     1       5.798   4.495  28.589  0.00  0.00    +0.050 C 
BRANCH  29  30
ATOM     30  C   UNL     1       5.962   5.394  27.349  0.00  0.00    +0.089 C 
BRANCH  30  31
ATOM     31  N   UNL     1       7.308   5.371  26.747  0.00  0.00    -0.298 NA
ATOM     32  C   UNL     1       7.436   4.329  25.706  0.00  0.00    +0.120 C 
ATOM     33  C   UNL     1       8.736   4.403  24.934  0.00  0.00    -0.026 A 
ATOM     34  C   UNL     1       9.495   5.577  24.905  0.00  0.00    -0.038 A 
ATOM     35  C   UNL     1      10.689   5.618  24.171  0.00  0.00    +0.053 A 
ATOM     36  C   UNL     1      11.137   4.509  23.435  0.00  0.00    +0.162 A 
ATOM     37  C   UNL     1      10.362   3.335  23.445  0.00  0.00    +0.162 A 
ATOM     38  C   UNL     1       9.066   6.772  25.717  0.00  0.00    +0.051 C 
ATOM     39  C   UNL     1       9.173   3.300  24.189  0.00  0.00    +0.054 A 
ATOM     40  C   UNL     1       7.601   6.687  26.150  0.00  0.00    +0.089 C 
BRANCH  37  41
ATOM     41  O   UNL     1      10.599   2.144  22.805  0.00  0.00    -0.491 OA
ATOM     42  C   UNL     1       9.615   1.632  21.921  0.00  0.00    +0.277 C 
ENDBRANCH  37  41
BRANCH  36  43
ATOM     43  O   UNL     1      12.297   4.525  22.708  0.00  0.00    -0.491 OA
ATOM     44  C   UNL     1      13.204   5.600  22.910  0.00  0.00    +0.277 C 
ENDBRANCH  36  43
ENDBRANCH  30  31
ENDBRANCH  29  30
ENDBRANCH  26  29
ENDBRANCH   2  23
TORSDOF 8
ENDMDL
MODEL 8
REMARK VINA RESULT:      -6.5      2.301      2.998
REMARK  Name = 
REMARK  11 active torsions:
REMARK  status: ('A' for Active; 'I' for Inactive)
REMARK    1  A    between atoms: C_1  and  O_2
REMARK    2  A    between atoms: O_2  and  C_3
REMARK    3  A    between atoms: C_15  and  C_16
REMARK    4  A    between atoms: N_18  and  C_19
REMARK    5  A    between atoms: C_22  and  C_23
REMARK    6  A    between atoms: C_23  and  C_24
REMARK    7  A    between atoms: C_24  and  N_25
REMARK    8  A    between atoms: C_30  and  O_31
REMARK    9  A    between atoms: O_31  and  C_32
REMARK   10  A    between atoms: C_33  and  O_34
REMARK   11  A    between atoms: O_34  and  C_35
REMARK                            x       y       z     vdW  Elec       q    Type
REMARK                         _______ _______ _______ _____ _____    ______ ____
ROOT
ATOM      1  C   UNL     1       7.273  -2.313  23.049  0.00  0.00    +0.250 C 
ATOM      2  N   UNL     1       8.645  -2.129  22.961  0.00  0.00    -0.281 N 
ATOM      3  H   UNL     1       9.227  -2.915  22.694  0.00  0.00    +0.155 HD
ATOM      4  O   UNL     1       6.450  -1.450  23.337  0.00  0.00    -0.270 OA
ENDROOT
BRANCH   1  10
ATOM      5  C   UNL     1       4.800  -3.787  27.310  0.00  0.00    +0.144 A 
ATOM      6  C   UNL     1       5.035  -4.407  26.068  0.00  0.00    +0.093 A 
ATOM      7  N   UNL     1       5.661  -3.735  25.002  0.00  0.00    -0.351 N 
ATOM      8  H   UNL     1       6.207  -2.906  25.260  0.00  0.00    +0.166 HD
ATOM      9  C   UNL     1       6.013  -4.347  23.776  0.00  0.00    +0.063 A 
ATOM     10  C   UNL     1       6.722  -3.664  22.756  0.00  0.00    +0.061 A 
ATOM     11  C   UNL     1       6.995  -4.301  21.534  0.00  0.00    +0.015 A 
ATOM     12  C   UNL     1       6.556  -5.608  21.310  0.00  0.00    +0.002 A 
ATOM     13  C   UNL     1       5.843  -6.283  22.299  0.00  0.00    +0.014 A 
ATOM     14  C   UNL     1       5.565  -5.651  23.517  0.00  0.00    +0.046 A 
ATOM     15  C   UNL     1       4.810  -6.378  24.568  0.00  0.00    +0.197 A 
ATOM     16  O   UNL     1       4.412  -7.521  24.367  0.00  0.00    -0.287 OA
ATOM     17  C   UNL     1       4.554  -5.711  25.867  0.00  0.00    +0.049 A 
ATOM     18  C   UNL     1       3.861  -6.391  26.873  0.00  0.00    +0.014 A 
ATOM     19  C   UNL     1       3.610  -5.759  28.086  0.00  0.00    +0.004 A 
ATOM     20  C   UNL     1       4.070  -4.459  28.300  0.00  0.00    +0.048 A 
BRANCH   5  22
ATOM     21  C   UNL     1       4.283  -1.498  27.575  0.00  0.00    +0.277 C 
ATOM     22  O   UNL     1       5.286  -2.510  27.479  0.00  0.00    -0.493 OA
ENDBRANCH   5  22
ENDBRANCH   1  10
BRANCH   2  23
ATOM     23  C   UNL     1       9.310  -0.881  23.077  0.00  0.00    +0.034 A 
ATOM     24  C   UNL     1       9.305  -0.001  21.987  0.00  0.00    +0.023 A 
ATOM     25  C   UNL     1       9.873   1.280  22.099  0.00  0.00    +0.005 A 
ATOM     26  C   UNL     1      10.449   1.701  23.304  0.00  0.00    -0.046 A 
ATOM     27  C   UNL     1      10.478   0.809  24.376  0.00  0.00    +0.005 A 
ATOM     28  C   UNL     1       9.932  -0.467  24.255  0.00  0.00    +0.023 A 
BRANCH  26  29
ATOM     29  C   UNL     1      10.974   3.104  23.495  0.00  0.00    +0.050 C 
BRANCH  29  30
ATOM     30  C   UNL     1      10.039   4.173  22.897  0.00  0.00    +0.089 C 
BRANCH  30  31
ATOM     31  N   UNL     1       9.332   4.997  23.896  0.00  0.00    -0.298 NA
ATOM     32  C   UNL     1       8.591   4.173  24.875  0.00  0.00    +0.120 C 
ATOM     33  C   UNL     1       8.016   4.972  26.025  0.00  0.00    -0.026 A 
ATOM     34  C   UNL     1       8.515   6.237  26.348  0.00  0.00    -0.038 A 
ATOM     35  C   UNL     1       7.969   6.948  27.426  0.00  0.00    +0.053 A 
ATOM     36  C   UNL     1       6.940   6.409  28.216  0.00  0.00    +0.162 A 
ATOM     37  C   UNL     1       6.453   5.127  27.905  0.00  0.00    +0.162 A 
ATOM     38  C   UNL     1       9.589   6.863  25.497  0.00  0.00    +0.051 C 
ATOM     39  C   UNL     1       6.999   4.426  26.819  0.00  0.00    +0.054 A 
ATOM     40  C   UNL     1      10.306   5.839  24.614  0.00  0.00    +0.089 C 
BRANCH  37  41
ATOM     41  O   UNL     1       5.466   4.408  28.533  0.00  0.00    -0.491 OA
ATOM     42  C   UNL     1       5.571   2.994  28.579  0.00  0.00    +0.277 C 
ENDBRANCH  37  41
BRANCH  36  43
ATOM     43  O   UNL     1       6.393   7.081  29.275  0.00  0.00    -0.491 OA
ATOM     44  C   UNL     1       6.170   6.365  30.483  0.00  0.00    +0.277 C 
ENDBRANCH  36  43
ENDBRANCH  30  31
ENDBRANCH  29  30
ENDBRANCH  26  29
ENDBRANCH   2  23
TORSDOF 8
ENDMDL
MODEL 9
REMARK VINA RESULT:      -6.2      2.606      5.871
REMARK  Name = 
REMARK  11 active torsions:
REMARK  status: ('A' for Active; 'I' for Inactive)
REMARK    1  A    between atoms: C_1  and  O_2
REMARK    2  A    between atoms: O_2  and  C_3
REMARK    3  A    between atoms: C_15  and  C_16
REMARK    4  A    between atoms: N_18  and  C_19
REMARK    5  A    between atoms: C_22  and  C_23
REMARK    6  A    between atoms: C_23  and  C_24
REMARK    7  A    between atoms: C_24  and  N_25
REMARK    8  A    between atoms: C_30  and  O_31
REMARK    9  A    between atoms: O_31  and  C_32
REMARK   10  A    between atoms: C_33  and  O_34
REMARK   11  A    between atoms: O_34  and  C_35
REMARK                            x       y       z     vdW  Elec       q    Type
REMARK                         _______ _______ _______ _____ _____    ______ ____
ROOT
ATOM      1  C   UNL     1       3.785  -1.127  27.741  0.00  0.00    +0.250 C 
ATOM      2  N   UNL     1       4.138  -0.009  28.484  0.00  0.00    -0.281 N 
ATOM      3  H   UNL     1       4.606  -0.142  29.373  0.00  0.00    +0.155 HD
ATOM      4  O   UNL     1       3.237  -1.115  26.644  0.00  0.00    -0.270 OA
ENDROOT
BRANCH   1  10
ATOM      5  C   UNL     1       7.986  -2.728  25.244  0.00  0.00    +0.144 A 
ATOM      6  C   UNL     1       7.169  -3.313  26.231  0.00  0.00    +0.093 A 
ATOM      7  N   UNL     1       6.117  -2.609  26.846  0.00  0.00    -0.351 N 
ATOM      8  H   UNL     1       5.778  -1.786  26.336  0.00  0.00    +0.166 HD
ATOM      9  C   UNL     1       5.206  -3.184  27.762  0.00  0.00    +0.063 A 
ATOM     10  C   UNL     1       4.103  -2.471  28.295  0.00  0.00    +0.061 A 
ATOM     11  C   UNL     1       3.262  -3.072  29.246  0.00  0.00    +0.015 A 
ATOM     12  C   UNL     1       3.517  -4.374  29.685  0.00  0.00    +0.002 A 
ATOM     13  C   UNL     1       4.608  -5.079  29.180  0.00  0.00    +0.014 A 
ATOM     14  C   UNL     1       5.451  -4.482  28.235  0.00  0.00    +0.046 A 
ATOM     15  C   UNL     1       6.608  -5.241  27.697  0.00  0.00    +0.197 A 
ATOM     16  O   UNL     1       6.839  -6.380  28.092  0.00  0.00    -0.287 OA
ATOM     17  C   UNL     1       7.471  -4.612  26.670  0.00  0.00    +0.049 A 
ATOM     18  C   UNL     1       8.553  -5.323  26.141  0.00  0.00    +0.014 A 
ATOM     19  C   UNL     1       9.369  -4.726  25.187  0.00  0.00    +0.004 A 
ATOM     20  C   UNL     1       9.092  -3.431  24.747  0.00  0.00    +0.048 A 
BRANCH   5  22
ATOM     21  C   UNL     1       7.025  -1.386  23.556  0.00  0.00    +0.277 C 
ATOM     22  O   UNL     1       7.664  -1.456  24.832  0.00  0.00    -0.493 OA
ENDBRANCH   5  22
ENDBRANCH   1  10
BRANCH   2  23
ATOM     23  C   UNL     1       4.028   1.334  28.041  0.00  0.00    +0.034 A 
ATOM     24  C   UNL     1       4.920   2.293  28.539  0.00  0.00    +0.023 A 
ATOM     25  C   UNL     1       4.898   3.611  28.051  0.00  0.00    +0.005 A 
ATOM     26  C   UNL     1       3.989   3.988  27.056  0.00  0.00    -0.046 A 
ATOM     27  C   UNL     1       3.084   3.036  26.586  0.00  0.00    +0.005 A 
ATOM     28  C   UNL     1       3.095   1.736  27.086  0.00  0.00    +0.023 A 
BRANCH  26  29
ATOM     29  C   UNL     1       4.006   5.364  26.433  0.00  0.00    +0.050 C 
BRANCH  29  30
ATOM     30  C   UNL     1       5.433   5.920  26.263  0.00  0.00    +0.089 C 
BRANCH  30  31
ATOM     31  N   UNL     1       6.187   5.340  25.136  0.00  0.00    -0.298 NA
ATOM     32  C   UNL     1       7.125   4.286  25.577  0.00  0.00    +0.120 C 
ATOM     33  C   UNL     1       7.772   3.535  24.432  0.00  0.00    -0.026 A 
ATOM     34  C   UNL     1       7.205   3.536  23.154  0.00  0.00    -0.038 A 
ATOM     35  C   UNL     1       7.822   2.822  22.117  0.00  0.00    +0.053 A 
ATOM     36  C   UNL     1       8.992   2.077  22.333  0.00  0.00    +0.162 A 
ATOM     37  C   UNL     1       9.550   2.057  23.624  0.00  0.00    +0.162 A 
ATOM     38  C   UNL     1       5.974   4.359  22.877  0.00  0.00    +0.051 C 
ATOM     39  C   UNL     1       8.931   2.781  24.655  0.00  0.00    +0.054 A 
ATOM     40  C   UNL     1       5.244   4.768  24.158  0.00  0.00    +0.089 C 
BRANCH  37  41
ATOM     41  O   UNL     1      10.674   1.402  24.063  0.00  0.00    -0.491 OA
ATOM     42  C   UNL     1      10.541   0.410  25.068  0.00  0.00    +0.277 C 
ENDBRANCH  37  41
BRANCH  36  43
ATOM     43  O   UNL     1       9.611   1.368  21.338  0.00  0.00    -0.491 OA
ATOM     44  C   UNL     1       9.495  -0.048  21.349  0.00  0.00    +0.277 C 
ENDBRANCH  36  43
ENDBRANCH  30  31
ENDBRANCH  29  30
ENDBRANCH  26  29
ENDBRANCH   2  23
TORSDOF 8
ENDMDL
