MODEL 1
REMARK VINA RESULT:      -4.2      0.000      0.000
REMARK  Name = 
REMARK  8 active torsions:
REMARK  status: ('A' for Active; 'I' for Inactive)
REMARK    1  A    between atoms: C_1  and  C_2
REMARK    2  A    between atoms: C_2  and  O_3
REMARK    3  A    between atoms: C_2  and  P_4
REMARK    4  A    between atoms: C_2  and  P_8
REMARK    5  A    between atoms: P_4  and  O_5
REMARK    6  A    between atoms: P_4  and  O_6
REMARK    7  A    between atoms: P_8  and  O_9
REMARK    8  A    between atoms: P_8  and  O_10
REMARK                            x       y       z     vdW  Elec       q    Type
REMARK                         _______ _______ _______ _____ _____    ______ ____
ROOT
ATOM      1  C   UNL     1       7.079   1.413  22.681  0.00  0.00    +0.068 C 
ATOM      2  C   UNL     1       8.491   1.099  22.158  0.00  0.00    +0.264 C 
ENDROOT
BRANCH   2   3
ATOM      3  P   UNL     1       9.020  -0.603  22.571  0.00  0.00    +0.371 P 
ATOM      4  O   UNL     1       9.468  -2.043  22.920  0.00  0.00    -0.255 OA
BRANCH   3   5
ATOM      5  O   UNL     1      10.314   0.081  23.373  0.00  0.00    -0.322 OA
ATOM      6  H   UNL     1      10.651  -0.555  24.036  0.00  0.00    +0.220 HD
ENDBRANCH   3   5
BRANCH   3   7
ATOM      7  O   UNL     1       9.850  -0.698  21.146  0.00  0.00    -0.322 OA
ATOM      8  H   UNL     1      10.760  -0.952  21.420  0.00  0.00    +0.220 HD
ENDBRANCH   3   7
ENDBRANCH   2   3
BRANCH   2   9
ATOM      9  P   UNL     1       9.621   2.299  22.954  0.00  0.00    +0.371 P 
ATOM     10  O   UNL     1      10.576   3.314  23.626  0.00  0.00    -0.255 OA
BRANCH   9  11
ATOM     11  O   UNL     1       8.571   3.498  22.515  0.00  0.00    -0.322 OA
ATOM     12  H   UNL     1       8.760   4.388  22.889  0.00  0.00    +0.220 HD
ENDBRANCH   9  11
BRANCH   9  13
ATOM     13  O   UNL     1      10.551   2.378  21.616  0.00  0.00    -0.322 OA
ATOM     14  H   UNL     1      11.456   2.124  21.922  0.00  0.00    +0.220 HD
ENDBRANCH   9  13
ENDBRANCH   2   9
BRANCH   2  15
ATOM     15  O   UNL     1       8.458   1.261  20.692  0.00  0.00    -0.367 OA
ATOM     16  H   UNL     1       7.642   0.829  20.369  0.00  0.00    +0.212 HD
ENDBRANCH   2  15
TORSDOF 7
ENDMDL
MODEL 2
REMARK VINA RESULT:      -4.2      5.993      7.842
REMARK  Name = 
REMARK  8 active torsions:
REMARK  status: ('A' for Active; 'I' for Inactive)
REMARK    1  A    between atoms: C_1  and  C_2
REMARK    2  A    between atoms: C_2  and  O_3
REMARK    3  A    between atoms: C_2  and  P_4
REMARK    4  A    between atoms: C_2  and  P_8
REMARK    5  A    between atoms: P_4  and  O_5
REMARK    6  A    between atoms: P_4  and  O_6
REMARK    7  A    between atoms: P_8  and  O_9
REMARK    8  A    between atoms: P_8  and  O_10
REMARK                            x       y       z     vdW  Elec       q    Type
REMARK                         _______ _______ _______ _____ _____    ______ ____
ROOT
ATOM      1  C   UNL     1       8.290  -2.758  26.383  0.00  0.00    +0.068 C 
ATOM      2  C   UNL     1       8.324  -4.295  26.374  0.00  0.00    +0.264 C 
ENDROOT
BRANCH   2   3
ATOM      3  P   UNL     1       8.413  -4.976  24.678  0.00  0.00    +0.371 P 
ATOM      4  O   UNL     1       8.488  -5.552  23.242  0.00  0.00    -0.255 OA
BRANCH   3   5
ATOM      5  O   UNL     1       9.433  -6.147  25.288  0.00  0.00    -0.322 OA
ATOM      6  H   UNL     1       9.511  -6.030  26.257  0.00  0.00    +0.220 HD
ENDBRANCH   3   5
BRANCH   3   7
ATOM      7  O   UNL     1       9.663  -3.956  24.326  0.00  0.00    -0.322 OA
ATOM      8  H   UNL     1       9.485  -3.164  24.882  0.00  0.00    +0.220 HD
ENDBRANCH   3   7
ENDBRANCH   2   3
BRANCH   2   9
ATOM      9  P   UNL     1       6.777  -4.856  27.176  0.00  0.00    +0.371 P 
ATOM     10  O   UNL     1       5.470  -5.331  27.854  0.00  0.00    -0.255 OA
BRANCH   9  11
ATOM     11  O   UNL     1       7.638  -6.096  27.848  0.00  0.00    -0.322 OA
ATOM     12  H   UNL     1       7.808  -6.023  28.814  0.00  0.00    +0.220 HD
ENDBRANCH   9  11
BRANCH   9  13
ATOM     13  O   UNL     1       6.321  -5.663  25.833  0.00  0.00    -0.322 OA
ATOM     14  H   UNL     1       5.459  -5.254  25.574  0.00  0.00    +0.220 HD
ENDBRANCH   9  13
ENDBRANCH   2   9
BRANCH   2  15
ATOM     15  O   UNL     1       9.520  -4.709  27.132  0.00  0.00    -0.367 OA
ATOM     16  H   UNL     1       9.978  -5.393  26.603  0.00  0.00    +0.212 HD
ENDBRANCH   2  15
TORSDOF 7
ENDMDL
MODEL 3
REMARK VINA RESULT:      -4.1      4.574      6.227
REMARK  Name = 
REMARK  8 active torsions:
REMARK  status: ('A' for Active; 'I' for Inactive)
REMARK    1  A    between atoms: C_1  and  C_2
REMARK    2  A    between atoms: C_2  and  O_3
REMARK    3  A    between atoms: C_2  and  P_4
REMARK    4  A    between atoms: C_2  and  P_8
REMARK    5  A    between atoms: P_4  and  O_5
REMARK    6  A    between atoms: P_4  and  O_6
REMARK    7  A    between atoms: P_8  and  O_9
REMARK    8  A    between atoms: P_8  and  O_10
REMARK                            x       y       z     vdW  Elec       q    Type
REMARK                         _______ _______ _______ _____ _____    ______ ____
ROOT
ATOM      1  C   UNL     1       6.420  -4.210  23.873  0.00  0.00    +0.068 C 
ATOM      2  C   UNL     1       7.790  -4.532  24.492  0.00  0.00    +0.264 C 
ENDROOT
BRANCH   2   3
ATOM      3  P   UNL     1       7.646  -5.161  26.204  0.00  0.00    +0.371 P 
ATOM      4  O   UNL     1       7.525  -5.694  27.653  0.00  0.00    -0.255 OA
BRANCH   3   5
ATOM      5  O   UNL     1       8.457  -3.787  26.691  0.00  0.00    -0.322 OA
ATOM      6  H   UNL     1       8.137  -3.524  27.578  0.00  0.00    +0.220 HD
ENDBRANCH   3   5
BRANCH   3   7
ATOM      7  O   UNL     1       9.045  -6.017  26.014  0.00  0.00    -0.322 OA
ATOM      8  H   UNL     1       9.236  -5.948  25.052  0.00  0.00    +0.220 HD
ENDBRANCH   3   7
ENDBRANCH   2   3
BRANCH   2   9
ATOM      9  P   UNL     1       8.742  -2.968  24.495  0.00  0.00    +0.371 P 
ATOM     10  O   UNL     1       9.547  -1.647  24.497  0.00  0.00    -0.255 OA
BRANCH   9  11
ATOM     11  O   UNL     1       8.412  -2.826  22.882  0.00  0.00    -0.322 OA
ATOM     12  H   UNL     1       8.952  -2.165  22.394  0.00  0.00    +0.220 HD
ENDBRANCH   9  11
BRANCH   9  13
ATOM     13  O   UNL     1      10.150  -3.774  24.318  0.00  0.00    -0.322 OA
ATOM     14  H   UNL     1      10.490  -3.893  25.239  0.00  0.00    +0.220 HD
ENDBRANCH   9  13
ENDBRANCH   2   9
BRANCH   2  15
ATOM     15  O   UNL     1       8.421  -5.560  23.643  0.00  0.00    -0.367 OA
ATOM     16  H   UNL     1       7.704  -6.025  23.167  0.00  0.00    +0.212 HD
ENDBRANCH   2  15
TORSDOF 7
ENDMDL
MODEL 4
REMARK VINA RESULT:      -4.0      5.857      7.164
REMARK  Name = 
REMARK  8 active torsions:
REMARK  status: ('A' for Active; 'I' for Inactive)
REMARK    1  A    between atoms: C_1  and  C_2
REMARK    2  A    between atoms: C_2  and  O_3
REMARK    3  A    between atoms: C_2  and  P_4
REMARK    4  A    between atoms: C_2  and  P_8
REMARK    5  A    between atoms: P_4  and  O_5
REMARK    6  A    between atoms: P_4  and  O_6
REMARK    7  A    between atoms: P_8  and  O_9
REMARK    8  A    between atoms: P_8  and  O_10
REMARK                            x       y       z     vdW  Elec       q    Type
REMARK                         _______ _______ _______ _____ _____    ______ ____
ROOT
ATOM      1  C   UNL     1       9.333  -3.461  24.624  0.00  0.00    +0.068 C 
ATOM      2  C   UNL     1       8.671  -4.847  24.696  0.00  0.00    +0.264 C 
ENDROOT
BRANCH   2   3
ATOM      3  P   UNL     1       7.395  -5.073  23.405  0.00  0.00    +0.371 P 
ATOM      4  O   UNL     1       6.315  -5.265  22.312  0.00  0.00    -0.255 OA
BRANCH   3   5
ATOM      5  O   UNL     1       7.211  -3.415  23.410  0.00  0.00    -0.322 OA
ATOM      6  H   UNL     1       8.039  -3.002  23.729  0.00  0.00    +0.220 HD
ENDBRANCH   3   5
BRANCH   3   7
ATOM      7  O   UNL     1       6.244  -5.286  24.570  0.00  0.00    -0.322 OA
ATOM      8  H   UNL     1       6.704  -5.810  25.263  0.00  0.00    +0.220 HD
ENDBRANCH   3   7
ENDBRANCH   2   3
BRANCH   2   9
ATOM      9  P   UNL     1       7.894  -4.969  26.349  0.00  0.00    +0.371 P 
ATOM     10  O   UNL     1       7.237  -5.072  27.747  0.00  0.00    -0.255 OA
BRANCH   9  11
ATOM     11  O   UNL     1       7.624  -3.340  26.284  0.00  0.00    -0.322 OA
ATOM     12  H   UNL     1       6.876  -3.010  26.831  0.00  0.00    +0.220 HD
ENDBRANCH   9  11
BRANCH   9  13
ATOM     13  O   UNL     1       9.346  -4.879  27.087  0.00  0.00    -0.322 OA
ATOM     14  H   UNL     1       9.192  -5.243  27.994  0.00  0.00    +0.220 HD
ENDBRANCH   9  13
ENDBRANCH   2   9
BRANCH   2  15
ATOM     15  O   UNL     1       9.738  -5.849  24.513  0.00  0.00    -0.367 OA
ATOM     16  H   UNL     1      10.462  -5.417  24.017  0.00  0.00    +0.212 HD
ENDBRANCH   2  15
TORSDOF 7
ENDMDL
MODEL 5
REMARK VINA RESULT:      -3.9      5.347      7.189
REMARK  Name = 
REMARK  8 active torsions:
REMARK  status: ('A' for Active; 'I' for Inactive)
REMARK    1  A    between atoms: C_1  and  C_2
REMARK    2  A    between atoms: C_2  and  O_3
REMARK    3  A    between atoms: C_2  and  P_4
REMARK    4  A    between atoms: C_2  and  P_8
REMARK    5  A    between atoms: P_4  and  O_5
REMARK    6  A    between atoms: P_4  and  O_6
REMARK    7  A    between atoms: P_8  and  O_9
REMARK    8  A    between atoms: P_8  and  O_10
REMARK                            x       y       z     vdW  Elec       q    Type
REMARK                         _______ _______ _______ _____ _____    ______ ____
ROOT
ATOM      1  C   UNL     1       8.256  -2.496  25.393  0.00  0.00    +0.068 C 
ATOM      2  C   UNL     1       8.315  -3.979  24.992  0.00  0.00    +0.264 C 
ENDROOT
BRANCH   2   3
ATOM      3  P   UNL     1       7.163  -4.374  23.627  0.00  0.00    +0.371 P 
ATOM      4  O   UNL     1       6.187  -4.709  22.472  0.00  0.00    -0.255 OA
BRANCH   3   5
ATOM      5  O   UNL     1       8.201  -5.614  23.217  0.00  0.00    -0.322 OA
ATOM      6  H   UNL     1       7.736  -6.237  22.622  0.00  0.00    +0.220 HD
ENDBRANCH   3   5
BRANCH   3   7
ATOM      7  O   UNL     1       7.938  -3.293  22.649  0.00  0.00    -0.322 OA
ATOM      8  H   UNL     1       8.722  -3.790  22.322  0.00  0.00    +0.220 HD
ENDBRANCH   3   7
ENDBRANCH   2   3
BRANCH   2   9
ATOM      9  P   UNL     1       7.853  -4.942  26.478  0.00  0.00    +0.371 P 
ATOM     10  O   UNL     1       7.463  -5.756  27.735  0.00  0.00    -0.255 OA
BRANCH   9  11
ATOM     11  O   UNL     1       8.985  -6.063  26.040  0.00  0.00    -0.322 OA
ATOM     12  H   UNL     1       9.838  -5.701  25.711  0.00  0.00    +0.220 HD
ENDBRANCH   9  11
BRANCH   9  13
ATOM     13  O   UNL     1       6.602  -5.636  25.695  0.00  0.00    -0.322 OA
ATOM     14  H   UNL     1       5.808  -5.120  25.980  0.00  0.00    +0.220 HD
ENDBRANCH   9  13
ENDBRANCH   2   9
BRANCH   2  15
ATOM     15  O   UNL     1       9.699  -4.259  24.562  0.00  0.00    -0.367 OA
ATOM     16  H   UNL     1      10.237  -4.375  25.370  0.00  0.00    +0.212 HD
ENDBRANCH   2  15
TORSDOF 7
ENDMDL
MODEL 6
REMARK VINA RESULT:      -3.9      1.555      2.254
REMARK  Name = 
REMARK  8 active torsions:
REMARK  status: ('A' for Active; 'I' for Inactive)
REMARK    1  A    between atoms: C_1  and  C_2
REMARK    2  A    between atoms: C_2  and  O_3
REMARK    3  A    between atoms: C_2  and  P_4
REMARK    4  A    between atoms: C_2  and  P_8
REMARK    5  A    between atoms: P_4  and  O_5
REMARK    6  A    between atoms: P_4  and  O_6
REMARK    7  A    between atoms: P_8  and  O_9
REMARK    8  A    between atoms: P_8  and  O_10
REMARK                            x       y       z     vdW  Elec       q    Type
REMARK                         _______ _______ _______ _____ _____    ______ ____
ROOT
ATOM      1  C   UNL     1       8.044   1.694  21.602  0.00  0.00    +0.068 C 
ATOM      2  C   UNL     1       9.334   1.724  22.439  0.00  0.00    +0.264 C 
ENDROOT
BRANCH   2   3
ATOM      3  P   UNL     1       9.849   0.054  22.979  0.00  0.00    +0.371 P 
ATOM      4  O   UNL     1      10.285  -1.360  23.436  0.00  0.00    -0.255 OA
BRANCH   3   5
ATOM      5  O   UNL     1       9.868  -0.373  21.366  0.00  0.00    -0.322 OA
ATOM      6  H   UNL     1       9.529   0.374  20.833  0.00  0.00    +0.220 HD
ENDBRANCH   3   5
BRANCH   3   7
ATOM      7  O   UNL     1       8.267  -0.383  23.159  0.00  0.00    -0.322 OA
ATOM      8  H   UNL     1       7.783   0.227  22.559  0.00  0.00    +0.220 HD
ENDBRANCH   3   7
ENDBRANCH   2   3
BRANCH   2   9
ATOM      9  P   UNL     1       8.979   2.758  23.908  0.00  0.00    +0.371 P 
ATOM     10  O   UNL     1       8.679   3.631  25.150  0.00  0.00    -0.255 OA
BRANCH   9  11
ATOM     11  O   UNL     1       9.639   1.564  24.841  0.00  0.00    -0.322 OA
ATOM     12  H   UNL     1       9.039   1.165  25.510  0.00  0.00    +0.220 HD
ENDBRANCH   9  11
BRANCH   9  13
ATOM     13  O   UNL     1       7.444   2.209  23.978  0.00  0.00    -0.322 OA
ATOM     14  H   UNL     1       7.443   1.391  23.423  0.00  0.00    +0.220 HD
ENDBRANCH   9  13
ENDBRANCH   2   9
BRANCH   2  15
ATOM     15  O   UNL     1      10.388   2.314  21.592  0.00  0.00    -0.367 OA
ATOM     16  H   UNL     1       9.956   2.657  20.785  0.00  0.00    +0.212 HD
ENDBRANCH   2  15
TORSDOF 7
ENDMDL
MODEL 7
REMARK VINA RESULT:      -3.9      4.674      6.856
REMARK  Name = 
REMARK  8 active torsions:
REMARK  status: ('A' for Active; 'I' for Inactive)
REMARK    1  A    between atoms: C_1  and  C_2
REMARK    2  A    between atoms: C_2  and  O_3
REMARK    3  A    between atoms: C_2  and  P_4
REMARK    4  A    between atoms: C_2  and  P_8
REMARK    5  A    between atoms: P_4  and  O_5
REMARK    6  A    between atoms: P_4  and  O_6
REMARK    7  A    between atoms: P_8  and  O_9
REMARK    8  A    between atoms: P_8  and  O_10
REMARK                            x       y       z     vdW  Elec       q    Type
REMARK                         _______ _______ _______ _____ _____    ______ ____
ROOT
ATOM      1  C   UNL     1       7.964  -5.316  23.707  0.00  0.00    +0.068 C 
ATOM      2  C   UNL     1       7.516  -4.259  24.729  0.00  0.00    +0.264 C 
ENDROOT
BRANCH   2   3
ATOM      3  P   UNL     1       8.634  -2.811  24.765  0.00  0.00    +0.371 P 
ATOM      4  O   UNL     1       9.580  -1.586  24.795  0.00  0.00    -0.255 OA
BRANCH   3   5
ATOM      5  O   UNL     1       8.240  -2.569  23.162  0.00  0.00    -0.322 OA
ATOM      6  H   UNL     1       9.058  -2.394  22.654  0.00  0.00    +0.220 HD
ENDBRANCH   3   5
BRANCH   3   7
ATOM      7  O   UNL     1       9.915  -3.782  24.387  0.00  0.00    -0.322 OA
ATOM      8  H   UNL     1       9.495  -4.621  24.090  0.00  0.00    +0.220 HD
ENDBRANCH   3   7
ENDBRANCH   2   3
BRANCH   2   9
ATOM      9  P   UNL     1       7.527  -5.078  26.367  0.00  0.00    +0.371 P 
ATOM     10  O   UNL     1       7.536  -5.770  27.751  0.00  0.00    -0.255 OA
BRANCH   9  11
ATOM     11  O   UNL     1       8.416  -3.807  26.938  0.00  0.00    -0.322 OA
ATOM     12  H   UNL     1       8.992  -3.360  26.278  0.00  0.00    +0.220 HD
ENDBRANCH   9  11
BRANCH   9  13
ATOM     13  O   UNL     1       8.798  -6.008  25.942  0.00  0.00    -0.322 OA
ATOM     14  H   UNL     1       8.902  -5.864  24.969  0.00  0.00    +0.220 HD
ENDBRANCH   9  13
ENDBRANCH   2   9
BRANCH   2  15
ATOM     15  O   UNL     1       6.161  -3.823  24.340  0.00  0.00    -0.367 OA
ATOM     16  H   UNL     1       5.534  -4.209  24.985  0.00  0.00    +0.212 HD
ENDBRANCH   2  15
TORSDOF 7
ENDMDL
MODEL 8
REMARK VINA RESULT:      -3.8      1.939      3.996
REMARK  Name = 
REMARK  8 active torsions:
REMARK  status: ('A' for Active; 'I' for Inactive)
REMARK    1  A    between atoms: C_1  and  C_2
REMARK    2  A    between atoms: C_2  and  O_3
REMARK    3  A    between atoms: C_2  and  P_4
REMARK    4  A    between atoms: C_2  and  P_8
REMARK    5  A    between atoms: P_4  and  O_5
REMARK    6  A    between atoms: P_4  and  O_6
REMARK    7  A    between atoms: P_8  and  O_9
REMARK    8  A    between atoms: P_8  and  O_10
REMARK                            x       y       z     vdW  Elec       q    Type
REMARK                         _______ _______ _______ _____ _____    ______ ____
ROOT
ATOM      1  C   UNL     1      10.170  -0.026  23.269  0.00  0.00    +0.068 C 
ATOM      2  C   UNL     1       8.990  -0.029  22.283  0.00  0.00    +0.264 C 
ENDROOT
BRANCH   2   3
ATOM      3  P   UNL     1       8.297   1.645  22.029  0.00  0.00    +0.371 P 
ATOM      4  O   UNL     1       7.710   3.062  21.814  0.00  0.00    -0.255 OA
BRANCH   3   5
ATOM      5  O   UNL     1       9.798   2.092  21.455  0.00  0.00    -0.322 OA
ATOM      6  H   UNL     1      10.489   1.647  21.987  0.00  0.00    +0.220 HD
ENDBRANCH   3   5
BRANCH   3   7
ATOM      7  O   UNL     1       8.681   2.048  23.583  0.00  0.00    -0.322 OA
ATOM      8  H   UNL     1       8.999   2.977  23.515  0.00  0.00    +0.220 HD
ENDBRANCH   3   7
ENDBRANCH   2   3
BRANCH   2   9
ATOM      9  P   UNL     1       7.707  -1.116  23.006  0.00  0.00    +0.371 P 
ATOM     10  O   UNL     1       6.622  -2.035  23.618  0.00  0.00    -0.255 OA
BRANCH   9  11
ATOM     11  O   UNL     1       6.625   0.117  22.809  0.00  0.00    -0.322 OA
ATOM     12  H   UNL     1       6.865   0.790  22.133  0.00  0.00    +0.220 HD
ENDBRANCH   9  11
BRANCH   9  13
ATOM     13  O   UNL     1       8.158  -0.716  24.522  0.00  0.00    -0.322 OA
ATOM     14  H   UNL     1       8.942  -0.124  24.404  0.00  0.00    +0.220 HD
ENDBRANCH   9  13
ENDBRANCH   2   9
BRANCH   2  15
ATOM     15  O   UNL     1       9.495  -0.550  20.999  0.00  0.00    -0.367 OA
ATOM     16  H   UNL     1       8.972  -0.130  20.287  0.00  0.00    +0.212 HD
ENDBRANCH   2  15
TORSDOF 7
ENDMDL
MODEL 9
REMARK VINA RESULT:      -3.8      1.511      3.773
REMARK  Name = 
REMARK  8 active torsions:
REMARK  status: ('A' for Active; 'I' for Inactive)
REMARK    1  A    between atoms: C_1  and  C_2
REMARK    2  A    between atoms: C_2  and  O_3
REMARK    3  A    between atoms: C_2  and  P_4
REMARK    4  A    between atoms: C_2  and  P_8
REMARK    5  A    between atoms: P_4  and  O_5
REMARK    6  A    between atoms: P_4  and  O_6
REMARK    7  A    between atoms: P_8  and  O_9
REMARK    8  A    between atoms: P_8  and  O_10
REMARK                            x       y       z     vdW  Elec       q    Type
REMARK                         _______ _______ _______ _____ _____    ______ ____
ROOT
ATOM      1  C   UNL     1       9.098  -0.178  20.940  0.00  0.00    +0.068 C 
ATOM      2  C   UNL     1       8.982  -0.008  22.464  0.00  0.00    +0.264 C 
ENDROOT
BRANCH   2   3
ATOM      3  P   UNL     1       9.993   1.385  23.084  0.00  0.00    +0.371 P 
ATOM      4  O   UNL     1      10.848   2.564  23.609  0.00  0.00    -0.255 OA
BRANCH   3   5
ATOM      5  O   UNL     1       8.611   1.951  23.828  0.00  0.00    -0.322 OA
ATOM      6  H   UNL     1       8.645   1.729  24.780  0.00  0.00    +0.220 HD
ENDBRANCH   3   5
BRANCH   3   7
ATOM      7  O   UNL     1       9.690   2.231  21.698  0.00  0.00    -0.322 OA
ATOM      8  H   UNL     1       9.778   1.557  20.987  0.00  0.00    +0.220 HD
ENDBRANCH   3   7
ENDBRANCH   2   3
BRANCH   2   9
ATOM      9  P   UNL     1       9.574  -1.571  23.211  0.00  0.00    +0.371 P 
ATOM     10  O   UNL     1      10.074  -2.892  23.842  0.00  0.00    -0.255 OA
BRANCH   9  11
ATOM     11  O   UNL     1      10.465  -0.667  24.268  0.00  0.00    -0.322 OA
ATOM     12  H   UNL     1      11.426  -0.603  24.070  0.00  0.00    +0.220 HD
ENDBRANCH   9  11
BRANCH   9  13
ATOM     13  O   UNL     1      10.740  -1.722  22.080  0.00  0.00    -0.322 OA
ATOM     14  H   UNL     1      11.088  -0.805  21.952  0.00  0.00    +0.220 HD
ENDBRANCH   9  13
ENDBRANCH   2   9
BRANCH   2  15
ATOM     15  O   UNL     1       7.560   0.244  22.767  0.00  0.00    -0.367 OA
ATOM     16  H   UNL     1       7.049   0.043  21.957  0.00  0.00    +0.212 HD
ENDBRANCH   2  15
TORSDOF 7
ENDMDL
