MODEL 1
REMARK VINA RESULT:      -6.5      0.000      0.000
REMARK  Name = 
REMARK  4 active torsions:
REMARK  status: ('A' for Active; 'I' for Inactive)
REMARK    1  A    between atoms: NE_4  and  CD_5
REMARK    2  A    between atoms: CD_5  and  CG_6
REMARK    3  A    between atoms: CG_6  and  CB_7
REMARK    4  A    between atoms: CB_7  and  CA_8
REMARK                            x       y       z     vdW  Elec       q    Type
REMARK                         _______ _______ _______ _____ _____    ______ ____
ROOT
ATOM      1  CA  ARG A   2       7.375  -2.081  23.794  0.00  0.00    +0.159 C 
ATOM      2  C   ARG A   2       6.791  -0.645  23.775  0.00  0.00    +0.237 C 
ATOM      3  O   ARG A   2       5.703  -0.376  24.282  0.00  0.00    -0.274 OA
ATOM      4  N   PRO A   1       7.453   0.207  22.924  0.00  0.00    -0.288 N 
ATOM      5  CA  PRO A   1       8.883   0.108  22.699  0.00  0.00    +0.162 C 
ATOM      6  CB  PRO A   1       9.087   1.008  21.494  0.00  0.00    +0.033 C 
ATOM      7  CG  PRO A   1       8.126   2.161  21.803  0.00  0.00    +0.021 C 
ATOM      8  C   PRO A   1       9.372  -1.330  22.565  0.00  0.00    +0.234 C 
ATOM      9  O   PRO A   1      10.342  -1.681  21.905  0.00  0.00    -0.274 OA
ATOM     10  CD  PRO A   1       6.940   1.491  22.495  0.00  0.00    +0.109 C 
ATOM     11  N   ARG A   2       8.813  -2.161  23.519  0.00  0.00    -0.302 N 
ATOM     12  H   ARG A   2       9.224  -3.086  23.514  0.00  0.00    +0.150 HD
ENDROOT
BRANCH   1  13
ATOM     13  CB  ARG A   2       6.587  -2.932  22.779  0.00  0.00    +0.035 C 
BRANCH  13  14
ATOM     14  CG  ARG A   2       7.152  -4.342  22.562  0.00  0.00    +0.043 C 
BRANCH  14  15
ATOM     15  CD  ARG A   2       7.336  -5.100  23.875  0.00  0.00    +0.243 C 
BRANCH  15  20
ATOM     16  NH1 ARG A   2      10.374  -5.566  25.736  0.00  0.00    -0.289 N 
ATOM     17 HH11 ARG A   2      10.966  -5.251  24.975  0.00  0.00    +0.255 HD
ATOM     18 HH12 ARG A   2      10.640  -5.153  26.617  0.00  0.00    +0.255 HD
ATOM     19  CZ  ARG A   2       9.072  -5.454  25.400  0.00  0.00    +0.376 C 
ATOM     20  NE  ARG A   2       8.760  -5.180  24.186  0.00  0.00    -0.114 NA
ATOM     21  NH2 ARG A   2       8.263  -5.688  26.454  0.00  0.00    -0.289 N 
ATOM     22 HH21 ARG A   2       7.282  -5.467  26.364  0.00  0.00    +0.255 HD
ATOM     23 HH22 ARG A   2       8.638  -5.586  27.385  0.00  0.00    +0.255 HD
ENDBRANCH  15  20
ENDBRANCH  14  15
ENDBRANCH  13  14
ENDBRANCH   1  13
TORSDOF 4
ENDMDL
MODEL 2
REMARK VINA RESULT:      -6.5      2.230      5.786
REMARK  Name = 
REMARK  4 active torsions:
REMARK  status: ('A' for Active; 'I' for Inactive)
REMARK    1  A    between atoms: NE_4  and  CD_5
REMARK    2  A    between atoms: CD_5  and  CG_6
REMARK    3  A    between atoms: CG_6  and  CB_7
REMARK    4  A    between atoms: CB_7  and  CA_8
REMARK                            x       y       z     vdW  Elec       q    Type
REMARK                         _______ _______ _______ _____ _____    ______ ____
ROOT
ATOM      1  CA  ARG A   2       9.728  -2.234  23.728  0.00  0.00    +0.159 C 
ATOM      2  C   ARG A   2       8.726  -2.327  22.549  0.00  0.00    +0.237 C 
ATOM      3  O   ARG A   2       8.742  -1.528  21.614  0.00  0.00    -0.274 OA
ATOM      4  N   PRO A   1       7.680  -3.187  22.783  0.00  0.00    -0.288 N 
ATOM      5  CA  PRO A   1       7.843  -4.398  23.565  0.00  0.00    +0.162 C 
ATOM      6  CB  PRO A   1       6.408  -4.827  23.805  0.00  0.00    +0.033 C 
ATOM      7  CG  PRO A   1       5.757  -4.500  22.457  0.00  0.00    +0.021 C 
ATOM      8  C   PRO A   1       8.711  -4.201  24.804  0.00  0.00    +0.234 C 
ATOM      9  O   PRO A   1       8.605  -4.842  25.842  0.00  0.00    -0.274 OA
ATOM     10  CD  PRO A   1       6.469  -3.230  21.992  0.00  0.00    +0.109 C 
ATOM     11  N   ARG A   2       9.843  -3.455  24.532  0.00  0.00    -0.302 N 
ATOM     12  H   ARG A   2      10.483  -3.424  25.317  0.00  0.00    +0.150 HD
ENDROOT
BRANCH   1  13
ATOM     13  CB  ARG A   2       9.315  -1.045  24.615  0.00  0.00    +0.035 C 
BRANCH  13  14
ATOM     14  CG  ARG A   2      10.392   0.039  24.765  0.00  0.00    +0.043 C 
BRANCH  14  15
ATOM     15  CD  ARG A   2       9.874   1.426  24.389  0.00  0.00    +0.243 C 
BRANCH  15  20
ATOM     16  NH1 ARG A   2       8.366   1.650  21.136  0.00  0.00    -0.289 N 
ATOM     17 HH11 ARG A   2       7.462   1.321  21.459  0.00  0.00    +0.255 HD
ATOM     18 HH12 ARG A   2       8.281   2.457  20.537  0.00  0.00    +0.255 HD
ATOM     19  CZ  ARG A   2       9.224   1.768  22.169  0.00  0.00    +0.376 C 
ATOM     20  NE  ARG A   2       8.893   1.296  23.316  0.00  0.00    -0.114 NA
ATOM     21  NH2 ARG A   2      10.370   2.377  21.799  0.00  0.00    -0.289 N 
ATOM     22 HH21 ARG A   2      11.012   2.670  22.520  0.00  0.00    +0.255 HD
ATOM     23 HH22 ARG A   2      10.367   2.954  20.973  0.00  0.00    +0.255 HD
ENDBRANCH  15  20
ENDBRANCH  14  15
ENDBRANCH  13  14
ENDBRANCH   1  13
TORSDOF 4
ENDMDL
MODEL 3
REMARK VINA RESULT:      -6.1      1.591      1.705
REMARK  Name = 
REMARK  4 active torsions:
REMARK  status: ('A' for Active; 'I' for Inactive)
REMARK    1  A    between atoms: NE_4  and  CD_5
REMARK    2  A    between atoms: CD_5  and  CG_6
REMARK    3  A    between atoms: CG_6  and  CB_7
REMARK    4  A    between atoms: CB_7  and  CA_8
REMARK                            x       y       z     vdW  Elec       q    Type
REMARK                         _______ _______ _______ _____ _____    ______ ____
ROOT
ATOM      1  CA  ARG A   2       8.569  -1.589  24.836  0.00  0.00    +0.159 C 
ATOM      2  C   ARG A   2       8.688  -0.106  25.272  0.00  0.00    +0.237 C 
ATOM      3  O   ARG A   2       8.156   0.318  26.297  0.00  0.00    -0.274 OA
ATOM      4  N   PRO A   1       9.192   0.715  24.293  0.00  0.00    -0.288 N 
ATOM      5  CA  PRO A   1      10.191   0.257  23.346  0.00  0.00    +0.162 C 
ATOM      6  CB  PRO A   1      10.193   1.367  22.311  0.00  0.00    +0.033 C 
ATOM      7  CG  PRO A   1      10.040   2.612  23.192  0.00  0.00    +0.021 C 
ATOM      8  C   PRO A   1       9.927  -1.154  22.830  0.00  0.00    +0.234 C 
ATOM      9  O   PRO A   1      10.265  -1.571  21.730  0.00  0.00    -0.274 OA
ATOM     10  CD  PRO A   1       9.123   2.161  24.328  0.00  0.00    +0.109 C 
ATOM     11  N   ARG A   2       9.560  -2.018  23.845  0.00  0.00    -0.302 N 
ATOM     12  H   ARG A   2       9.503  -2.980  23.532  0.00  0.00    +0.150 HD
ENDROOT
BRANCH   1  13
ATOM     13  CB  ARG A   2       7.142  -1.818  24.301  0.00  0.00    +0.035 C 
BRANCH  13  14
ATOM     14  CG  ARG A   2       6.949  -3.148  23.559  0.00  0.00    +0.043 C 
BRANCH  14  15
ATOM     15  CD  ARG A   2       7.045  -4.352  24.495  0.00  0.00    +0.243 C 
BRANCH  15  20
ATOM     16  NH1 ARG A   2      10.095  -5.864  25.644  0.00  0.00    -0.289 N 
ATOM     17 HH11 ARG A   2      10.613  -5.611  24.809  0.00  0.00    +0.255 HD
ATOM     18 HH12 ARG A   2      10.616  -5.666  26.484  0.00  0.00    +0.255 HD
ATOM     19  CZ  ARG A   2       8.843  -5.366  25.594  0.00  0.00    +0.376 C 
ATOM     20  NE  ARG A   2       8.417  -4.848  24.499  0.00  0.00    -0.114 NA
ATOM     21  NH2 ARG A   2       8.194  -5.526  26.766  0.00  0.00    -0.289 N 
ATOM     22 HH21 ARG A   2       7.318  -5.044  26.899  0.00  0.00    +0.255 HD
ATOM     23 HH22 ARG A   2       8.737  -5.661  27.605  0.00  0.00    +0.255 HD
ENDBRANCH  15  20
ENDBRANCH  14  15
ENDBRANCH  13  14
ENDBRANCH   1  13
TORSDOF 4
ENDMDL
MODEL 4
REMARK VINA RESULT:      -6.0      2.431      6.046
REMARK  Name = 
REMARK  4 active torsions:
REMARK  status: ('A' for Active; 'I' for Inactive)
REMARK    1  A    between atoms: NE_4  and  CD_5
REMARK    2  A    between atoms: CD_5  and  CG_6
REMARK    3  A    between atoms: CG_6  and  CB_7
REMARK    4  A    between atoms: CB_7  and  CA_8
REMARK                            x       y       z     vdW  Elec       q    Type
REMARK                         _______ _______ _______ _____ _____    ______ ____
ROOT
ATOM      1  CA  ARG A   2       9.066  -3.002  24.065  0.00  0.00    +0.159 C 
ATOM      2  C   ARG A   2       7.841  -3.423  23.214  0.00  0.00    +0.237 C 
ATOM      3  O   ARG A   2       7.620  -2.941  22.105  0.00  0.00    -0.274 OA
ATOM      4  N   PRO A   1       6.910  -4.153  23.915  0.00  0.00    -0.288 N 
ATOM      5  CA  PRO A   1       7.293  -5.077  24.966  0.00  0.00    +0.162 C 
ATOM      6  CB  PRO A   1       5.963  -5.386  25.628  0.00  0.00    +0.033 C 
ATOM      7  CG  PRO A   1       5.025  -5.463  24.419  0.00  0.00    +0.021 C 
ATOM      8  C   PRO A   1       8.395  -4.536  25.870  0.00  0.00    +0.234 C 
ATOM      9  O   PRO A   1       8.543  -4.834  27.048  0.00  0.00    -0.274 OA
ATOM     10  CD  PRO A   1       5.561  -4.406  23.456  0.00  0.00    +0.109 C 
ATOM     11  N   ARG A   2       9.407  -3.928  25.150  0.00  0.00    -0.302 N 
ATOM     12  H   ARG A   2      10.197  -3.676  25.731  0.00  0.00    +0.150 HD
ENDROOT
BRANCH   1  13
ATOM     13  CB  ARG A   2       8.797  -1.593  24.628  0.00  0.00    +0.035 C 
BRANCH  13  14
ATOM     14  CG  ARG A   2       9.959  -0.606  24.447  0.00  0.00    +0.043 C 
BRANCH  14  15
ATOM     15  CD  ARG A   2      10.285  -0.360  22.975  0.00  0.00    +0.243 C 
BRANCH  15  20
ATOM     16  NH1 ARG A   2       8.127   1.840  21.128  0.00  0.00    -0.289 N 
ATOM     17 HH11 ARG A   2       7.306   1.260  21.268  0.00  0.00    +0.255 HD
ATOM     18 HH12 ARG A   2       7.932   2.815  21.296  0.00  0.00    +0.255 HD
ATOM     19  CZ  ARG A   2       9.187   1.327  21.786  0.00  0.00    +0.376 C 
ATOM     20  NE  ARG A   2       9.098   0.155  22.301  0.00  0.00    -0.114 NA
ATOM     21  NH2 ARG A   2      10.239   2.172  21.772  0.00  0.00    -0.289 N 
ATOM     22 HH21 ARG A   2      11.024   1.970  22.373  0.00  0.00    +0.255 HD
ATOM     23 HH22 ARG A   2      10.071   3.152  21.608  0.00  0.00    +0.255 HD
ENDBRANCH  15  20
ENDBRANCH  14  15
ENDBRANCH  13  14
ENDBRANCH   1  13
TORSDOF 4
ENDMDL
MODEL 5
REMARK VINA RESULT:      -5.8      2.377      5.781
REMARK  Name = 
REMARK  4 active torsions:
REMARK  status: ('A' for Active; 'I' for Inactive)
REMARK    1  A    between atoms: NE_4  and  CD_5
REMARK    2  A    between atoms: CD_5  and  CG_6
REMARK    3  A    between atoms: CG_6  and  CB_7
REMARK    4  A    between atoms: CB_7  and  CA_8
REMARK                            x       y       z     vdW  Elec       q    Type
REMARK                         _______ _______ _______ _____ _____    ______ ____
ROOT
ATOM      1  CA  ARG A   2       7.999  -1.638  22.935  0.00  0.00    +0.159 C 
ATOM      2  C   ARG A   2       8.086  -1.640  24.483  0.00  0.00    +0.237 C 
ATOM      3  O   ARG A   2       8.353  -0.625  25.123  0.00  0.00    -0.274 OA
ATOM      4  N   PRO A   1       8.110  -2.901  25.030  0.00  0.00    -0.288 N 
ATOM      5  CA  PRO A   1       7.380  -4.007  24.441  0.00  0.00    +0.162 C 
ATOM      6  CB  PRO A   1       7.949  -5.204  25.180  0.00  0.00    +0.033 C 
ATOM      7  CG  PRO A   1       8.095  -4.650  26.601  0.00  0.00    +0.021 C 
ATOM      8  C   PRO A   1       7.467  -4.042  22.919  0.00  0.00    +0.234 C 
ATOM      9  O   PRO A   1       7.405  -5.057  22.237  0.00  0.00    -0.274 OA
ATOM     10  CD  PRO A   1       8.487  -3.187  26.398  0.00  0.00    +0.109 C 
ATOM     11  N   ARG A   2       7.296  -2.789  22.359  0.00  0.00    -0.302 N 
ATOM     12  H   ARG A   2       7.231  -2.823  21.349  0.00  0.00    +0.150 HD
ENDROOT
BRANCH   1  13
ATOM     13  CB  ARG A   2       9.432  -1.550  22.375  0.00  0.00    +0.035 C 
BRANCH  13  14
ATOM     14  CG  ARG A   2       9.663  -0.381  21.408  0.00  0.00    +0.043 C 
BRANCH  14  15
ATOM     15  CD  ARG A   2       8.899   0.875  21.824  0.00  0.00    +0.243 C 
BRANCH  15  20
ATOM     16  NH1 ARG A   2      11.021   3.423  23.207  0.00  0.00    -0.289 N 
ATOM     17 HH11 ARG A   2      11.205   3.852  22.306  0.00  0.00    +0.255 HD
ATOM     18 HH12 ARG A   2      10.800   4.109  23.912  0.00  0.00    +0.255 HD
ATOM     19  CZ  ARG A   2      10.145   2.406  23.077  0.00  0.00    +0.376 C 
ATOM     20  NE  ARG A   2       9.828   1.997  21.902  0.00  0.00    -0.114 NA
ATOM     21  NH2 ARG A   2       9.740   1.940  24.277  0.00  0.00    -0.289 N 
ATOM     22 HH21 ARG A   2       8.961   1.298  24.305  0.00  0.00    +0.255 HD
ATOM     23 HH22 ARG A   2       9.825   2.539  25.083  0.00  0.00    +0.255 HD
ENDBRANCH  15  20
ENDBRANCH  14  15
ENDBRANCH  13  14
ENDBRANCH   1  13
TORSDOF 4
ENDMDL
MODEL 6
REMARK VINA RESULT:      -5.8      3.317      5.068
REMARK  Name = 
REMARK  4 active torsions:
REMARK  status: ('A' for Active; 'I' for Inactive)
REMARK    1  A    between atoms: NE_4  and  CD_5
REMARK    2  A    between atoms: CD_5  and  CG_6
REMARK    3  A    between atoms: CG_6  and  CB_7
REMARK    4  A    between atoms: CB_7  and  CA_8
REMARK                            x       y       z     vdW  Elec       q    Type
REMARK                         _______ _______ _______ _____ _____    ______ ____
ROOT
ATOM      1  CA  ARG A   2       9.582   1.963  23.293  0.00  0.00    +0.159 C 
ATOM      2  C   ARG A   2       8.355   2.877  23.544  0.00  0.00    +0.237 C 
ATOM      3  O   ARG A   2       7.205   2.439  23.549  0.00  0.00    -0.274 OA
ATOM      4  N   PRO A   1       8.647   4.218  23.485  0.00  0.00    -0.288 N 
ATOM      5  CA  PRO A   1       9.924   4.746  23.928  0.00  0.00    +0.162 C 
ATOM      6  CB  PRO A   1       9.895   6.164  23.390  0.00  0.00    +0.033 C 
ATOM      7  CG  PRO A   1       8.433   6.555  23.624  0.00  0.00    +0.021 C 
ATOM      8  C   PRO A   1      11.109   3.882  23.509  0.00  0.00    +0.234 C 
ATOM      9  O   PRO A   1      12.240   4.301  23.297  0.00  0.00    -0.274 OA
ATOM     10  CD  PRO A   1       7.652   5.264  23.381  0.00  0.00    +0.109 C 
ATOM     11  N   ARG A   2      10.866   2.535  23.708  0.00  0.00    -0.302 N 
ATOM     12  H   ARG A   2      11.690   1.967  23.549  0.00  0.00    +0.150 HD
ENDROOT
BRANCH   1  13
ATOM     13  CB  ARG A   2       9.613   1.604  21.796  0.00  0.00    +0.035 C 
BRANCH  13  14
ATOM     14  CG  ARG A   2       9.346   0.123  21.493  0.00  0.00    +0.043 C 
BRANCH  14  15
ATOM     15  CD  ARG A   2       9.039  -0.680  22.757  0.00  0.00    +0.243 C 
BRANCH  15  20
ATOM     16  NH1 ARG A   2       5.864  -2.345  22.535  0.00  0.00    -0.289 N 
ATOM     17 HH11 ARG A   2       6.266  -3.207  22.181  0.00  0.00    +0.255 HD
ATOM     18 HH12 ARG A   2       5.192  -2.516  23.268  0.00  0.00    +0.255 HD
ATOM     19  CZ  ARG A   2       6.834  -1.452  22.819  0.00  0.00    +0.376 C 
ATOM     20  NE  ARG A   2       8.038  -1.695  22.448  0.00  0.00    -0.114 NA
ATOM     21  NH2 ARG A   2       6.344  -0.372  23.463  0.00  0.00    -0.289 N 
ATOM     22 HH21 ARG A   2       6.998   0.278  23.874  0.00  0.00    +0.255 HD
ATOM     23 HH22 ARG A   2       5.466  -0.455  23.950  0.00  0.00    +0.255 HD
ENDBRANCH  15  20
ENDBRANCH  14  15
ENDBRANCH  13  14
ENDBRANCH   1  13
TORSDOF 4
ENDMDL
MODEL 7
REMARK VINA RESULT:      -5.7      1.806      5.972
REMARK  Name = 
REMARK  4 active torsions:
REMARK  status: ('A' for Active; 'I' for Inactive)
REMARK    1  A    between atoms: NE_4  and  CD_5
REMARK    2  A    between atoms: CD_5  and  CG_6
REMARK    3  A    between atoms: CG_6  and  CB_7
REMARK    4  A    between atoms: CB_7  and  CA_8
REMARK                            x       y       z     vdW  Elec       q    Type
REMARK                         _______ _______ _______ _____ _____    ______ ____
ROOT
ATOM      1  CA  ARG A   2       9.278  -1.956  24.548  0.00  0.00    +0.159 C 
ATOM      2  C   ARG A   2       9.097  -3.494  24.481  0.00  0.00    +0.237 C 
ATOM      3  O   ARG A   2      10.053  -4.266  24.523  0.00  0.00    -0.274 OA
ATOM      4  N   PRO A   1       7.834  -3.882  24.103  0.00  0.00    -0.288 N 
ATOM      5  CA  PRO A   1       6.654  -3.127  24.479  0.00  0.00    +0.162 C 
ATOM      6  CB  PRO A   1       5.580  -3.739  23.599  0.00  0.00    +0.033 C 
ATOM      7  CG  PRO A   1       5.961  -5.223  23.632  0.00  0.00    +0.021 C 
ATOM      8  C   PRO A   1       6.846  -1.618  24.369  0.00  0.00    +0.234 C 
ATOM      9  O   PRO A   1       5.953  -0.815  24.131  0.00  0.00    -0.274 OA
ATOM     10  CD  PRO A   1       7.488  -5.221  23.674  0.00  0.00    +0.109 C 
ATOM     11  N   ARG A   2       8.062  -1.210  24.886  0.00  0.00    -0.302 N 
ATOM     12  H   ARG A   2       8.144  -0.201  24.929  0.00  0.00    +0.150 HD
ENDROOT
BRANCH   1  13
ATOM     13  CB  ARG A   2       9.840  -1.479  23.195  0.00  0.00    +0.035 C 
BRANCH  13  14
ATOM     14  CG  ARG A   2      10.553  -0.121  23.248  0.00  0.00    +0.043 C 
BRANCH  14  15
ATOM     15  CD  ARG A   2       9.889   0.916  22.344  0.00  0.00    +0.243 C 
BRANCH  15  20
ATOM     16  NH1 ARG A   2       6.376   1.661  22.255  0.00  0.00    -0.289 N 
ATOM     17 HH11 ARG A   2       6.102   0.722  22.525  0.00  0.00    +0.255 HD
ATOM     18 HH12 ARG A   2       5.869   2.363  22.772  0.00  0.00    +0.255 HD
ATOM     19  CZ  ARG A   2       7.719   1.781  22.254  0.00  0.00    +0.376 C 
ATOM     20  NE  ARG A   2       8.442   0.729  22.382  0.00  0.00    -0.114 NA
ATOM     21  NH2 ARG A   2       8.105   3.063  22.083  0.00  0.00    -0.289 N 
ATOM     22 HH21 ARG A   2       9.075   3.296  22.234  0.00  0.00    +0.255 HD
ATOM     23 HH22 ARG A   2       7.452   3.799  22.303  0.00  0.00    +0.255 HD
ENDBRANCH  15  20
ENDBRANCH  14  15
ENDBRANCH  13  14
ENDBRANCH   1  13
TORSDOF 4
ENDMDL
MODEL 8
REMARK VINA RESULT:      -5.7      1.825      2.525
REMARK  Name = 
REMARK  4 active torsions:
REMARK  status: ('A' for Active; 'I' for Inactive)
REMARK    1  A    between atoms: NE_4  and  CD_5
REMARK    2  A    between atoms: CD_5  and  CG_6
REMARK    3  A    between atoms: CG_6  and  CB_7
REMARK    4  A    between atoms: CB_7  and  CA_8
REMARK                            x       y       z     vdW  Elec       q    Type
REMARK                         _______ _______ _______ _____ _____    ______ ____
ROOT
ATOM      1  CA  ARG A   2       8.482  -1.532  24.966  0.00  0.00    +0.159 C 
ATOM      2  C   ARG A   2       7.806  -0.169  24.669  0.00  0.00    +0.237 C 
ATOM      3  O   ARG A   2       6.898   0.276  25.369  0.00  0.00    -0.274 OA
ATOM      4  N   PRO A   1       8.120   0.342  23.433  0.00  0.00    -0.288 N 
ATOM      5  CA  PRO A   1       9.423   0.141  22.828  0.00  0.00    +0.162 C 
ATOM      6  CB  PRO A   1       9.192   0.592  21.397  0.00  0.00    +0.033 C 
ATOM      7  CG  PRO A   1       8.277   1.804  21.599  0.00  0.00    +0.021 C 
ATOM      8  C   PRO A   1       9.963  -1.272  23.017  0.00  0.00    +0.234 C 
ATOM      9  O   PRO A   1      10.721  -1.842  22.243  0.00  0.00    -0.274 OA
ATOM     10  CD  PRO A   1       7.403   1.425  22.794  0.00  0.00    +0.109 C 
ATOM     11  N   ARG A   2       9.777  -1.731  24.309  0.00  0.00    -0.302 N 
ATOM     12  H   ARG A   2      10.240  -2.616  24.474  0.00  0.00    +0.150 HD
ENDROOT
BRANCH   1  13
ATOM     13  CB  ARG A   2       7.500  -2.650  24.566  0.00  0.00    +0.035 C 
BRANCH  13  14
ATOM     14  CG  ARG A   2       8.095  -4.064  24.617  0.00  0.00    +0.043 C 
BRANCH  14  15
ATOM     15  CD  ARG A   2       7.121  -5.121  24.100  0.00  0.00    +0.243 C 
BRANCH  15  20
ATOM     16  NH1 ARG A   2       6.189  -5.761  20.690  0.00  0.00    -0.289 N 
ATOM     17 HH11 ARG A   2       7.078  -5.442  20.318  0.00  0.00    +0.255 HD
ATOM     18 HH12 ARG A   2       5.896  -6.630  20.271  0.00  0.00    +0.255 HD
ATOM     19  CZ  ARG A   2       6.201  -5.728  22.038  0.00  0.00    +0.376 C 
ATOM     20  NE  ARG A   2       7.176  -5.152  22.642  0.00  0.00    -0.114 NA
ATOM     21  NH2 ARG A   2       5.107  -6.319  22.561  0.00  0.00    -0.289 N 
ATOM     22 HH21 ARG A   2       5.090  -6.504  23.553  0.00  0.00    +0.255 HD
ATOM     23 HH22 ARG A   2       4.598  -6.982  21.997  0.00  0.00    +0.255 HD
ENDBRANCH  15  20
ENDBRANCH  14  15
ENDBRANCH  13  14
ENDBRANCH   1  13
TORSDOF 4
ENDMDL
MODEL 9
REMARK VINA RESULT:      -5.7      1.657      2.912
REMARK  Name = 
REMARK  4 active torsions:
REMARK  status: ('A' for Active; 'I' for Inactive)
REMARK    1  A    between atoms: NE_4  and  CD_5
REMARK    2  A    between atoms: CD_5  and  CG_6
REMARK    3  A    between atoms: CG_6  and  CB_7
REMARK    4  A    between atoms: CB_7  and  CA_8
REMARK                            x       y       z     vdW  Elec       q    Type
REMARK                         _______ _______ _______ _____ _____    ______ ____
ROOT
ATOM      1  CA  ARG A   2       6.964  -1.253  23.080  0.00  0.00    +0.159 C 
ATOM      2  C   ARG A   2       8.513  -1.280  23.088  0.00  0.00    +0.237 C 
ATOM      3  O   ARG A   2       9.149  -2.318  22.914  0.00  0.00    -0.274 OA
ATOM      4  N   PRO A   1       9.081  -0.123  23.567  0.00  0.00    -0.288 N 
ATOM      5  CA  PRO A   1       8.477   1.177  23.346  0.00  0.00    +0.162 C 
ATOM      6  CB  PRO A   1       9.259   2.066  24.294  0.00  0.00    +0.033 C 
ATOM      7  CG  PRO A   1      10.676   1.502  24.149  0.00  0.00    +0.021 C 
ATOM      8  C   PRO A   1       6.961   1.171  23.512  0.00  0.00    +0.234 C 
ATOM      9  O   PRO A   1       6.293   2.131  23.875  0.00  0.00    -0.274 OA
ATOM     10  CD  PRO A   1      10.468   0.001  23.959  0.00  0.00    +0.109 C 
ATOM     11  N   ARG A   2       6.375   0.078  22.900  0.00  0.00    -0.302 N 
ATOM     12  H   ARG A   2       5.363   0.132  22.900  0.00  0.00    +0.150 HD
ENDROOT
BRANCH   1  13
ATOM     13  CB  ARG A   2       6.467  -1.885  24.394  0.00  0.00    +0.035 C 
BRANCH  13  14
ATOM     14  CG  ARG A   2       5.614  -3.148  24.207  0.00  0.00    +0.043 C 
BRANCH  14  15
ATOM     15  CD  ARG A   2       6.463  -4.378  23.891  0.00  0.00    +0.243 C 
BRANCH  15  20
ATOM     16  NH1 ARG A   2       8.200  -5.779  26.707  0.00  0.00    -0.289 N 
ATOM     17 HH11 ARG A   2       7.401  -6.326  27.011  0.00  0.00    +0.255 HD
ATOM     18 HH12 ARG A   2       9.051  -6.320  26.714  0.00  0.00    +0.255 HD
ATOM     19  CZ  ARG A   2       7.920  -5.132  25.557  0.00  0.00    +0.376 C 
ATOM     20  NE  ARG A   2       6.712  -5.118  25.124  0.00  0.00    -0.114 NA
ATOM     21  NH2 ARG A   2       9.018  -4.549  25.033  0.00  0.00    -0.289 N 
ATOM     22 HH21 ARG A   2       8.964  -4.184  24.093  0.00  0.00    +0.255 HD
ATOM     23 HH22 ARG A   2       9.925  -4.894  25.304  0.00  0.00    +0.255 HD
ENDBRANCH  15  20
ENDBRANCH  14  15
ENDBRANCH  13  14
ENDBRANCH   1  13
TORSDOF 4
ENDMDL
