MODEL 1
REMARK VINA RESULT:      -7.1      0.000      0.000
REMARK  Name = 
REMARK  11 active torsions:
REMARK  status: ('A' for Active; 'I' for Inactive)
REMARK    1  A    between atoms: C_1  and  C_2
REMARK    2  A    between atoms: N_4  and  C_5
REMARK    3  A    between atoms: C_8  and  O_10
REMARK    4  A    between atoms: C_11  and  C_13
REMARK    5  A    between atoms: C_13  and  O_14
REMARK    6  A    between atoms: O_14  and  P_15
REMARK    7  A    between atoms: P_15  and  O_16
REMARK    8  A    between atoms: P_15  and  O_18
REMARK    9  A    between atoms: O_18  and  P_19
REMARK   10  A    between atoms: P_19  and  O_20
REMARK   11  A    between atoms: P_19  and  O_21
REMARK                            x       y       z     vdW  Elec       q    Type
REMARK                         _______ _______ _______ _____ _____    ______ ____
ROOT
ATOM      1  C   UNL     1       9.051   1.275  23.242  0.00  0.00    +0.226 C 
ATOM      2  O   UNL     1       9.545   0.450  24.322  0.00  0.00    -0.348 OA
ATOM      3  C   UNL     1       9.881  -0.877  23.809  0.00  0.00    +0.175 C 
ATOM      4  C   UNL     1       9.521  -0.851  22.316  0.00  0.00    +0.150 C 
ATOM      5  C   UNL     1       9.559   0.632  21.969  0.00  0.00    +0.088 C 
ENDROOT
BRANCH   1  14
ATOM      6  C   UNL     1      12.627   4.758  23.339  0.00  0.00    +0.051 C 
ATOM      7  C   UNL     1      11.203   4.313  23.467  0.00  0.00    +0.030 A 
ATOM      8  C   UNL     1      10.202   5.331  23.857  0.00  0.00    +0.257 A 
ATOM      9  O   UNL     1      10.519   6.488  24.112  0.00  0.00    -0.267 OA
ATOM     10  N   UNL     1       8.909   4.896  23.905  0.00  0.00    -0.275 N 
ATOM     11  H   UNL     1       8.210   5.581  24.157  0.00  0.00    +0.173 HD
ATOM     12  C   UNL     1       8.470   3.612  23.702  0.00  0.00    +0.331 A 
ATOM     13  O   UNL     1       7.278   3.344  23.783  0.00  0.00    -0.246 OA
ATOM     14  N   UNL     1       9.461   2.674  23.412  0.00  0.00    -0.274 N 
ATOM     15  C   UNL     1      10.783   3.056  23.265  0.00  0.00    +0.101 A 
ENDBRANCH   1  14
BRANCH   4  16
ATOM     16  O   UNL     1      10.465  -1.536  21.495  0.00  0.00    -0.389 OA
ATOM     17  H   UNL     1      10.028  -1.781  20.659  0.00  0.00    +0.210 HD
ENDBRANCH   4  16
BRANCH   3  18
ATOM     18  C   UNL     1       9.227  -1.931  24.752  0.00  0.00    +0.206 C 
BRANCH  18  19
ATOM     19  O   UNL     1       8.950  -3.233  24.263  0.00  0.00    -0.284 OA
BRANCH  19  20
ATOM     20  P   UNL     1       8.922  -4.614  25.160  0.00  0.00    +0.483 P 
ATOM     21  O   UNL     1       8.600  -5.787  24.232  0.00  0.00    -0.227 OA
BRANCH  20  22
ATOM     22  O   UNL     1      10.596  -4.923  24.852  0.00  0.00    -0.302 OA
ATOM     23  H   UNL     1      10.775  -5.727  25.384  0.00  0.00    +0.222 HD
ENDBRANCH  20  22
BRANCH  20  24
ATOM     24  O   UNL     1       7.248  -4.307  25.469  0.00  0.00    -0.186 OA
BRANCH  24  25
ATOM     25  P   UNL     1       6.849  -4.844  27.064  0.00  0.00    +0.481 P 
ATOM     26  O   UNL     1       6.491  -5.324  28.493  0.00  0.00    -0.227 OA
BRANCH  25  27
ATOM     27  O   UNL     1       8.418  -5.305  27.181  0.00  0.00    -0.302 OA
ATOM     28  H   UNL     1       8.934  -4.709  27.751  0.00  0.00    +0.222 HD
ENDBRANCH  25  27
BRANCH  25  29
ATOM     29  O   UNL     1       6.350  -6.225  26.363  0.00  0.00    -0.302 OA
ATOM     30  H   UNL     1       6.665  -6.991  26.882  0.00  0.00    +0.222 HD
ENDBRANCH  25  29
ENDBRANCH  24  25
ENDBRANCH  20  24
ENDBRANCH  19  20
ENDBRANCH  18  19
ENDBRANCH   3  18
TORSDOF 10
ENDMDL
MODEL 2
REMARK VINA RESULT:      -6.9      2.681      4.676
REMARK  Name = 
REMARK  11 active torsions:
REMARK  status: ('A' for Active; 'I' for Inactive)
REMARK    1  A    between atoms: C_1  and  C_2
REMARK    2  A    between atoms: N_4  and  C_5
REMARK    3  A    between atoms: C_8  and  O_10
REMARK    4  A    between atoms: C_11  and  C_13
REMARK    5  A    between atoms: C_13  and  O_14
REMARK    6  A    between atoms: O_14  and  P_15
REMARK    7  A    between atoms: P_15  and  O_16
REMARK    8  A    between atoms: P_15  and  O_18
REMARK    9  A    between atoms: O_18  and  P_19
REMARK   10  A    between atoms: P_19  and  O_20
REMARK   11  A    between atoms: P_19  and  O_21
REMARK                            x       y       z     vdW  Elec       q    Type
REMARK                         _______ _______ _______ _____ _____    ______ ____
ROOT
ATOM      1  C   UNL     1       8.671  -2.899  23.874  0.00  0.00    +0.226 C 
ATOM      2  O   UNL     1       7.371  -3.148  24.457  0.00  0.00    -0.348 OA
ATOM      3  C   UNL     1       7.428  -4.354  25.281  0.00  0.00    +0.175 C 
ATOM      4  C   UNL     1       8.862  -4.886  25.145  0.00  0.00    +0.150 C 
ATOM      5  C   UNL     1       9.659  -3.653  24.738  0.00  0.00    +0.088 C 
ENDROOT
BRANCH   1  14
ATOM      6  C   UNL     1       7.886   1.777  25.437  0.00  0.00    +0.051 C 
ATOM      7  C   UNL     1       8.526   0.768  24.535  0.00  0.00    +0.030 A 
ATOM      8  C   UNL     1       9.402   1.277  23.455  0.00  0.00    +0.257 A 
ATOM      9  O   UNL     1       9.570   2.478  23.267  0.00  0.00    -0.267 OA
ATOM     10  N   UNL     1      10.012   0.322  22.693  0.00  0.00    -0.275 N 
ATOM     11  H   UNL     1      10.624   0.651  21.960  0.00  0.00    +0.173 HD
ATOM     12  C   UNL     1       9.834  -1.035  22.787  0.00  0.00    +0.331 A 
ATOM     13  O   UNL     1      10.435  -1.792  22.035  0.00  0.00    -0.246 OA
ATOM     14  N   UNL     1       8.941  -1.460  23.770  0.00  0.00    -0.274 N 
ATOM     15  C   UNL     1       8.348  -0.557  24.635  0.00  0.00    +0.101 A 
ENDBRANCH   1  14
BRANCH   4  16
ATOM     16  O   UNL     1       9.396  -5.392  26.367  0.00  0.00    -0.389 OA
ATOM     17  H   UNL     1      10.294  -5.036  26.485  0.00  0.00    +0.210 HD
ENDBRANCH   4  16
BRANCH   3  18
ATOM     18  C   UNL     1       6.219  -5.255  24.888  0.00  0.00    +0.206 C 
BRANCH  18  19
ATOM     19  O   UNL     1       5.909  -6.394  25.675  0.00  0.00    -0.284 OA
BRANCH  19  20
ATOM     20  P   UNL     1       4.541  -6.606  26.568  0.00  0.00    +0.483 P 
ATOM     21  O   UNL     1       3.478  -5.630  26.061  0.00  0.00    -0.227 OA
BRANCH  20  22
ATOM     22  O   UNL     1       3.912  -7.762  25.446  0.00  0.00    -0.302 OA
ATOM     23  H   UNL     1       4.159  -8.621  25.851  0.00  0.00    +0.222 HD
ENDBRANCH  20  22
BRANCH  20  24
ATOM     24  O   UNL     1       5.169  -5.449  27.691  0.00  0.00    -0.186 OA
BRANCH  24  25
ATOM     25  P   UNL     1       5.856  -6.275  29.046  0.00  0.00    +0.481 P 
ATOM     26  O   UNL     1       6.471  -7.015  30.259  0.00  0.00    -0.227 OA
BRANCH  25  27
ATOM     27  O   UNL     1       7.268  -6.233  28.213  0.00  0.00    -0.302 OA
ATOM     28  H   UNL     1       7.950  -5.714  28.674  0.00  0.00    +0.222 HD
ENDBRANCH  25  27
BRANCH  25  29
ATOM     29  O   UNL     1       5.325  -7.647  28.348  0.00  0.00    -0.302 OA
ATOM     30  H   UNL     1       4.910  -8.221  29.022  0.00  0.00    +0.222 HD
ENDBRANCH  25  29
ENDBRANCH  24  25
ENDBRANCH  20  24
ENDBRANCH  19  20
ENDBRANCH  18  19
ENDBRANCH   3  18
TORSDOF 10
ENDMDL
MODEL 3
REMARK VINA RESULT:      -6.9      4.827      8.595
REMARK  Name = 
REMARK  11 active torsions:
REMARK  status: ('A' for Active; 'I' for Inactive)
REMARK    1  A    between atoms: C_1  and  C_2
REMARK    2  A    between atoms: N_4  and  C_5
REMARK    3  A    between atoms: C_8  and  O_10
REMARK    4  A    between atoms: C_11  and  C_13
REMARK    5  A    between atoms: C_13  and  O_14
REMARK    6  A    between atoms: O_14  and  P_15
REMARK    7  A    between atoms: P_15  and  O_16
REMARK    8  A    between atoms: P_15  and  O_18
REMARK    9  A    between atoms: O_18  and  P_19
REMARK   10  A    between atoms: P_19  and  O_20
REMARK   11  A    between atoms: P_19  and  O_21
REMARK                            x       y       z     vdW  Elec       q    Type
REMARK                         _______ _______ _______ _____ _____    ______ ____
ROOT
ATOM      1  C   UNL     1       7.616  -4.863  23.874  0.00  0.00    +0.226 C 
ATOM      2  O   UNL     1       7.616  -3.423  23.744  0.00  0.00    -0.348 OA
ATOM      3  C   UNL     1       7.129  -3.053  22.416  0.00  0.00    +0.175 C 
ATOM      4  C   UNL     1       6.856  -4.376  21.687  0.00  0.00    +0.150 C 
ATOM      5  C   UNL     1       6.651  -5.370  22.823  0.00  0.00    +0.088 C 
ENDROOT
BRANCH   1  14
ATOM      6  C   UNL     1       4.270  -6.452  27.222  0.00  0.00    +0.051 C 
ATOM      7  C   UNL     1       5.646  -6.018  26.823  0.00  0.00    +0.030 A 
ATOM      8  C   UNL     1       6.671  -5.934  27.888  0.00  0.00    +0.257 A 
ATOM      9  O   UNL     1       6.405  -6.165  29.064  0.00  0.00    -0.267 OA
ATOM     10  N   UNL     1       7.925  -5.591  27.472  0.00  0.00    -0.275 N 
ATOM     11  H   UNL     1       8.640  -5.542  28.184  0.00  0.00    +0.173 HD
ATOM     12  C   UNL     1       8.298  -5.252  26.196  0.00  0.00    +0.331 A 
ATOM     13  O   UNL     1       9.460  -4.952  25.950  0.00  0.00    -0.246 OA
ATOM     14  N   UNL     1       7.281  -5.273  25.243  0.00  0.00    -0.274 N 
ATOM     15  C   UNL     1       6.003  -5.690  25.573  0.00  0.00    +0.101 A 
ENDBRANCH   1  14
BRANCH   4  16
ATOM     16  O   UNL     1       5.676  -4.348  20.887  0.00  0.00    -0.389 OA
ATOM     17  H   UNL     1       5.242  -3.484  21.005  0.00  0.00    +0.210 HD
ENDBRANCH   4  16
BRANCH   3  18
ATOM     18  C   UNL     1       8.130  -2.020  21.815  0.00  0.00    +0.206 C 
BRANCH  18  19
ATOM     19  O   UNL     1       9.433  -1.906  22.363  0.00  0.00    -0.284 OA
BRANCH  19  20
ATOM     20  P   UNL     1       9.916  -0.793  23.477  0.00  0.00    +0.483 P 
ATOM     21  O   UNL     1       8.690   0.002  23.928  0.00  0.00    -0.227 OA
BRANCH  20  22
ATOM     22  O   UNL     1       9.606  -1.878  24.788  0.00  0.00    -0.302 OA
ATOM     23  H   UNL     1       8.647  -2.066  24.698  0.00  0.00    +0.222 HD
ENDBRANCH  20  22
BRANCH  20  24
ATOM     24  O   UNL     1      10.227   0.293  22.167  0.00  0.00    -0.186 OA
BRANCH  24  25
ATOM     25  P   UNL     1       9.320   1.748  22.397  0.00  0.00    +0.481 P 
ATOM     26  O   UNL     1       8.507   3.050  22.602  0.00  0.00    -0.227 OA
BRANCH  25  27
ATOM     27  O   UNL     1       8.573   1.371  20.986  0.00  0.00    -0.302 OA
ATOM     28  H   UNL     1       9.112   1.609  20.211  0.00  0.00    +0.222 HD
ENDBRANCH  25  27
BRANCH  25  29
ATOM     29  O   UNL     1      10.569   2.516  21.690  0.00  0.00    -0.302 OA
ATOM     30  H   UNL     1      11.369   2.423  22.244  0.00  0.00    +0.222 HD
ENDBRANCH  25  29
ENDBRANCH  24  25
ENDBRANCH  20  24
ENDBRANCH  19  20
ENDBRANCH  18  19
ENDBRANCH   3  18
TORSDOF 10
ENDMDL
MODEL 4
REMARK VINA RESULT:      -6.8      1.370      2.143
REMARK  Name = 
REMARK  11 active torsions:
REMARK  status: ('A' for Active; 'I' for Inactive)
REMARK    1  A    between atoms: C_1  and  C_2
REMARK    2  A    between atoms: N_4  and  C_5
REMARK    3  A    between atoms: C_8  and  O_10
REMARK    4  A    between atoms: C_11  and  C_13
REMARK    5  A    between atoms: C_13  and  O_14
REMARK    6  A    between atoms: O_14  and  P_15
REMARK    7  A    between atoms: P_15  and  O_16
REMARK    8  A    between atoms: P_15  and  O_18
REMARK    9  A    between atoms: O_18  and  P_19
REMARK   10  A    between atoms: P_19  and  O_20
REMARK   11  A    between atoms: P_19  and  O_21
REMARK                            x       y       z     vdW  Elec       q    Type
REMARK                         _______ _______ _______ _____ _____    ______ ____
ROOT
ATOM      1  C   UNL     1       9.034   1.326  23.209  0.00  0.00    +0.226 C 
ATOM      2  O   UNL     1       9.433   0.507  24.333  0.00  0.00    -0.348 OA
ATOM      3  C   UNL     1       9.778  -0.833  23.863  0.00  0.00    +0.175 C 
ATOM      4  C   UNL     1       9.526  -0.822  22.348  0.00  0.00    +0.150 C 
ATOM      5  C   UNL     1       9.618   0.655  21.985  0.00  0.00    +0.088 C 
ENDROOT
BRANCH   1  14
ATOM      6  C   UNL     1      12.648   4.767  23.352  0.00  0.00    +0.051 C 
ATOM      7  C   UNL     1      11.218   4.337  23.466  0.00  0.00    +0.030 A 
ATOM      8  C   UNL     1      10.226   5.365  23.853  0.00  0.00    +0.257 A 
ATOM      9  O   UNL     1      10.554   6.518  24.116  0.00  0.00    -0.267 OA
ATOM     10  N   UNL     1       8.927   4.945  23.888  0.00  0.00    -0.275 N 
ATOM     11  H   UNL     1       8.234   5.636  24.137  0.00  0.00    +0.173 HD
ATOM     12  C   UNL     1       8.476   3.667  23.675  0.00  0.00    +0.331 A 
ATOM     13  O   UNL     1       7.280   3.413  23.745  0.00  0.00    -0.246 OA
ATOM     14  N   UNL     1       9.458   2.719  23.389  0.00  0.00    -0.274 N 
ATOM     15  C   UNL     1      10.786   3.087  23.255  0.00  0.00    +0.101 A 
ENDBRANCH   1  14
BRANCH   4  16
ATOM     16  O   UNL     1      10.512  -1.537  21.606  0.00  0.00    -0.389 OA
ATOM     17  H   UNL     1      11.109  -0.894  21.183  0.00  0.00    +0.210 HD
ENDBRANCH   4  16
BRANCH   3  18
ATOM     18  C   UNL     1       9.038  -1.860  24.771  0.00  0.00    +0.206 C 
BRANCH  18  19
ATOM     19  O   UNL     1       9.396  -3.232  24.714  0.00  0.00    -0.284 OA
BRANCH  19  20
ATOM     20  P   UNL     1       8.347  -4.497  24.606  0.00  0.00    +0.483 P 
ATOM     21  O   UNL     1       9.130  -5.738  24.173  0.00  0.00    -0.227 OA
BRANCH  20  22
ATOM     22  O   UNL     1       8.648  -4.967  26.243  0.00  0.00    -0.302 OA
ATOM     23  H   UNL     1       8.881  -5.917  26.162  0.00  0.00    +0.222 HD
ENDBRANCH  20  22
BRANCH  20  24
ATOM     24  O   UNL     1       8.046  -4.028  22.968  0.00  0.00    -0.186 OA
BRANCH  24  25
ATOM     25  P   UNL     1       6.511  -4.647  22.465  0.00  0.00    +0.481 P 
ATOM     26  O   UNL     1       5.137  -5.201  22.014  0.00  0.00    -0.227 OA
BRANCH  25  27
ATOM     27  O   UNL     1       6.383  -5.252  23.984  0.00  0.00    -0.302 OA
ATOM     28  H   UNL     1       7.231  -5.595  24.315  0.00  0.00    +0.222 HD
ENDBRANCH  25  27
BRANCH  25  29
ATOM     29  O   UNL     1       7.334  -5.923  21.878  0.00  0.00    -0.302 OA
ATOM     30  H   UNL     1       7.926  -6.280  22.569  0.00  0.00    +0.222 HD
ENDBRANCH  25  29
ENDBRANCH  24  25
ENDBRANCH  20  24
ENDBRANCH  19  20
ENDBRANCH  18  19
ENDBRANCH   3  18
TORSDOF 10
ENDMDL
MODEL 5
REMARK VINA RESULT:      -6.6      3.068      5.085
REMARK  Name = 
REMARK  11 active torsions:
REMARK  status: ('A' for Active; 'I' for Inactive)
REMARK    1  A    between atoms: C_1  and  C_2
REMARK    2  A    between atoms: N_4  and  C_5
REMARK    3  A    between atoms: C_8  and  O_10
REMARK    4  A    between atoms: C_11  and  C_13
REMARK    5  A    between atoms: C_13  and  O_14
REMARK    6  A    between atoms: O_14  and  P_15
REMARK    7  A    between atoms: P_15  and  O_16
REMARK    8  A    between atoms: P_15  and  O_18
REMARK    9  A    between atoms: O_18  and  P_19
REMARK   10  A    between atoms: P_19  and  O_20
REMARK   11  A    between atoms: P_19  and  O_21
REMARK                            x       y       z     vdW  Elec       q    Type
REMARK                         _______ _______ _______ _____ _____    ______ ____
ROOT
ATOM      1  C   UNL     1       8.246  -3.139  24.130  0.00  0.00    +0.226 C 
ATOM      2  O   UNL     1       7.338  -3.440  25.214  0.00  0.00    -0.348 OA
ATOM      3  C   UNL     1       7.773  -4.659  25.892  0.00  0.00    +0.175 C 
ATOM      4  C   UNL     1       9.013  -5.143  25.126  0.00  0.00    +0.150 C 
ATOM      5  C   UNL     1       9.527  -3.878  24.451  0.00  0.00    +0.088 C 
ENDROOT
BRANCH   1  14
ATOM      6  C   UNL     1      11.062   0.965  24.523  0.00  0.00    +0.051 C 
ATOM      7  C   UNL     1       9.788   0.256  24.181  0.00  0.00    +0.030 A 
ATOM      8  C   UNL     1       8.645   1.084  23.734  0.00  0.00    +0.257 A 
ATOM      9  O   UNL     1       8.711   2.308  23.682  0.00  0.00    -0.267 OA
ATOM     10  N   UNL     1       7.523   0.394  23.377  0.00  0.00    -0.275 N 
ATOM     11  H   UNL     1       6.737   0.941  23.056  0.00  0.00    +0.173 HD
ATOM     12  C   UNL     1       7.336  -0.963  23.464  0.00  0.00    +0.331 A 
ATOM     13  O   UNL     1       6.273  -1.465  23.120  0.00  0.00    -0.246 OA
ATOM     14  N   UNL     1       8.415  -1.691  23.963  0.00  0.00    -0.274 N 
ATOM     15  C   UNL     1       9.614  -1.070  24.267  0.00  0.00    +0.101 A 
ENDBRANCH   1  14
BRANCH   4  16
ATOM     16  O   UNL     1      10.037  -5.657  25.976  0.00  0.00    -0.389 OA
ATOM     17  H   UNL     1       9.904  -6.616  26.078  0.00  0.00    +0.210 HD
ENDBRANCH   4  16
BRANCH   3  18
ATOM     18  C   UNL     1       6.531  -5.589  26.039  0.00  0.00    +0.206 C 
BRANCH  18  19
ATOM     19  O   UNL     1       5.283  -5.181  25.503  0.00  0.00    -0.284 OA
BRANCH  19  20
ATOM     20  P   UNL     1       4.437  -5.963  24.325  0.00  0.00    +0.483 P 
ATOM     21  O   UNL     1       4.430  -7.458  24.649  0.00  0.00    -0.227 OA
BRANCH  20  22
ATOM     22  O   UNL     1       2.960  -5.837  25.215  0.00  0.00    -0.302 OA
ATOM     23  H   UNL     1       2.297  -5.641  24.518  0.00  0.00    +0.222 HD
ENDBRANCH  20  22
BRANCH  20  24
ATOM     24  O   UNL     1       5.915  -6.091  23.435  0.00  0.00    -0.186 OA
BRANCH  24  25
ATOM     25  P   UNL     1       5.862  -5.023  22.074  0.00  0.00    +0.481 P 
ATOM     26  O   UNL     1       5.815  -4.067  20.857  0.00  0.00    -0.227 OA
BRANCH  25  27
ATOM     27  O   UNL     1       4.395  -4.558  22.640  0.00  0.00    -0.302 OA
ATOM     28  H   UNL     1       4.322  -4.667  23.604  0.00  0.00    +0.222 HD
ENDBRANCH  25  27
BRANCH  25  29
ATOM     29  O   UNL     1       5.288  -6.292  21.232  0.00  0.00    -0.302 OA
ATOM     30  H   UNL     1       5.953  -6.580  20.575  0.00  0.00    +0.222 HD
ENDBRANCH  25  29
ENDBRANCH  24  25
ENDBRANCH  20  24
ENDBRANCH  19  20
ENDBRANCH  18  19
ENDBRANCH   3  18
TORSDOF 10
ENDMDL
MODEL 6
REMARK VINA RESULT:      -6.5      4.372      8.853
REMARK  Name = 
REMARK  11 active torsions:
REMARK  status: ('A' for Active; 'I' for Inactive)
REMARK    1  A    between atoms: C_1  and  C_2
REMARK    2  A    between atoms: N_4  and  C_5
REMARK    3  A    between atoms: C_8  and  O_10
REMARK    4  A    between atoms: C_11  and  C_13
REMARK    5  A    between atoms: C_13  and  O_14
REMARK    6  A    between atoms: O_14  and  P_15
REMARK    7  A    between atoms: P_15  and  O_16
REMARK    8  A    between atoms: P_15  and  O_18
REMARK    9  A    between atoms: O_18  and  P_19
REMARK   10  A    between atoms: P_19  and  O_20
REMARK   11  A    between atoms: P_19  and  O_21
REMARK                            x       y       z     vdW  Elec       q    Type
REMARK                         _______ _______ _______ _____ _____    ______ ____
ROOT
ATOM      1  C   UNL     1       8.197  -3.060  25.085  0.00  0.00    +0.226 C 
ATOM      2  O   UNL     1       7.542  -1.845  24.651  0.00  0.00    -0.348 OA
ATOM      3  C   UNL     1       8.457  -1.069  23.817  0.00  0.00    +0.175 C 
ATOM      4  C   UNL     1       9.771  -1.863  23.786  0.00  0.00    +0.150 C 
ATOM      5  C   UNL     1       9.332  -3.286  24.109  0.00  0.00    +0.088 C 
ENDROOT
BRANCH   1  14
ATOM      6  C   UNL     1       4.407  -5.673  23.154  0.00  0.00    +0.051 C 
ATOM      7  C   UNL     1       5.419  -5.393  24.221  0.00  0.00    +0.030 A 
ATOM      8  C   UNL     1       5.387  -6.243  25.433  0.00  0.00    +0.257 A 
ATOM      9  O   UNL     1       4.541  -7.118  25.589  0.00  0.00    -0.267 OA
ATOM     10  N   UNL     1       6.364  -5.993  26.353  0.00  0.00    -0.275 N 
ATOM     11  H   UNL     1       6.366  -6.573  27.180  0.00  0.00    +0.173 HD
ATOM     12  C   UNL     1       7.307  -4.997  26.294  0.00  0.00    +0.331 A 
ATOM     13  O   UNL     1       8.128  -4.868  27.193  0.00  0.00    -0.246 OA
ATOM     14  N   UNL     1       7.247  -4.175  25.169  0.00  0.00    -0.274 N 
ATOM     15  C   UNL     1       6.338  -4.419  24.155  0.00  0.00    +0.101 A 
ENDBRANCH   1  14
BRANCH   4  16
ATOM     16  O   UNL     1      10.404  -1.860  22.508  0.00  0.00    -0.389 OA
ATOM     17  H   UNL     1      10.183  -2.691  22.050  0.00  0.00    +0.210 HD
ENDBRANCH   4  16
BRANCH   3  18
ATOM     18  C   UNL     1       8.443   0.400  24.337  0.00  0.00    +0.206 C 
BRANCH  18  19
ATOM     19  O   UNL     1       8.145   1.458  23.440  0.00  0.00    -0.284 OA
BRANCH  19  20
ATOM     20  P   UNL     1       9.219   2.203  22.437  0.00  0.00    +0.483 P 
ATOM     21  O   UNL     1      10.426   1.282  22.253  0.00  0.00    -0.227 OA
BRANCH  20  22
ATOM     22  O   UNL     1       8.526   1.457  21.039  0.00  0.00    -0.302 OA
ATOM     23  H   UNL     1       7.732   1.006  21.399  0.00  0.00    +0.222 HD
ENDBRANCH  20  22
BRANCH  20  24
ATOM     24  O   UNL     1       9.912   2.950  23.835  0.00  0.00    -0.186 OA
BRANCH  24  25
ATOM     25  P   UNL     1       9.340   4.577  23.963  0.00  0.00    +0.481 P 
ATOM     26  O   UNL     1       8.827   6.033  24.078  0.00  0.00    -0.227 OA
BRANCH  25  27
ATOM     27  O   UNL     1       8.485   4.264  22.599  0.00  0.00    -0.302 OA
ATOM     28  H   UNL     1       7.688   3.735  22.780  0.00  0.00    +0.222 HD
ENDBRANCH  25  27
BRANCH  25  29
ATOM     29  O   UNL     1      10.699   5.008  23.178  0.00  0.00    -0.302 OA
ATOM     30  H   UNL     1      10.535   5.014  22.215  0.00  0.00    +0.222 HD
ENDBRANCH  25  29
ENDBRANCH  24  25
ENDBRANCH  20  24
ENDBRANCH  19  20
ENDBRANCH  18  19
ENDBRANCH   3  18
TORSDOF 10
ENDMDL
MODEL 7
REMARK VINA RESULT:      -6.5      3.123      4.791
REMARK  Name = 
REMARK  11 active torsions:
REMARK  status: ('A' for Active; 'I' for Inactive)
REMARK    1  A    between atoms: C_1  and  C_2
REMARK    2  A    between atoms: N_4  and  C_5
REMARK    3  A    between atoms: C_8  and  O_10
REMARK    4  A    between atoms: C_11  and  C_13
REMARK    5  A    between atoms: C_13  and  O_14
REMARK    6  A    between atoms: O_14  and  P_15
REMARK    7  A    between atoms: P_15  and  O_16
REMARK    8  A    between atoms: P_15  and  O_18
REMARK    9  A    between atoms: O_18  and  P_19
REMARK   10  A    between atoms: P_19  and  O_20
REMARK   11  A    between atoms: P_19  and  O_21
REMARK                            x       y       z     vdW  Elec       q    Type
REMARK                         _______ _______ _______ _____ _____    ______ ____
ROOT
ATOM      1  C   UNL     1       8.374  -3.044  23.890  0.00  0.00    +0.226 C 
ATOM      2  O   UNL     1       7.280  -3.349  24.785  0.00  0.00    -0.348 OA
ATOM      3  C   UNL     1       7.637  -4.492  25.622  0.00  0.00    +0.175 C 
ATOM      4  C   UNL     1       9.036  -4.926  25.161  0.00  0.00    +0.150 C 
ATOM      5  C   UNL     1       9.603  -3.667  24.518  0.00  0.00    +0.088 C 
ENDROOT
BRANCH   1  14
ATOM      6  C   UNL     1      10.950   1.216  24.278  0.00  0.00    +0.051 C 
ATOM      7  C   UNL     1       9.742   0.426  23.879  0.00  0.00    +0.030 A 
ATOM      8  C   UNL     1       8.600   1.170  23.301  0.00  0.00    +0.257 A 
ATOM      9  O   UNL     1       8.611   2.392  23.190  0.00  0.00    -0.267 OA
ATOM     10  N   UNL     1       7.544   0.405  22.896  0.00  0.00    -0.275 N 
ATOM     11  H   UNL     1       6.761   0.895  22.488  0.00  0.00    +0.173 HD
ATOM     12  C   UNL     1       7.416  -0.954  23.041  0.00  0.00    +0.331 A 
ATOM     13  O   UNL     1       6.409  -1.526  22.644  0.00  0.00    -0.246 OA
ATOM     14  N   UNL     1       8.486  -1.598  23.660  0.00  0.00    -0.274 N 
ATOM     15  C   UNL     1       9.626  -0.902  24.022  0.00  0.00    +0.101 A 
ENDBRANCH   1  14
BRANCH   4  16
ATOM     16  O   UNL     1       9.890  -5.314  26.236  0.00  0.00    -0.389 OA
ATOM     17  H   UNL     1       9.731  -6.254  26.435  0.00  0.00    +0.210 HD
ENDBRANCH   4  16
BRANCH   3  18
ATOM     18  C   UNL     1       6.451  -5.502  25.577  0.00  0.00    +0.206 C 
BRANCH  18  19
ATOM     19  O   UNL     1       5.230  -5.122  24.961  0.00  0.00    -0.284 OA
BRANCH  19  20
ATOM     20  P   UNL     1       4.691  -5.637  23.492  0.00  0.00    +0.483 P 
ATOM     21  O   UNL     1       4.300  -4.411  22.665  0.00  0.00    -0.227 OA
BRANCH  20  22
ATOM     22  O   UNL     1       6.270  -5.511  22.799  0.00  0.00    -0.302 OA
ATOM     23  H   UNL     1       6.165  -4.797  22.134  0.00  0.00    +0.222 HD
ENDBRANCH  20  22
BRANCH  20  24
ATOM     24  O   UNL     1       3.111  -5.763  24.185  0.00  0.00    -0.186 OA
BRANCH  24  25
ATOM     25  P   UNL     1       2.767  -7.420  24.539  0.00  0.00    +0.481 P 
ATOM     26  O   UNL     1       2.459  -8.904  24.857  0.00  0.00    -0.227 OA
BRANCH  25  27
ATOM     27  O   UNL     1       3.271  -7.082  26.062  0.00  0.00    -0.302 OA
ATOM     28  H   UNL     1       2.603  -7.317  26.730  0.00  0.00    +0.222 HD
ENDBRANCH  25  27
BRANCH  25  29
ATOM     29  O   UNL     1       4.257  -7.744  23.970  0.00  0.00    -0.302 OA
ATOM     30  H   UNL     1       4.251  -8.599  23.496  0.00  0.00    +0.222 HD
ENDBRANCH  25  29
ENDBRANCH  24  25
ENDBRANCH  20  24
ENDBRANCH  19  20
ENDBRANCH  18  19
ENDBRANCH   3  18
TORSDOF 10
ENDMDL
MODEL 8
REMARK VINA RESULT:      -6.4      3.756      7.771
REMARK  Name = 
REMARK  11 active torsions:
REMARK  status: ('A' for Active; 'I' for Inactive)
REMARK    1  A    between atoms: C_1  and  C_2
REMARK    2  A    between atoms: N_4  and  C_5
REMARK    3  A    between atoms: C_8  and  O_10
REMARK    4  A    between atoms: C_11  and  C_13
REMARK    5  A    between atoms: C_13  and  O_14
REMARK    6  A    between atoms: O_14  and  P_15
REMARK    7  A    between atoms: P_15  and  O_16
REMARK    8  A    between atoms: P_15  and  O_18
REMARK    9  A    between atoms: O_18  and  P_19
REMARK   10  A    between atoms: P_19  and  O_20
REMARK   11  A    between atoms: P_19  and  O_21
REMARK                            x       y       z     vdW  Elec       q    Type
REMARK                         _______ _______ _______ _____ _____    ______ ____
ROOT
ATOM      1  C   UNL     1       9.650  -2.796  24.028  0.00  0.00    +0.226 C 
ATOM      2  O   UNL     1       9.644  -1.485  24.640  0.00  0.00    -0.348 OA
ATOM      3  C   UNL     1       9.823  -0.464  23.610  0.00  0.00    +0.175 C 
ATOM      4  C   UNL     1       9.988  -1.228  22.288  0.00  0.00    +0.150 C 
ATOM      5  C   UNL     1       9.320  -2.568  22.569  0.00  0.00    +0.088 C 
ENDROOT
BRANCH   1  14
ATOM      6  C   UNL     1       5.036  -3.976  25.526  0.00  0.00    +0.051 C 
ATOM      7  C   UNL     1       6.509  -4.233  25.432  0.00  0.00    +0.030 A 
ATOM      8  C   UNL     1       7.040  -5.421  26.137  0.00  0.00    +0.257 A 
ATOM      9  O   UNL     1       6.321  -6.151  26.811  0.00  0.00    -0.267 OA
ATOM     10  N   UNL     1       8.376  -5.651  25.976  0.00  0.00    -0.275 N 
ATOM     11  H   UNL     1       8.755  -6.465  26.439  0.00  0.00    +0.173 HD
ATOM     12  C   UNL     1       9.267  -4.857  25.298  0.00  0.00    +0.331 A 
ATOM     13  O   UNL     1      10.449  -5.167  25.235  0.00  0.00    -0.246 OA
ATOM     14  N   UNL     1       8.730  -3.709  24.717  0.00  0.00    -0.274 N 
ATOM     15  C   UNL     1       7.371  -3.453  24.766  0.00  0.00    +0.101 A 
ENDBRANCH   1  14
BRANCH   4  16
ATOM     16  O   UNL     1       9.324  -0.608  21.189  0.00  0.00    -0.389 OA
ATOM     17  H   UNL     1       9.599   0.325  21.147  0.00  0.00    +0.210 HD
ENDBRANCH   4  16
BRANCH   3  18
ATOM     18  C   UNL     1      10.938   0.510  24.095  0.00  0.00    +0.206 C 
BRANCH  18  19
ATOM     19  O   UNL     1      10.639   1.886  24.269  0.00  0.00    -0.284 OA
BRANCH  19  20
ATOM     20  P   UNL     1       9.437   2.715  23.506  0.00  0.00    +0.483 P 
ATOM     21  O   UNL     1       9.886   4.168  23.335  0.00  0.00    -0.227 OA
BRANCH  20  22
ATOM     22  O   UNL     1      10.120   2.397  21.949  0.00  0.00    -0.302 OA
ATOM     23  H   UNL     1      10.979   1.974  22.166  0.00  0.00    +0.222 HD
ENDBRANCH  20  22
BRANCH  20  24
ATOM     24  O   UNL     1       8.754   3.034  25.063  0.00  0.00    -0.186 OA
BRANCH  24  25
ATOM     25  P   UNL     1       7.346   2.054  25.286  0.00  0.00    +0.481 P 
ATOM     26  O   UNL     1       6.086   1.177  25.486  0.00  0.00    -0.227 OA
BRANCH  25  27
ATOM     27  O   UNL     1       6.977   3.063  26.524  0.00  0.00    -0.302 OA
ATOM     28  H   UNL     1       6.061   2.949  26.830  0.00  0.00    +0.222 HD
ENDBRANCH  25  27
BRANCH  25  29
ATOM     29  O   UNL     1       8.294   1.079  26.181  0.00  0.00    -0.302 OA
ATOM     30  H   UNL     1       7.974   0.157  26.115  0.00  0.00    +0.222 HD
ENDBRANCH  25  29
ENDBRANCH  24  25
ENDBRANCH  20  24
ENDBRANCH  19  20
ENDBRANCH  18  19
ENDBRANCH   3  18
TORSDOF 10
ENDMDL
MODEL 9
REMARK VINA RESULT:      -6.4      1.978      2.915
REMARK  Name = 
REMARK  11 active torsions:
REMARK  status: ('A' for Active; 'I' for Inactive)
REMARK    1  A    between atoms: C_1  and  C_2
REMARK    2  A    between atoms: N_4  and  C_5
REMARK    3  A    between atoms: C_8  and  O_10
REMARK    4  A    between atoms: C_11  and  C_13
REMARK    5  A    between atoms: C_13  and  O_14
REMARK    6  A    between atoms: O_14  and  P_15
REMARK    7  A    between atoms: P_15  and  O_16
REMARK    8  A    between atoms: P_15  and  O_18
REMARK    9  A    between atoms: O_18  and  P_19
REMARK   10  A    between atoms: P_19  and  O_20
REMARK   11  A    between atoms: P_19  and  O_21
REMARK                            x       y       z     vdW  Elec       q    Type
REMARK                         _______ _______ _______ _____ _____    ______ ____
ROOT
ATOM      1  C   UNL     1       9.032   0.166  22.872  0.00  0.00    +0.226 C 
ATOM      2  O   UNL     1       7.779  -0.504  23.139  0.00  0.00    -0.348 OA
ATOM      3  C   UNL     1       8.023  -1.931  23.341  0.00  0.00    +0.175 C 
ATOM      4  C   UNL     1       9.532  -2.131  23.137  0.00  0.00    +0.150 C 
ATOM      5  C   UNL     1      10.111  -0.748  23.410  0.00  0.00    +0.088 C 
ENDROOT
BRANCH   1  14
ATOM      6  C   UNL     1       7.450   3.421  26.311  0.00  0.00    +0.051 C 
ATOM      7  C   UNL     1       8.253   3.051  25.103  0.00  0.00    +0.030 A 
ATOM      8  C   UNL     1       9.023   4.128  24.439  0.00  0.00    +0.257 A 
ATOM      9  O   UNL     1       8.979   5.291  24.827  0.00  0.00    -0.267 OA
ATOM     10  N   UNL     1       9.788   3.736  23.379  0.00  0.00    -0.275 N 
ATOM     11  H   UNL     1      10.331   4.455  22.921  0.00  0.00    +0.173 HD
ATOM     12  C   UNL     1       9.849   2.477  22.836  0.00  0.00    +0.331 A 
ATOM     13  O   UNL     1      10.570   2.253  21.871  0.00  0.00    -0.246 OA
ATOM     14  N   UNL     1       9.047   1.516  23.449  0.00  0.00    -0.274 N 
ATOM     15  C   UNL     1       8.309   1.818  24.580  0.00  0.00    +0.101 A 
ENDBRANCH   1  14
BRANCH   4  16
ATOM     16  O   UNL     1      10.109  -3.057  24.055  0.00  0.00    -0.389 OA
ATOM     17  H   UNL     1      10.183  -2.626  24.925  0.00  0.00    +0.210 HD
ENDBRANCH   4  16
BRANCH   3  18
ATOM     18  C   UNL     1       7.004  -2.716  22.460  0.00  0.00    +0.206 C 
BRANCH  18  19
ATOM     19  O   UNL     1       7.118  -4.125  22.343  0.00  0.00    -0.284 OA
BRANCH  19  20
ATOM     20  P   UNL     1       6.585  -5.230  23.443  0.00  0.00    +0.483 P 
ATOM     21  O   UNL     1       5.829  -4.486  24.546  0.00  0.00    -0.227 OA
BRANCH  20  22
ATOM     22  O   UNL     1       5.072  -5.407  22.625  0.00  0.00    -0.302 OA
ATOM     23  H   UNL     1       5.316  -5.296  21.681  0.00  0.00    +0.222 HD
ENDBRANCH  20  22
BRANCH  20  24
ATOM     24  O   UNL     1       8.098  -5.052  24.263  0.00  0.00    -0.186 OA
BRANCH  24  25
ATOM     25  P   UNL     1       7.873  -5.333  25.955  0.00  0.00    +0.481 P 
ATOM     26  O   UNL     1       7.671  -5.585  27.470  0.00  0.00    -0.227 OA
BRANCH  25  27
ATOM     27  O   UNL     1       7.994  -3.707  26.127  0.00  0.00    -0.302 OA
ATOM     28  H   UNL     1       8.610  -3.459  26.838  0.00  0.00    +0.222 HD
ENDBRANCH  25  27
BRANCH  25  29
ATOM     29  O   UNL     1       9.478  -5.598  26.019  0.00  0.00    -0.302 OA
ATOM     30  H   UNL     1       9.814  -5.808  25.126  0.00  0.00    +0.222 HD
ENDBRANCH  25  29
ENDBRANCH  24  25
ENDBRANCH  20  24
ENDBRANCH  19  20
ENDBRANCH  18  19
ENDBRANCH   3  18
TORSDOF 10
ENDMDL
