MODEL 1
REMARK VINA RESULT:      -7.1      0.000      0.000
REMARK  Name = 
REMARK  6 active torsions:
REMARK  status: ('A' for Active; 'I' for Inactive)
REMARK    1  A    between atoms: O_1  and  C_2
REMARK    2  A    between atoms: C_2  and  C_4
REMARK    3  A    between atoms: C_4  and  C_5
REMARK    4  A    between atoms: C_5  and  N_6
REMARK    5  A    between atoms: C_10  and  O_11
REMARK    6  A    between atoms: C_17  and  C_25
REMARK                            x       y       z     vdW  Elec       q    Type
REMARK                         _______ _______ _______ _____ _____    ______ ____
ROOT
ATOM      1  N   UNL     1       7.280   2.450  26.384  0.00  0.00    -0.339 N 
ATOM      2  C   UNL     1       7.638   1.241  25.806  0.00  0.00    +0.051 A 
ATOM      3  C   UNL     1       7.361  -0.096  26.122  0.00  0.00    +0.035 A 
ATOM      4  C   UNL     1       7.830  -1.149  25.292  0.00  0.00    -0.003 A 
ATOM      5  C   UNL     1       8.584  -0.733  24.171  0.00  0.00    +0.060 A 
ATOM      6  C   UNL     1       9.120  -1.529  23.090  0.00  0.00    +0.260 A 
ATOM      7  O   UNL     1       8.954  -2.679  22.711  0.00  0.00    -0.267 OA
ATOM      8  N   UNL     1       9.903  -0.656  22.387  0.00  0.00    -0.289 N 
ATOM      9  H   UNL     1      10.369  -0.937  21.540  0.00  0.00    +0.172 HD
ATOM     10  C   UNL     1       9.788   0.658  22.727  0.00  0.00    +0.260 A 
ATOM     11  O   UNL     1      10.320   1.547  22.074  0.00  0.00    -0.267 OA
ATOM     12  C   UNL     1       8.951   0.619  23.885  0.00  0.00    +0.062 A 
ATOM     13  C   UNL     1       8.417   1.608  24.743  0.00  0.00    +0.021 A 
ATOM     14  C   UNL     1       8.598   2.987  24.612  0.00  0.00    +0.012 A 
ATOM     15  C   UNL     1       9.260   3.893  23.755  0.00  0.00    +0.056 A 
ATOM     16  C   UNL     1       9.167   5.265  23.991  0.00  0.00    +0.118 A 
ATOM     17  C   UNL     1       8.454   5.767  25.064  0.00  0.00    +0.047 A 
ATOM     18  C   UNL     1       7.812   4.899  25.947  0.00  0.00    +0.030 A 
ATOM     19  C   UNL     1       7.872   3.513  25.699  0.00  0.00    +0.050 A 
ENDROOT
BRANCH   4  20
ATOM     20  C   UNL     1       7.554  -2.569  25.635  0.00  0.00    -0.017 A 
ATOM     21  C   UNL     1       6.433  -3.284  25.174  0.00  0.00    +0.008 A 
ATOM     22  C   UNL     1       6.240  -4.642  25.471  0.00  0.00    +0.001 A 
ATOM     23  C   UNL     1       7.197  -5.346  26.190  0.00  0.00    +0.000 A 
ATOM     24  C   UNL     1       8.329  -4.683  26.643  0.00  0.00    +0.001 A 
ATOM     25  C   UNL     1       8.490  -3.316  26.386  0.00  0.00    +0.008 A 
ENDBRANCH   4  20
BRANCH  16  26
ATOM     26  O   UNL     1       9.782   6.164  23.168  0.00  0.00    -0.507 OA
ATOM     27  H   UNL     1       9.367   7.033  23.299  0.00  0.00    +0.292 HD
ENDBRANCH  16  26
BRANCH   1  28
ATOM     28  C   UNL     1       6.406   2.613  27.542  0.00  0.00    +0.133 C 
BRANCH  28  29
ATOM     29  C   UNL     1       7.174   2.823  28.847  0.00  0.00    +0.142 C 
BRANCH  29  30
ATOM     30  C   UNL     1       7.259   1.539  29.626  0.00  0.00    +0.306 C 
ATOM     31  O   UNL     1       6.373   1.091  30.334  0.00  0.00    -0.251 OA
BRANCH  30  32
ATOM     32  O   UNL     1       8.444   0.909  29.462  0.00  0.00    -0.481 OA
ATOM     33  H   UNL     1       8.961   1.209  28.688  0.00  0.00    +0.295 HD
ENDBRANCH  30  32
ENDBRANCH  29  30
ENDBRANCH  28  29
ENDBRANCH   1  28
TORSDOF 6
ENDMDL
MODEL 2
REMARK VINA RESULT:      -7.0      2.455      6.683
REMARK  Name = 
REMARK  6 active torsions:
REMARK  status: ('A' for Active; 'I' for Inactive)
REMARK    1  A    between atoms: O_1  and  C_2
REMARK    2  A    between atoms: C_2  and  C_4
REMARK    3  A    between atoms: C_4  and  C_5
REMARK    4  A    between atoms: C_5  and  N_6
REMARK    5  A    between atoms: C_10  and  O_11
REMARK    6  A    between atoms: C_17  and  C_25
REMARK                            x       y       z     vdW  Elec       q    Type
REMARK                         _______ _______ _______ _____ _____    ______ ____
ROOT
ATOM      1  N   UNL     1       7.010  -1.469  26.308  0.00  0.00    -0.339 N 
ATOM      2  C   UNL     1       7.498  -0.575  25.368  0.00  0.00    +0.051 A 
ATOM      3  C   UNL     1       7.218   0.767  25.080  0.00  0.00    +0.035 A 
ATOM      4  C   UNL     1       7.937   1.458  24.068  0.00  0.00    -0.003 A 
ATOM      5  C   UNL     1       8.913   0.685  23.398  0.00  0.00    +0.060 A 
ATOM      6  C   UNL     1       9.871   1.098  22.398  0.00  0.00    +0.260 A 
ATOM      7  O   UNL     1      10.257   2.180  21.980  0.00  0.00    -0.267 OA
ATOM      8  N   UNL     1      10.437  -0.071  21.972  0.00  0.00    -0.289 N 
ATOM      9  H   UNL     1      11.184  -0.075  21.297  0.00  0.00    +0.172 HD
ATOM     10  C   UNL     1      10.141  -1.181  22.704  0.00  0.00    +0.260 A 
ATOM     11  O   UNL     1      10.702  -2.253  22.515  0.00  0.00    -0.267 OA
ATOM     12  C   UNL     1       9.149  -0.709  23.618  0.00  0.00    +0.062 A 
ATOM     13  C   UNL     1       8.412  -1.311  24.665  0.00  0.00    +0.021 A 
ATOM     14  C   UNL     1       8.528  -2.638  25.086  0.00  0.00    +0.012 A 
ATOM     15  C   UNL     1       9.268  -3.794  24.755  0.00  0.00    +0.056 A 
ATOM     16  C   UNL     1       9.071  -4.972  25.477  0.00  0.00    +0.118 A 
ATOM     17  C   UNL     1       8.148  -5.046  26.503  0.00  0.00    +0.047 A 
ATOM     18  C   UNL     1       7.381  -3.931  26.837  0.00  0.00    +0.030 A 
ATOM     19  C   UNL     1       7.595  -2.726  26.137  0.00  0.00    +0.050 A 
ENDROOT
BRANCH   4  20
ATOM     20  C   UNL     1       7.629   2.876  23.747  0.00  0.00    -0.017 A 
ATOM     21  C   UNL     1       8.269   3.974  24.351  0.00  0.00    +0.008 A 
ATOM     22  C   UNL     1       7.992   5.299  23.976  0.00  0.00    +0.001 A 
ATOM     23  C   UNL     1       7.106   5.564  22.940  0.00  0.00    +0.000 A 
ATOM     24  C   UNL     1       6.471   4.507  22.303  0.00  0.00    +0.001 A 
ATOM     25  C   UNL     1       6.715   3.191  22.716  0.00  0.00    +0.008 A 
ENDBRANCH   4  20
BRANCH  16  26
ATOM     26  O   UNL     1       9.786  -6.100  25.190  0.00  0.00    -0.507 OA
ATOM     27  H   UNL     1       9.215  -6.872  25.348  0.00  0.00    +0.292 HD
ENDBRANCH  16  26
BRANCH   1  28
ATOM     28  C   UNL     1       6.027  -1.163  27.343  0.00  0.00    +0.133 C 
BRANCH  28  29
ATOM     29  C   UNL     1       4.612  -0.988  26.792  0.00  0.00    +0.142 C 
BRANCH  29  30
ATOM     30  C   UNL     1       4.049  -2.308  26.342  0.00  0.00    +0.306 C 
ATOM     31  O   UNL     1       3.805  -2.606  25.185  0.00  0.00    -0.251 OA
BRANCH  30  32
ATOM     32  O   UNL     1       3.834  -3.159  27.371  0.00  0.00    -0.481 OA
ATOM     33  H   UNL     1       3.549  -4.055  27.106  0.00  0.00    +0.295 HD
ENDBRANCH  30  32
ENDBRANCH  29  30
ENDBRANCH  28  29
ENDBRANCH   1  28
TORSDOF 6
ENDMDL
MODEL 3
REMARK VINA RESULT:      -6.9      3.888      8.140
REMARK  Name = 
REMARK  6 active torsions:
REMARK  status: ('A' for Active; 'I' for Inactive)
REMARK    1  A    between atoms: O_1  and  C_2
REMARK    2  A    between atoms: C_2  and  C_4
REMARK    3  A    between atoms: C_4  and  C_5
REMARK    4  A    between atoms: C_5  and  N_6
REMARK    5  A    between atoms: C_10  and  O_11
REMARK    6  A    between atoms: C_17  and  C_25
REMARK                            x       y       z     vdW  Elec       q    Type
REMARK                         _______ _______ _______ _____ _____    ______ ____
ROOT
ATOM      1  N   UNL     1       4.562  -4.686  26.721  0.00  0.00    -0.339 N 
ATOM      2  C   UNL     1       5.340  -3.974  25.821  0.00  0.00    +0.051 A 
ATOM      3  C   UNL     1       6.166  -2.849  25.943  0.00  0.00    +0.035 A 
ATOM      4  C   UNL     1       6.903  -2.365  24.828  0.00  0.00    -0.003 A 
ATOM      5  C   UNL     1       6.717  -3.093  23.631  0.00  0.00    +0.060 A 
ATOM      6  C   UNL     1       7.378  -2.931  22.356  0.00  0.00    +0.260 A 
ATOM      7  O   UNL     1       8.359  -2.308  21.975  0.00  0.00    -0.267 OA
ATOM      8  N   UNL     1       6.697  -3.767  21.515  0.00  0.00    -0.289 N 
ATOM      9  H   UNL     1       6.979  -3.889  20.557  0.00  0.00    +0.172 HD
ATOM     10  C   UNL     1       5.816  -4.622  22.106  0.00  0.00    +0.260 A 
ATOM     11  O   UNL     1       5.260  -5.516  21.481  0.00  0.00    -0.267 OA
ATOM     12  C   UNL     1       5.811  -4.187  23.468  0.00  0.00    +0.062 A 
ATOM     13  C   UNL     1       5.140  -4.624  24.635  0.00  0.00    +0.021 A 
ATOM     14  C   UNL     1       4.260  -5.707  24.713  0.00  0.00    +0.012 A 
ATOM     15  C   UNL     1       3.711  -6.691  23.862  0.00  0.00    +0.056 A 
ATOM     16  C   UNL     1       2.832  -7.642  24.381  0.00  0.00    +0.118 A 
ATOM     17  C   UNL     1       2.463  -7.635  25.713  0.00  0.00    +0.047 A 
ATOM     18  C   UNL     1       2.964  -6.661  26.574  0.00  0.00    +0.030 A 
ATOM     19  C   UNL     1       3.879  -5.715  26.069  0.00  0.00    +0.050 A 
ENDROOT
BRANCH   4  20
ATOM     20  C   UNL     1       7.765  -1.161  24.950  0.00  0.00    -0.017 A 
ATOM     21  C   UNL     1       9.149  -1.208  25.200  0.00  0.00    +0.008 A 
ATOM     22  C   UNL     1       9.940  -0.049  25.247  0.00  0.00    +0.001 A 
ATOM     23  C   UNL     1       9.379   1.194  24.984  0.00  0.00    +0.000 A 
ATOM     24  C   UNL     1       8.020   1.281  24.709  0.00  0.00    +0.001 A 
ATOM     25  C   UNL     1       7.229   0.126  24.714  0.00  0.00    +0.008 A 
ENDBRANCH   4  20
BRANCH  16  26
ATOM     26  O   UNL     1       2.299  -8.615  23.585  0.00  0.00    -0.507 OA
ATOM     27  H   UNL     1       1.450  -8.295  23.236  0.00  0.00    +0.292 HD
ENDBRANCH  16  26
BRANCH   1  28
ATOM     28  C   UNL     1       4.458  -4.418  28.152  0.00  0.00    +0.133 C 
BRANCH  28  29
ATOM     29  C   UNL     1       5.726  -4.784  28.924  0.00  0.00    +0.142 C 
BRANCH  29  30
ATOM     30  C   UNL     1       6.230  -6.138  28.507  0.00  0.00    +0.306 C 
ATOM     31  O   UNL     1       5.654  -7.193  28.714  0.00  0.00    -0.251 OA
BRANCH  30  32
ATOM     32  O   UNL     1       7.416  -6.074  27.861  0.00  0.00    -0.481 OA
ATOM     33  H   UNL     1       8.144  -5.685  28.384  0.00  0.00    +0.295 HD
ENDBRANCH  30  32
ENDBRANCH  29  30
ENDBRANCH  28  29
ENDBRANCH   1  28
TORSDOF 6
ENDMDL
MODEL 4
REMARK VINA RESULT:      -6.8      3.397      8.315
REMARK  Name = 
REMARK  6 active torsions:
REMARK  status: ('A' for Active; 'I' for Inactive)
REMARK    1  A    between atoms: O_1  and  C_2
REMARK    2  A    between atoms: C_2  and  C_4
REMARK    3  A    between atoms: C_4  and  C_5
REMARK    4  A    between atoms: C_5  and  N_6
REMARK    5  A    between atoms: C_10  and  O_11
REMARK    6  A    between atoms: C_17  and  C_25
REMARK                            x       y       z     vdW  Elec       q    Type
REMARK                         _______ _______ _______ _____ _____    ______ ____
ROOT
ATOM      1  N   UNL     1       6.685  -4.621  24.188  0.00  0.00    -0.339 N 
ATOM      2  C   UNL     1       6.811  -3.244  24.293  0.00  0.00    +0.051 A 
ATOM      3  C   UNL     1       7.756  -2.325  23.817  0.00  0.00    +0.035 A 
ATOM      4  C   UNL     1       7.588  -0.932  24.039  0.00  0.00    -0.003 A 
ATOM      5  C   UNL     1       6.430  -0.580  24.768  0.00  0.00    +0.060 A 
ATOM      6  C   UNL     1       5.916   0.735  25.081  0.00  0.00    +0.260 A 
ATOM      7  O   UNL     1       6.172   1.866  24.694  0.00  0.00    -0.267 OA
ATOM      8  N   UNL     1       4.886   0.495  25.946  0.00  0.00    -0.289 N 
ATOM      9  H   UNL     1       4.311   1.244  26.295  0.00  0.00    +0.172 HD
ATOM     10  C   UNL     1       4.507  -0.806  26.081  0.00  0.00    +0.260 A 
ATOM     11  O   UNL     1       3.506  -1.130  26.707  0.00  0.00    -0.267 OA
ATOM     12  C   UNL     1       5.504  -1.510  25.337  0.00  0.00    +0.062 A 
ATOM     13  C   UNL     1       5.727  -2.876  25.042  0.00  0.00    +0.021 A 
ATOM     14  C   UNL     1       4.917  -3.940  25.445  0.00  0.00    +0.012 A 
ATOM     15  C   UNL     1       3.734  -4.151  26.186  0.00  0.00    +0.056 A 
ATOM     16  C   UNL     1       3.238  -5.446  26.345  0.00  0.00    +0.118 A 
ATOM     17  C   UNL     1       3.889  -6.540  25.808  0.00  0.00    +0.047 A 
ATOM     18  C   UNL     1       5.075  -6.371  25.095  0.00  0.00    +0.030 A 
ATOM     19  C   UNL     1       5.568  -5.065  24.900  0.00  0.00    +0.050 A 
ENDROOT
BRANCH   4  20
ATOM     20  C   UNL     1       8.599   0.043  23.551  0.00  0.00    -0.017 A 
ATOM     21  C   UNL     1       8.618   0.567  22.246  0.00  0.00    +0.008 A 
ATOM     22  C   UNL     1       9.554   1.533  21.842  0.00  0.00    +0.001 A 
ATOM     23  C   UNL     1      10.464   2.052  22.754  0.00  0.00    +0.000 A 
ATOM     24  C   UNL     1      10.462   1.578  24.059  0.00  0.00    +0.001 A 
ATOM     25  C   UNL     1       9.559   0.578  24.441  0.00  0.00    +0.008 A 
ENDBRANCH   4  20
BRANCH  16  26
ATOM     26  O   UNL     1       2.086  -5.677  27.042  0.00  0.00    -0.507 OA
ATOM     27  H   UNL     1       2.322  -6.064  27.902  0.00  0.00    +0.292 HD
ENDBRANCH  16  26
BRANCH   1  28
ATOM     28  C   UNL     1       7.578  -5.502  23.442  0.00  0.00    +0.133 C 
BRANCH  28  29
ATOM     29  C   UNL     1       7.581  -5.220  21.940  0.00  0.00    +0.142 C 
BRANCH  29  30
ATOM     30  C   UNL     1       6.179  -5.212  21.398  0.00  0.00    +0.306 C 
ATOM     31  O   UNL     1       5.626  -4.244  20.902  0.00  0.00    -0.251 OA
BRANCH  30  32
ATOM     32  O   UNL     1       5.570  -6.414  21.513  0.00  0.00    -0.481 OA
ATOM     33  H   UNL     1       5.697  -7.010  20.749  0.00  0.00    +0.295 HD
ENDBRANCH  30  32
ENDBRANCH  29  30
ENDBRANCH  28  29
ENDBRANCH   1  28
TORSDOF 6
ENDMDL
MODEL 5
REMARK VINA RESULT:      -6.5      1.799      6.296
REMARK  Name = 
REMARK  6 active torsions:
REMARK  status: ('A' for Active; 'I' for Inactive)
REMARK    1  A    between atoms: O_1  and  C_2
REMARK    2  A    between atoms: C_2  and  C_4
REMARK    3  A    between atoms: C_4  and  C_5
REMARK    4  A    between atoms: C_5  and  N_6
REMARK    5  A    between atoms: C_10  and  O_11
REMARK    6  A    between atoms: C_17  and  C_25
REMARK                            x       y       z     vdW  Elec       q    Type
REMARK                         _______ _______ _______ _____ _____    ______ ____
ROOT
ATOM      1  N   UNL     1       6.457  -0.930  26.303  0.00  0.00    -0.339 N 
ATOM      2  C   UNL     1       7.135  -0.211  25.331  0.00  0.00    +0.051 A 
ATOM      3  C   UNL     1       7.052   1.113  24.880  0.00  0.00    +0.035 A 
ATOM      4  C   UNL     1       7.940   1.596  23.881  0.00  0.00    -0.003 A 
ATOM      5  C   UNL     1       8.867   0.645  23.398  0.00  0.00    +0.060 A 
ATOM      6  C   UNL     1       9.956   0.828  22.465  0.00  0.00    +0.260 A 
ATOM      7  O   UNL     1      10.511   1.804  21.980  0.00  0.00    -0.267 OA
ATOM      8  N   UNL     1      10.406  -0.440  22.221  0.00  0.00    -0.289 N 
ATOM      9  H   UNL     1      11.204  -0.607  21.631  0.00  0.00    +0.172 HD
ATOM     10  C   UNL     1       9.909  -1.417  23.029  0.00  0.00    +0.260 A 
ATOM     11  O   UNL     1      10.346  -2.561  23.010  0.00  0.00    -0.267 OA
ATOM     12  C   UNL     1       8.906  -0.732  23.783  0.00  0.00    +0.062 A 
ATOM     13  C   UNL     1       8.009  -1.123  24.805  0.00  0.00    +0.021 A 
ATOM     14  C   UNL     1       7.919  -2.397  25.369  0.00  0.00    +0.012 A 
ATOM     15  C   UNL     1       8.535  -3.661  25.237  0.00  0.00    +0.056 A 
ATOM     16  C   UNL     1       8.128  -4.719  26.051  0.00  0.00    +0.118 A 
ATOM     17  C   UNL     1       7.115  -4.567  26.980  0.00  0.00    +0.047 A 
ATOM     18  C   UNL     1       6.467  -3.341  27.116  0.00  0.00    +0.030 A 
ATOM     19  C   UNL     1       6.892  -2.257  26.323  0.00  0.00    +0.050 A 
ENDROOT
BRANCH   4  20
ATOM     20  C   UNL     1       7.842   2.995  23.388  0.00  0.00    -0.017 A 
ATOM     21  C   UNL     1       6.948   3.413  22.385  0.00  0.00    +0.008 A 
ATOM     22  C   UNL     1       6.844   4.756  21.990  0.00  0.00    +0.001 A 
ATOM     23  C   UNL     1       7.592   5.736  22.630  0.00  0.00    +0.000 A 
ATOM     24  C   UNL     1       8.469   5.367  23.641  0.00  0.00    +0.001 A 
ATOM     25  C   UNL     1       8.604   4.019  23.995  0.00  0.00    +0.008 A 
ENDBRANCH   4  20
BRANCH  16  26
ATOM     26  O   UNL     1       8.718  -5.946  25.957  0.00  0.00    -0.507 OA
ATOM     27  H   UNL     1       8.872  -6.282  26.856  0.00  0.00    +0.292 HD
ENDBRANCH  16  26
BRANCH   1  28
ATOM     28  C   UNL     1       5.431  -0.397  27.194  0.00  0.00    +0.133 C 
BRANCH  28  29
ATOM     29  C   UNL     1       6.009   0.275  28.439  0.00  0.00    +0.142 C 
BRANCH  29  30
ATOM     30  C   UNL     1       6.077   1.766  28.255  0.00  0.00    +0.306 C 
ATOM     31  O   UNL     1       5.114   2.494  28.075  0.00  0.00    -0.251 OA
BRANCH  30  32
ATOM     32  O   UNL     1       7.342   2.240  28.312  0.00  0.00    -0.481 OA
ATOM     33  H   UNL     1       7.726   2.482  27.446  0.00  0.00    +0.295 HD
ENDBRANCH  30  32
ENDBRANCH  29  30
ENDBRANCH  28  29
ENDBRANCH   1  28
TORSDOF 6
ENDMDL
MODEL 6
REMARK VINA RESULT:      -6.3      3.104      5.716
REMARK  Name = 
REMARK  6 active torsions:
REMARK  status: ('A' for Active; 'I' for Inactive)
REMARK    1  A    between atoms: O_1  and  C_2
REMARK    2  A    between atoms: C_2  and  C_4
REMARK    3  A    between atoms: C_4  and  C_5
REMARK    4  A    between atoms: C_5  and  N_6
REMARK    5  A    between atoms: C_10  and  O_11
REMARK    6  A    between atoms: C_17  and  C_25
REMARK                            x       y       z     vdW  Elec       q    Type
REMARK                         _______ _______ _______ _____ _____    ______ ____
ROOT
ATOM      1  N   UNL     1       7.628  -2.651  23.814  0.00  0.00    -0.339 N 
ATOM      2  C   UNL     1       6.623  -2.161  24.634  0.00  0.00    +0.051 A 
ATOM      3  C   UNL     1       5.738  -2.766  25.536  0.00  0.00    +0.035 A 
ATOM      4  C   UNL     1       4.831  -1.981  26.298  0.00  0.00    -0.003 A 
ATOM      5  C   UNL     1       4.899  -0.590  26.057  0.00  0.00    +0.060 A 
ATOM      6  C   UNL     1       4.195   0.484  26.721  0.00  0.00    +0.260 A 
ATOM      7  O   UNL     1       3.524   0.564  27.740  0.00  0.00    -0.267 OA
ATOM      8  N   UNL     1       4.497   1.592  25.980  0.00  0.00    -0.289 N 
ATOM      9  H   UNL     1       4.170   2.505  26.248  0.00  0.00    +0.172 HD
ATOM     10  C   UNL     1       5.476   1.439  25.046  0.00  0.00    +0.260 A 
ATOM     11  O   UNL     1       5.938   2.389  24.426  0.00  0.00    -0.267 OA
ATOM     12  C   UNL     1       5.733   0.033  25.077  0.00  0.00    +0.062 A 
ATOM     13  C   UNL     1       6.627  -0.817  24.384  0.00  0.00    +0.021 A 
ATOM     14  C   UNL     1       7.566  -0.411  23.432  0.00  0.00    +0.012 A 
ATOM     15  C   UNL     1       8.001   0.781  22.813  0.00  0.00    +0.056 A 
ATOM     16  C   UNL     1       9.032   0.736  21.873  0.00  0.00    +0.118 A 
ATOM     17  C   UNL     1       9.631  -0.457  21.512  0.00  0.00    +0.047 A 
ATOM     18  C   UNL     1       9.206  -1.655  22.084  0.00  0.00    +0.030 A 
ATOM     19  C   UNL     1       8.189  -1.618  23.059  0.00  0.00    +0.050 A 
ENDROOT
BRANCH   4  20
ATOM     20  C   UNL     1       3.878  -2.621  27.242  0.00  0.00    -0.017 A 
ATOM     21  C   UNL     1       2.547  -2.941  26.917  0.00  0.00    +0.008 A 
ATOM     22  C   UNL     1       1.695  -3.601  27.818  0.00  0.00    +0.001 A 
ATOM     23  C   UNL     1       2.170  -4.017  29.055  0.00  0.00    +0.000 A 
ATOM     24  C   UNL     1       3.485  -3.742  29.404  0.00  0.00    +0.001 A 
ATOM     25  C   UNL     1       4.313  -3.039  28.521  0.00  0.00    +0.008 A 
ENDBRANCH   4  20
BRANCH  16  26
ATOM     26  O   UNL     1       9.484   1.876  21.271  0.00  0.00    -0.507 OA
ATOM     27  H   UNL     1       9.317   1.804  20.316  0.00  0.00    +0.292 HD
ENDBRANCH  16  26
BRANCH   1  28
ATOM     28  C   UNL     1       8.060  -4.043  23.736  0.00  0.00    +0.133 C 
BRANCH  28  29
ATOM     29  C   UNL     1       9.186  -4.377  24.713  0.00  0.00    +0.142 C 
BRANCH  29  30
ATOM     30  C   UNL     1       8.640  -5.047  25.944  0.00  0.00    +0.306 C 
ATOM     31  O   UNL     1       7.653  -5.763  25.971  0.00  0.00    -0.251 OA
BRANCH  30  32
ATOM     32  O   UNL     1       9.369  -4.775  27.050  0.00  0.00    -0.481 OA
ATOM     33  H   UNL     1       8.843  -4.498  27.826  0.00  0.00    +0.295 HD
ENDBRANCH  30  32
ENDBRANCH  29  30
ENDBRANCH  28  29
ENDBRANCH   1  28
TORSDOF 6
ENDMDL
MODEL 7
REMARK VINA RESULT:      -6.3      2.910      3.659
REMARK  Name = 
REMARK  6 active torsions:
REMARK  status: ('A' for Active; 'I' for Inactive)
REMARK    1  A    between atoms: O_1  and  C_2
REMARK    2  A    between atoms: C_2  and  C_4
REMARK    3  A    between atoms: C_4  and  C_5
REMARK    4  A    between atoms: C_5  and  N_6
REMARK    5  A    between atoms: C_10  and  O_11
REMARK    6  A    between atoms: C_17  and  C_25
REMARK                            x       y       z     vdW  Elec       q    Type
REMARK                         _______ _______ _______ _____ _____    ______ ____
ROOT
ATOM      1  N   UNL     1       6.608   2.075  24.455  0.00  0.00    -0.339 N 
ATOM      2  C   UNL     1       6.798   0.702  24.430  0.00  0.00    +0.051 A 
ATOM      3  C   UNL     1       5.955  -0.391  24.674  0.00  0.00    +0.035 A 
ATOM      4  C   UNL     1       6.427  -1.721  24.512  0.00  0.00    -0.003 A 
ATOM      5  C   UNL     1       7.778  -1.829  24.111  0.00  0.00    +0.060 A 
ATOM      6  C   UNL     1       8.534  -3.013  23.768  0.00  0.00    +0.260 A 
ATOM      7  O   UNL     1       8.240  -4.178  23.541  0.00  0.00    -0.267 OA
ATOM      8  N   UNL     1       9.818  -2.564  23.633  0.00  0.00    -0.289 N 
ATOM      9  H   UNL     1      10.560  -3.181  23.347  0.00  0.00    +0.172 HD
ATOM     10  C   UNL     1       9.982  -1.211  23.624  0.00  0.00    +0.260 A 
ATOM     11  O   UNL     1      11.057  -0.689  23.360  0.00  0.00    -0.267 OA
ATOM     12  C   UNL     1       8.676  -0.727  23.945  0.00  0.00    +0.062 A 
ATOM     13  C   UNL     1       8.117   0.564  24.095  0.00  0.00    +0.021 A 
ATOM     14  C   UNL     1       8.796   1.772  23.921  0.00  0.00    +0.012 A 
ATOM     15  C   UNL     1      10.092   2.221  23.586  0.00  0.00    +0.056 A 
ATOM     16  C   UNL     1      10.352   3.590  23.507  0.00  0.00    +0.118 A 
ATOM     17  C   UNL     1       9.371   4.528  23.769  0.00  0.00    +0.047 A 
ATOM     18  C   UNL     1       8.088   4.119  24.130  0.00  0.00    +0.030 A 
ATOM     19  C   UNL     1       7.805   2.740  24.180  0.00  0.00    +0.050 A 
ENDROOT
BRANCH   4  20
ATOM     20  C   UNL     1       5.541  -2.882  24.787  0.00  0.00    -0.017 A 
ATOM     21  C   UNL     1       5.295  -3.394  26.075  0.00  0.00    +0.008 A 
ATOM     22  C   UNL     1       4.403  -4.455  26.299  0.00  0.00    +0.001 A 
ATOM     23  C   UNL     1       3.680  -4.999  25.245  0.00  0.00    +0.000 A 
ATOM     24  C   UNL     1       3.876  -4.505  23.962  0.00  0.00    +0.001 A 
ATOM     25  C   UNL     1       4.805  -3.481  23.739  0.00  0.00    +0.008 A 
ENDBRANCH   4  20
BRANCH  16  26
ATOM     26  O   UNL     1      11.591   4.052  23.169  0.00  0.00    -0.507 OA
ATOM     27  H   UNL     1      11.598   5.018  23.279  0.00  0.00    +0.292 HD
ENDBRANCH  16  26
BRANCH   1  28
ATOM     28  C   UNL     1       5.343   2.754  24.723  0.00  0.00    +0.133 C 
BRANCH  28  29
ATOM     29  C   UNL     1       4.507   2.983  23.465  0.00  0.00    +0.142 C 
BRANCH  29  30
ATOM     30  C   UNL     1       4.471   4.444  23.109  0.00  0.00    +0.306 C 
ATOM     31  O   UNL     1       4.820   5.352  23.845  0.00  0.00    -0.251 OA
BRANCH  30  32
ATOM     32  O   UNL     1       4.002   4.663  21.860  0.00  0.00    -0.481 OA
ATOM     33  H   UNL     1       3.674   3.864  21.402  0.00  0.00    +0.295 HD
ENDBRANCH  30  32
ENDBRANCH  29  30
ENDBRANCH  28  29
ENDBRANCH   1  28
TORSDOF 6
ENDMDL
MODEL 8
REMARK VINA RESULT:      -6.3      3.162      7.793
REMARK  Name = 
REMARK  6 active torsions:
REMARK  status: ('A' for Active; 'I' for Inactive)
REMARK    1  A    between atoms: O_1  and  C_2
REMARK    2  A    between atoms: C_2  and  C_4
REMARK    3  A    between atoms: C_4  and  C_5
REMARK    4  A    between atoms: C_5  and  N_6
REMARK    5  A    between atoms: C_10  and  O_11
REMARK    6  A    between atoms: C_17  and  C_25
REMARK                            x       y       z     vdW  Elec       q    Type
REMARK                         _______ _______ _______ _____ _____    ______ ____
ROOT
ATOM      1  N   UNL     1       6.567  -4.029  24.610  0.00  0.00    -0.339 N 
ATOM      2  C   UNL     1       6.693  -2.648  24.630  0.00  0.00    +0.051 A 
ATOM      3  C   UNL     1       7.647  -1.761  24.114  0.00  0.00    +0.035 A 
ATOM      4  C   UNL     1       7.478  -0.357  24.244  0.00  0.00    -0.003 A 
ATOM      5  C   UNL     1       6.308   0.041  24.931  0.00  0.00    +0.060 A 
ATOM      6  C   UNL     1       5.791   1.372  25.152  0.00  0.00    +0.260 A 
ATOM      7  O   UNL     1       6.054   2.477  24.700  0.00  0.00    -0.267 OA
ATOM      8  N   UNL     1       4.745   1.188  26.014  0.00  0.00    -0.289 N 
ATOM      9  H   UNL     1       4.166   1.957  26.306  0.00  0.00    +0.172 HD
ATOM     10  C   UNL     1       4.363  -0.102  26.224  0.00  0.00    +0.260 A 
ATOM     11  O   UNL     1       3.351  -0.387  26.852  0.00  0.00    -0.267 OA
ATOM     12  C   UNL     1       5.371  -0.852  25.542  0.00  0.00    +0.062 A 
ATOM     13  C   UNL     1       5.598  -2.233  25.337  0.00  0.00    +0.021 A 
ATOM     14  C   UNL     1       4.780  -3.271  25.792  0.00  0.00    +0.012 A 
ATOM     15  C   UNL     1       3.584  -3.434  26.525  0.00  0.00    +0.056 A 
ATOM     16  C   UNL     1       3.083  -4.716  26.755  0.00  0.00    +0.118 A 
ATOM     17  C   UNL     1       3.743  -5.843  26.299  0.00  0.00    +0.047 A 
ATOM     18  C   UNL     1       4.940  -5.718  25.597  0.00  0.00    +0.030 A 
ATOM     19  C   UNL     1       5.438  -4.427  25.329  0.00  0.00    +0.050 A 
ENDROOT
BRANCH   4  20
ATOM     20  C   UNL     1       8.497   0.586  23.714  0.00  0.00    -0.017 A 
ATOM     21  C   UNL     1       9.545   1.124  24.484  0.00  0.00    +0.008 A 
ATOM     22  C   UNL     1      10.524   1.964  23.929  0.00  0.00    +0.001 A 
ATOM     23  C   UNL     1      10.520   2.244  22.569  0.00  0.00    +0.000 A 
ATOM     24  C   UNL     1       9.516   1.713  21.770  0.00  0.00    +0.001 A 
ATOM     25  C   UNL     1       8.514   0.917  22.340  0.00  0.00    +0.008 A 
ENDBRANCH   4  20
BRANCH  16  26
ATOM     26  O   UNL     1       1.921  -4.903  27.446  0.00  0.00    -0.507 OA
ATOM     27  H   UNL     1       1.859  -5.841  27.694  0.00  0.00    +0.292 HD
ENDBRANCH  16  26
BRANCH   1  28
ATOM     28  C   UNL     1       7.471  -4.955  23.935  0.00  0.00    +0.133 C 
BRANCH  28  29
ATOM     29  C   UNL     1       8.382  -5.712  24.900  0.00  0.00    +0.142 C 
BRANCH  29  30
ATOM     30  C   UNL     1       9.542  -4.853  25.320  0.00  0.00    +0.306 C 
ATOM     31  O   UNL     1      10.197  -4.146  24.572  0.00  0.00    -0.251 OA
BRANCH  30  32
ATOM     32  O   UNL     1       9.799  -4.938  26.646  0.00  0.00    -0.481 OA
ATOM     33  H   UNL     1       9.252  -5.589  27.126  0.00  0.00    +0.295 HD
ENDBRANCH  30  32
ENDBRANCH  29  30
ENDBRANCH  28  29
ENDBRANCH   1  28
TORSDOF 6
ENDMDL
MODEL 9
REMARK VINA RESULT:      -6.2      1.933      2.354
REMARK  Name = 
REMARK  6 active torsions:
REMARK  status: ('A' for Active; 'I' for Inactive)
REMARK    1  A    between atoms: O_1  and  C_2
REMARK    2  A    between atoms: C_2  and  C_4
REMARK    3  A    between atoms: C_4  and  C_5
REMARK    4  A    between atoms: C_5  and  N_6
REMARK    5  A    between atoms: C_10  and  O_11
REMARK    6  A    between atoms: C_17  and  C_25
REMARK                            x       y       z     vdW  Elec       q    Type
REMARK                         _______ _______ _______ _____ _____    ______ ____
ROOT
ATOM      1  N   UNL     1       6.355   1.318  25.372  0.00  0.00    -0.339 N 
ATOM      2  C   UNL     1       6.779   0.004  25.238  0.00  0.00    +0.051 A 
ATOM      3  C   UNL     1       6.205  -1.230  25.569  0.00  0.00    +0.035 A 
ATOM      4  C   UNL     1       6.867  -2.446  25.253  0.00  0.00    -0.003 A 
ATOM      5  C   UNL     1       8.118  -2.294  24.611  0.00  0.00    +0.060 A 
ATOM      6  C   UNL     1       8.995  -3.310  24.075  0.00  0.00    +0.260 A 
ATOM      7  O   UNL     1       8.877  -4.504  23.841  0.00  0.00    -0.267 OA
ATOM      8  N   UNL     1      10.130  -2.628  23.736  0.00  0.00    -0.289 N 
ATOM      9  H   UNL     1      10.904  -3.091  23.290  0.00  0.00    +0.172 HD
ATOM     10  C   UNL     1      10.046  -1.269  23.773  0.00  0.00    +0.260 A 
ATOM     11  O   UNL     1      10.943  -0.551  23.349  0.00  0.00    -0.267 OA
ATOM     12  C   UNL     1       8.758  -1.042  24.348  0.00  0.00    +0.062 A 
ATOM     13  C   UNL     1       8.015   0.120  24.666  0.00  0.00    +0.021 A 
ATOM     14  C   UNL     1       8.424   1.437  24.439  0.00  0.00    +0.012 A 
ATOM     15  C   UNL     1       9.534   2.125  23.903  0.00  0.00    +0.056 A 
ATOM     16  C   UNL     1       9.526   3.519  23.853  0.00  0.00    +0.118 A 
ATOM     17  C   UNL     1       8.459   4.254  24.337  0.00  0.00    +0.047 A 
ATOM     18  C   UNL     1       7.360   3.607  24.899  0.00  0.00    +0.030 A 
ATOM     19  C   UNL     1       7.342   2.198  24.924  0.00  0.00    +0.050 A 
ENDROOT
BRANCH   4  20
ATOM     20  C   UNL     1       6.269  -3.757  25.619  0.00  0.00    -0.017 A 
ATOM     21  C   UNL     1       5.456  -4.516  24.758  0.00  0.00    +0.008 A 
ATOM     22  C   UNL     1       4.960  -5.779  25.120  0.00  0.00    +0.001 A 
ATOM     23  C   UNL     1       5.314  -6.350  26.336  0.00  0.00    +0.000 A 
ATOM     24  C   UNL     1       6.135  -5.643  27.204  0.00  0.00    +0.001 A 
ATOM     25  C   UNL     1       6.584  -4.363  26.857  0.00  0.00    +0.008 A 
ENDBRANCH   4  20
BRANCH  16  26
ATOM     26  O   UNL     1      10.578   4.210  23.324  0.00  0.00    -0.507 OA
ATOM     27  H   UNL     1      10.643   5.066  23.780  0.00  0.00    +0.292 HD
ENDBRANCH  16  26
BRANCH   1  28
ATOM     28  C   UNL     1       5.062   1.745  25.899  0.00  0.00    +0.133 C 
BRANCH  28  29
ATOM     29  C   UNL     1       4.962   1.617  27.418  0.00  0.00    +0.142 C 
BRANCH  29  30
ATOM     30  C   UNL     1       3.895   0.629  27.799  0.00  0.00    +0.306 C 
ATOM     31  O   UNL     1       3.683   0.230  28.933  0.00  0.00    -0.251 OA
BRANCH  30  32
ATOM     32  O   UNL     1       3.169   0.212  26.737  0.00  0.00    -0.481 OA
ATOM     33  H   UNL     1       3.578  -0.510  26.222  0.00  0.00    +0.295 HD
ENDBRANCH  30  32
ENDBRANCH  29  30
ENDBRANCH  28  29
ENDBRANCH   1  28
TORSDOF 6
ENDMDL
