MODEL 1
REMARK VINA RESULT:      -6.9      0.000      0.000
REMARK  Name = 
REMARK  2 active torsions:
REMARK  status: ('A' for Active; 'I' for Inactive)
REMARK    1  A    between atoms: C_5  and  C_8
REMARK    2  A    between atoms: C_12  and  C_13
REMARK                            x       y       z     vdW  Elec       q    Type
REMARK                         _______ _______ _______ _____ _____    ______ ____
ROOT
ATOM      1  C   UNL     1       8.482  -3.766  25.147  0.00  0.00    +0.027 A 
ATOM      2  C   UNL     1       7.482  -4.806  25.098  0.00  0.00    +0.100 A 
ATOM      3  N   UNL     1       7.618  -5.642  26.143  0.00  0.00    -0.173 NA
ATOM      4  N   UNL     1       8.675  -5.183  26.817  0.00  0.00    -0.284 N 
ATOM      5  H   UNL     1       8.970  -5.690  27.645  0.00  0.00    +0.188 HD
ATOM      6  C   UNL     1       9.228  -4.063  26.273  0.00  0.00    +0.114 A 
ENDROOT
BRANCH   1  11
ATOM      7  F   UNL     1       9.462   0.119  21.264  0.00  0.00    -0.205 F 
ATOM      8  C   UNL     1       9.258  -0.738  22.274  0.00  0.00    +0.123 A 
ATOM      9  C   UNL     1       8.015  -0.791  22.888  0.00  0.00    +0.039 A 
ATOM     10  C   UNL     1       7.793  -1.716  23.912  0.00  0.00    +0.011 A 
ATOM     11  C   UNL     1       8.784  -2.643  24.263  0.00  0.00    -0.014 A 
ATOM     12  C   UNL     1      10.054  -2.526  23.675  0.00  0.00    +0.011 A 
ATOM     13  C   UNL     1      10.291  -1.570  22.684  0.00  0.00    +0.039 A 
ENDBRANCH   1  11
BRANCH   2  14
ATOM     14  C   UNL     1       6.395  -5.031  24.133  0.00  0.00    +0.008 A 
ATOM     15  C   UNL     1       5.050  -4.946  24.494  0.00  0.00    +0.030 A 
ATOM     16  C   UNL     1       4.086  -5.315  23.568  0.00  0.00    +0.114 A 
ATOM     17  N   UNL     1       4.365  -5.688  22.305  0.00  0.00    -0.228 NA
ATOM     18  C   UNL     1       5.666  -5.679  21.953  0.00  0.00    +0.214 A 
ATOM     19  F   UNL     1       5.964  -6.010  20.687  0.00  0.00    -0.184 F 
ATOM     20  C   UNL     1       6.702  -5.371  22.813  0.00  0.00    +0.069 A 
ENDBRANCH   2  14
TORSDOF 2
ENDMDL
MODEL 2
REMARK VINA RESULT:      -6.7      1.412      1.978
REMARK  Name = 
REMARK  2 active torsions:
REMARK  status: ('A' for Active; 'I' for Inactive)
REMARK    1  A    between atoms: C_5  and  C_8
REMARK    2  A    between atoms: C_12  and  C_13
REMARK                            x       y       z     vdW  Elec       q    Type
REMARK                         _______ _______ _______ _____ _____    ______ ____
ROOT
ATOM      1  C   UNL     1       8.634  -3.870  25.474  0.00  0.00    +0.027 A 
ATOM      2  C   UNL     1       7.733  -4.931  25.093  0.00  0.00    +0.100 A 
ATOM      3  N   UNL     1       7.723  -5.900  26.027  0.00  0.00    -0.173 NA
ATOM      4  N   UNL     1       8.600  -5.499  26.950  0.00  0.00    -0.284 N 
ATOM      5  H   UNL     1       8.767  -6.105  27.746  0.00  0.00    +0.188 HD
ATOM      6  C   UNL     1       9.170  -4.292  26.677  0.00  0.00    +0.114 A 
ENDROOT
BRANCH   1  11
ATOM      7  F   UNL     1      10.699   0.838  23.306  0.00  0.00    -0.205 F 
ATOM      8  C   UNL     1      10.109  -0.272  23.768  0.00  0.00    +0.123 A 
ATOM      9  C   UNL     1      10.250  -1.464  23.071  0.00  0.00    +0.039 A 
ATOM     10  C   UNL     1       9.670  -2.630  23.578  0.00  0.00    +0.011 A 
ATOM     11  C   UNL     1       9.022  -2.622  24.821  0.00  0.00    -0.014 A 
ATOM     12  C   UNL     1       8.834  -1.393  25.473  0.00  0.00    +0.011 A 
ATOM     13  C   UNL     1       9.374  -0.219  24.944  0.00  0.00    +0.039 A 
ENDBRANCH   1  11
BRANCH   2  14
ATOM     14  C   UNL     1       6.866  -5.062  23.912  0.00  0.00    +0.008 A 
ATOM     15  C   UNL     1       7.371  -5.382  22.651  0.00  0.00    +0.030 A 
ATOM     16  C   UNL     1       6.516  -5.343  21.560  0.00  0.00    +0.114 A 
ATOM     17  N   UNL     1       5.198  -5.081  21.652  0.00  0.00    -0.228 NA
ATOM     18  C   UNL     1       4.717  -4.860  22.892  0.00  0.00    +0.214 A 
ATOM     19  F   UNL     1       3.400  -4.635  23.009  0.00  0.00    -0.184 F 
ATOM     20  C   UNL     1       5.494  -4.833  24.033  0.00  0.00    +0.069 A 
ENDBRANCH   2  14
TORSDOF 2
ENDMDL
MODEL 3
REMARK VINA RESULT:      -6.7      6.723      8.949
REMARK  Name = 
REMARK  2 active torsions:
REMARK  status: ('A' for Active; 'I' for Inactive)
REMARK    1  A    between atoms: C_5  and  C_8
REMARK    2  A    between atoms: C_12  and  C_13
REMARK                            x       y       z     vdW  Elec       q    Type
REMARK                         _______ _______ _______ _____ _____    ______ ____
ROOT
ATOM      1  C   UNL     1       8.482   5.303  23.111  0.00  0.00    +0.027 A 
ATOM      2  C   UNL     1       8.142   3.934  22.805  0.00  0.00    +0.100 A 
ATOM      3  N   UNL     1       6.952   3.872  22.179  0.00  0.00    -0.173 NA
ATOM      4  N   UNL     1       6.530   5.137  22.114  0.00  0.00    -0.284 N 
ATOM      5  H   UNL     1       5.625   5.317  21.693  0.00  0.00    +0.188 HD
ATOM      6  C   UNL     1       7.404   6.035  22.649  0.00  0.00    +0.114 A 
ENDROOT
BRANCH   1  11
ATOM      7  F   UNL     1      12.861   7.070  26.083  0.00  0.00    -0.205 F 
ATOM      8  C   UNL     1      11.817   6.742  25.311  0.00  0.00    +0.123 A 
ATOM      9  C   UNL     1      12.030   6.038  24.133  0.00  0.00    +0.039 A 
ATOM     10  C   UNL     1      10.936   5.660  23.352  0.00  0.00    +0.011 A 
ATOM     11  C   UNL     1       9.627   5.909  23.787  0.00  0.00    -0.014 A 
ATOM     12  C   UNL     1       9.439   6.680  24.945  0.00  0.00    +0.011 A 
ATOM     13  C   UNL     1      10.534   7.099  25.704  0.00  0.00    +0.039 A 
ENDBRANCH   1  11
BRANCH   2  14
ATOM     14  C   UNL     1       8.892   2.693  23.048  0.00  0.00    +0.008 A 
ATOM     15  C   UNL     1       9.442   2.388  24.294  0.00  0.00    +0.030 A 
ATOM     16  C   UNL     1      10.259   1.274  24.408  0.00  0.00    +0.114 A 
ATOM     17  N   UNL     1      10.502   0.418  23.398  0.00  0.00    -0.228 NA
ATOM     18  C   UNL     1       9.891   0.685  22.227  0.00  0.00    +0.214 A 
ATOM     19  F   UNL     1      10.089  -0.176  21.218  0.00  0.00    -0.184 F 
ATOM     20  C   UNL     1       9.096   1.792  22.001  0.00  0.00    +0.069 A 
ENDBRANCH   2  14
TORSDOF 2
ENDMDL
MODEL 4
REMARK VINA RESULT:      -6.7      1.804      2.100
REMARK  Name = 
REMARK  2 active torsions:
REMARK  status: ('A' for Active; 'I' for Inactive)
REMARK    1  A    between atoms: C_5  and  C_8
REMARK    2  A    between atoms: C_12  and  C_13
REMARK                            x       y       z     vdW  Elec       q    Type
REMARK                         _______ _______ _______ _____ _____    ______ ____
ROOT
ATOM      1  C   UNL     1       8.588  -3.561  25.466  0.00  0.00    +0.027 A 
ATOM      2  C   UNL     1       7.788  -4.515  24.736  0.00  0.00    +0.100 A 
ATOM      3  N   UNL     1       7.666  -5.661  25.432  0.00  0.00    -0.173 NA
ATOM      4  N   UNL     1       8.380  -5.466  26.543  0.00  0.00    -0.284 N 
ATOM      5  H   UNL     1       8.443  -6.228  27.210  0.00  0.00    +0.188 HD
ATOM      6  C   UNL     1       8.948  -4.230  26.621  0.00  0.00    +0.114 A 
ENDROOT
BRANCH   1  11
ATOM      7  F   UNL     1      10.841   1.475  24.633  0.00  0.00    -0.205 F 
ATOM      8  C   UNL     1      10.211   0.301  24.774  0.00  0.00    +0.123 A 
ATOM      9  C   UNL     1      10.397  -0.695  23.826  0.00  0.00    +0.039 A 
ATOM     10  C   UNL     1       9.772  -1.933  23.999  0.00  0.00    +0.011 A 
ATOM     11  C   UNL     1       9.032  -2.204  25.157  0.00  0.00    -0.014 A 
ATOM     12  C   UNL     1       8.803  -1.160  26.068  0.00  0.00    +0.011 A 
ATOM     13  C   UNL     1       9.388   0.093  25.873  0.00  0.00    +0.039 A 
ENDBRANCH   1  11
BRANCH   2  14
ATOM     14  C   UNL     1       7.115  -4.390  23.434  0.00  0.00    +0.008 A 
ATOM     15  C   UNL     1       6.365  -3.265  23.089  0.00  0.00    +0.030 A 
ATOM     16  C   UNL     1       5.640  -3.282  21.907  0.00  0.00    +0.114 A 
ATOM     17  N   UNL     1       5.671  -4.300  21.026  0.00  0.00    -0.228 NA
ATOM     18  C   UNL     1       6.472  -5.338  21.339  0.00  0.00    +0.214 A 
ATOM     19  F   UNL     1       6.547  -6.345  20.456  0.00  0.00    -0.184 F 
ATOM     20  C   UNL     1       7.196  -5.435  22.510  0.00  0.00    +0.069 A 
ENDBRANCH   2  14
TORSDOF 2
ENDMDL
MODEL 5
REMARK VINA RESULT:      -6.5      6.551      9.603
REMARK  Name = 
REMARK  2 active torsions:
REMARK  status: ('A' for Active; 'I' for Inactive)
REMARK    1  A    between atoms: C_5  and  C_8
REMARK    2  A    between atoms: C_12  and  C_13
REMARK                            x       y       z     vdW  Elec       q    Type
REMARK                         _______ _______ _______ _____ _____    ______ ____
ROOT
ATOM      1  C   UNL     1       8.483   3.463  23.085  0.00  0.00    +0.027 A 
ATOM      2  C   UNL     1       8.882   4.804  23.438  0.00  0.00    +0.100 A 
ATOM      3  N   UNL     1       7.847   5.655  23.309  0.00  0.00    -0.173 NA
ATOM      4  N   UNL     1       6.838   4.904  22.864  0.00  0.00    -0.284 N 
ATOM      5  H   UNL     1       5.951   5.360  22.674  0.00  0.00    +0.188 HD
ATOM      6  C   UNL     1       7.156   3.587  22.717  0.00  0.00    +0.114 A 
ENDROOT
BRANCH   1  11
ATOM      7  F   UNL     1      10.674  -1.668  23.009  0.00  0.00    -0.205 F 
ATOM      8  C   UNL     1      10.251  -0.397  23.007  0.00  0.00    +0.123 A 
ATOM      9  C   UNL     1       9.838   0.187  21.818  0.00  0.00    +0.039 A 
ATOM     10  C   UNL     1       9.357   1.499  21.827  0.00  0.00    +0.011 A 
ATOM     11  C   UNL     1       9.211   2.197  23.033  0.00  0.00    -0.014 A 
ATOM     12  C   UNL     1       9.698   1.611  24.212  0.00  0.00    +0.011 A 
ATOM     13  C   UNL     1      10.222   0.317  24.198  0.00  0.00    +0.039 A 
ENDBRANCH   1  11
BRANCH   2  14
ATOM     14  C   UNL     1      10.177   5.314  23.913  0.00  0.00    +0.008 A 
ATOM     15  C   UNL     1      10.274   6.304  24.892  0.00  0.00    +0.030 A 
ATOM     16  C   UNL     1      11.520   6.838  25.182  0.00  0.00    +0.114 A 
ATOM     17  N   UNL     1      12.666   6.407  24.623  0.00  0.00    -0.228 NA
ATOM     18  C   UNL     1      12.558   5.390  23.744  0.00  0.00    +0.214 A 
ATOM     19  F   UNL     1      13.693   4.919  23.205  0.00  0.00    -0.184 F 
ATOM     20  C   UNL     1      11.361   4.822  23.357  0.00  0.00    +0.069 A 
ENDBRANCH   2  14
TORSDOF 2
ENDMDL
MODEL 6
REMARK VINA RESULT:      -6.4      2.603      5.443
REMARK  Name = 
REMARK  2 active torsions:
REMARK  status: ('A' for Active; 'I' for Inactive)
REMARK    1  A    between atoms: C_5  and  C_8
REMARK    2  A    between atoms: C_12  and  C_13
REMARK                            x       y       z     vdW  Elec       q    Type
REMARK                         _______ _______ _______ _____ _____    ______ ____
ROOT
ATOM      1  C   UNL     1       7.824  -3.047  24.503  0.00  0.00    +0.027 A 
ATOM      2  C   UNL     1       8.341  -1.699  24.506  0.00  0.00    +0.100 A 
ATOM      3  N   UNL     1       8.777  -1.363  25.734  0.00  0.00    -0.173 NA
ATOM      4  N   UNL     1       8.525  -2.432  26.494  0.00  0.00    -0.284 N 
ATOM      5  H   UNL     1       8.760  -2.383  27.480  0.00  0.00    +0.188 HD
ATOM      6  C   UNL     1       7.962  -3.469  25.812  0.00  0.00    +0.114 A 
ENDROOT
BRANCH   1  11
ATOM      7  F   UNL     1       6.009  -5.958  20.103  0.00  0.00    -0.205 F 
ATOM      8  C   UNL     1       6.360  -5.305  21.218  0.00  0.00    +0.123 A 
ATOM      9  C   UNL     1       7.251  -5.893  22.106  0.00  0.00    +0.039 A 
ATOM     10  C   UNL     1       7.648  -5.190  23.247  0.00  0.00    +0.011 A 
ATOM     11  C   UNL     1       7.224  -3.872  23.457  0.00  0.00    -0.014 A 
ATOM     12  C   UNL     1       6.272  -3.324  22.582  0.00  0.00    +0.011 A 
ATOM     13  C   UNL     1       5.837  -4.043  21.466  0.00  0.00    +0.039 A 
ENDBRANCH   1  11
BRANCH   2  14
ATOM     14  C   UNL     1       8.466  -0.728  23.408  0.00  0.00    +0.008 A 
ATOM     15  C   UNL     1       9.576  -0.700  22.563  0.00  0.00    +0.030 A 
ATOM     16  C   UNL     1       9.691   0.335  21.647  0.00  0.00    +0.114 A 
ATOM     17  N   UNL     1       8.754   1.285  21.471  0.00  0.00    -0.228 NA
ATOM     18  C   UNL     1       7.650   1.187  22.238  0.00  0.00    +0.214 A 
ATOM     19  F   UNL     1       6.687   2.102  22.051  0.00  0.00    -0.184 F 
ATOM     20  C   UNL     1       7.462   0.222  23.208  0.00  0.00    +0.069 A 
ENDBRANCH   2  14
TORSDOF 2
ENDMDL
MODEL 7
REMARK VINA RESULT:      -6.4      2.354      5.439
REMARK  Name = 
REMARK  2 active torsions:
REMARK  status: ('A' for Active; 'I' for Inactive)
REMARK    1  A    between atoms: C_5  and  C_8
REMARK    2  A    between atoms: C_12  and  C_13
REMARK                            x       y       z     vdW  Elec       q    Type
REMARK                         _______ _______ _______ _____ _____    ______ ____
ROOT
ATOM      1  C   UNL     1       8.019  -4.690  24.451  0.00  0.00    +0.027 A 
ATOM      2  C   UNL     1       9.148  -3.799  24.324  0.00  0.00    +0.100 A 
ATOM      3  N   UNL     1      10.228  -4.315  24.940  0.00  0.00    -0.173 NA
ATOM      4  N   UNL     1       9.808  -5.467  25.467  0.00  0.00    -0.284 N 
ATOM      5  H   UNL     1      10.470  -6.016  26.005  0.00  0.00    +0.188 HD
ATOM      6  C   UNL     1       8.500  -5.746  25.203  0.00  0.00    +0.114 A 
ENDROOT
BRANCH   1  11
ATOM      7  F   UNL     1       2.586  -4.793  23.187  0.00  0.00    -0.205 F 
ATOM      8  C   UNL     1       3.904  -4.695  23.406  0.00  0.00    +0.123 A 
ATOM      9  C   UNL     1       4.383  -3.729  24.280  0.00  0.00    +0.039 A 
ATOM     10  C   UNL     1       5.754  -3.657  24.540  0.00  0.00    +0.011 A 
ATOM     11  C   UNL     1       6.635  -4.601  23.994  0.00  0.00    -0.014 A 
ATOM     12  C   UNL     1       6.137  -5.525  23.061  0.00  0.00    +0.011 A 
ATOM     13  C   UNL     1       4.772  -5.568  22.765  0.00  0.00    +0.039 A 
ENDBRANCH   1  11
BRANCH   2  14
ATOM     14  C   UNL     1       9.264  -2.507  23.632  0.00  0.00    +0.008 A 
ATOM     15  C   UNL     1       8.808  -2.319  22.326  0.00  0.00    +0.030 A 
ATOM     16  C   UNL     1       9.083  -1.119  21.688  0.00  0.00    +0.114 A 
ATOM     17  N   UNL     1       9.709  -0.085  22.281  0.00  0.00    -0.228 NA
ATOM     18  C   UNL     1      10.063  -0.258  23.570  0.00  0.00    +0.214 A 
ATOM     19  F   UNL     1      10.653   0.775  24.190  0.00  0.00    -0.184 F 
ATOM     20  C   UNL     1       9.873  -1.428  24.277  0.00  0.00    +0.069 A 
ENDBRANCH   2  14
TORSDOF 2
ENDMDL
MODEL 8
REMARK VINA RESULT:      -6.3      6.022      8.340
REMARK  Name = 
REMARK  2 active torsions:
REMARK  status: ('A' for Active; 'I' for Inactive)
REMARK    1  A    between atoms: C_5  and  C_8
REMARK    2  A    between atoms: C_12  and  C_13
REMARK                            x       y       z     vdW  Elec       q    Type
REMARK                         _______ _______ _______ _____ _____    ______ ____
ROOT
ATOM      1  C   UNL     1       9.874   4.788  23.724  0.00  0.00    +0.027 A 
ATOM      2  C   UNL     1      10.766   3.688  23.445  0.00  0.00    +0.100 A 
ATOM      3  N   UNL     1      12.037   4.120  23.360  0.00  0.00    -0.173 NA
ATOM      4  N   UNL     1      11.965   5.441  23.543  0.00  0.00    -0.284 N 
ATOM      5  H   UNL     1      12.825   5.977  23.494  0.00  0.00    +0.188 HD
ATOM      6  C   UNL     1      10.701   5.895  23.770  0.00  0.00    +0.114 A 
ENDROOT
BRANCH   1  11
ATOM      7  F   UNL     1       4.335   4.422  24.289  0.00  0.00    -0.205 F 
ATOM      8  C   UNL     1       5.654   4.621  24.164  0.00  0.00    +0.123 A 
ATOM      9  C   UNL     1       6.457   4.618  25.296  0.00  0.00    +0.039 A 
ATOM     10  C   UNL     1       7.838   4.783  25.159  0.00  0.00    +0.011 A 
ATOM     11  C   UNL     1       8.424   4.867  23.889  0.00  0.00    -0.014 A 
ATOM     12  C   UNL     1       7.586   4.936  22.765  0.00  0.00    +0.011 A 
ATOM     13  C   UNL     1       6.201   4.818  22.904  0.00  0.00    +0.039 A 
ENDBRANCH   1  11
BRANCH   2  14
ATOM     14  C   UNL     1      10.481   2.254  23.283  0.00  0.00    +0.008 A 
ATOM     15  C   UNL     1      10.722   1.328  24.299  0.00  0.00    +0.030 A 
ATOM     16  C   UNL     1      10.568  -0.022  24.022  0.00  0.00    +0.114 A 
ATOM     17  N   UNL     1      10.128  -0.498  22.842  0.00  0.00    -0.228 NA
ATOM     18  C   UNL     1       9.818   0.420  21.905  0.00  0.00    +0.214 A 
ATOM     19  F   UNL     1       9.341  -0.031  20.735  0.00  0.00    -0.184 F 
ATOM     20  C   UNL     1       9.979   1.782  22.068  0.00  0.00    +0.069 A 
ENDBRANCH   2  14
TORSDOF 2
ENDMDL
MODEL 9
REMARK VINA RESULT:      -6.3      2.276      3.987
REMARK  Name = 
REMARK  2 active torsions:
REMARK  status: ('A' for Active; 'I' for Inactive)
REMARK    1  A    between atoms: C_5  and  C_8
REMARK    2  A    between atoms: C_12  and  C_13
REMARK                            x       y       z     vdW  Elec       q    Type
REMARK                         _______ _______ _______ _____ _____    ______ ____
ROOT
ATOM      1  C   UNL     1       6.581  -4.178  22.439  0.00  0.00    +0.027 A 
ATOM      2  C   UNL     1       6.452  -5.261  23.384  0.00  0.00    +0.100 A 
ATOM      3  N   UNL     1       5.959  -6.358  22.781  0.00  0.00    -0.173 NA
ATOM      4  N   UNL     1       5.751  -5.991  21.514  0.00  0.00    -0.284 N 
ATOM      5  H   UNL     1       5.354  -6.675  20.878  0.00  0.00    +0.188 HD
ATOM      6  C   UNL     1       6.109  -4.703  21.250  0.00  0.00    +0.114 A 
ENDROOT
BRANCH   1  11
ATOM      7  F   UNL     1       8.555   0.919  23.563  0.00  0.00    -0.205 F 
ATOM      8  C   UNL     1       8.044  -0.264  23.195  0.00  0.00    +0.123 A 
ATOM      9  C   UNL     1       8.831  -1.159  22.484  0.00  0.00    +0.039 A 
ATOM     10  C   UNL     1       8.309  -2.409  22.139  0.00  0.00    +0.011 A 
ATOM     11  C   UNL     1       7.035  -2.796  22.576  0.00  0.00    -0.014 A 
ATOM     12  C   UNL     1       6.234  -1.849  23.235  0.00  0.00    +0.011 A 
ATOM     13  C   UNL     1       6.738  -0.583  23.540  0.00  0.00    +0.039 A 
ENDBRANCH   1  11
BRANCH   2  14
ATOM     14  C   UNL     1       6.793  -5.317  24.813  0.00  0.00    +0.008 A 
ATOM     15  C   UNL     1       5.858  -5.671  25.788  0.00  0.00    +0.030 A 
ATOM     16  C   UNL     1       6.212  -5.559  27.124  0.00  0.00    +0.114 A 
ATOM     17  N   UNL     1       7.438  -5.195  27.545  0.00  0.00    -0.228 NA
ATOM     18  C   UNL     1       8.350  -4.943  26.585  0.00  0.00    +0.214 A 
ATOM     19  F   UNL     1       9.589  -4.616  26.983  0.00  0.00    -0.184 F 
ATOM     20  C   UNL     1       8.083  -4.983  25.231  0.00  0.00    +0.069 A 
ENDBRANCH   2  14
TORSDOF 2
ENDMDL
