MODEL 1
REMARK VINA RESULT:      -6.4      0.000      0.000
REMARK  Name = 
REMARK  12 active torsions:
REMARK  status: ('A' for Active; 'I' for Inactive)
REMARK    1  A    between atoms: CG2_1  and  CB_2
REMARK    2  A    between atoms: CB_2  and  OG1_4
REMARK    3  A    between atoms: CB_2  and  CA_5
REMARK    4  A    between atoms: CA_5  and  N_7
REMARK    5  A    between atoms: CA_5  and  C_26
REMARK    6  A    between atoms: C_8  and  CA_10
REMARK    7  A    between atoms: CA_10  and  C_12
REMARK    8  A    between atoms: CA_10  and  N_22
REMARK    9  A    between atoms: C_12  and  C_13
REMARK   10  A    between atoms: C_17  and  O_18
REMARK   11  A    between atoms: C_23  and  C_24
REMARK   12  A    between atoms: C_26  and  O_27
REMARK                            x       y       z     vdW  Elec       q    Type
REMARK                         _______ _______ _______ _____ _____    ______ ____
ROOT
ATOM      1  CA  UNL     1      10.006  -0.132  24.492  0.00  0.00    +0.163 C 
ENDROOT
BRANCH   1   2
ATOM      2  N   UNL     1       9.386  -0.016  25.818  0.00  0.00    -0.304 N 
ATOM      3  H   UNL     1       9.993   0.285  26.571  0.00  0.00    +0.149 HD
ATOM      4  C   UNL     1       8.034  -0.031  26.049  0.00  0.00    +0.211 C 
ATOM      5  O   UNL     1       7.196  -0.185  25.166  0.00  0.00    -0.276 OA
ATOM      6  C   UNL     1       7.652   0.119  27.497  0.00  0.00    +0.109 C 
ENDBRANCH   1   2
BRANCH   1   9
ATOM      7  N   UNL     1       9.257  -2.467  24.771  0.00  0.00    -0.299 N 
ATOM      8  H   UNL     1       9.107  -2.189  25.743  0.00  0.00    +0.150 HD
ATOM      9  C   UNL     1       9.880  -1.576  23.938  0.00  0.00    +0.234 C 
ATOM     10  O   UNL     1      10.296  -1.887  22.823  0.00  0.00    -0.274 OA
BRANCH   7  11
ATOM     11  CA  UNL     1       8.939  -3.847  24.399  0.00  0.00    +0.210 C 
BRANCH  11  13
ATOM     12  CG2 UNL     1       7.446  -4.401  22.410  0.00  0.00    +0.040 C 
ATOM     13  CB  UNL     1       7.496  -4.045  23.896  0.00  0.00    +0.143 C 
BRANCH  13  14
ATOM     14  OG1 UNL     1       6.906  -5.132  24.640  0.00  0.00    -0.390 OA
ATOM     15  HG1 UNL     1       6.349  -5.644  24.019  0.00  0.00    +0.210 HD
ENDBRANCH  13  14
ENDBRANCH  11  13
BRANCH  11  16
ATOM     16  C   UNL     1       9.338  -4.803  25.547  0.00  0.00    +0.328 C 
ATOM     17  OXT UNL     1       9.236  -4.530  26.738  0.00  0.00    -0.249 OA
BRANCH  16  18
ATOM     18  O   UNL     1       9.947  -5.945  25.140  0.00  0.00    -0.479 OA
ATOM     19  H   UNL     1      10.905  -5.805  24.943  0.00  0.00    +0.295 HD
ENDBRANCH  16  18
ENDBRANCH  11  16
ENDBRANCH   7  11
ENDBRANCH   1   9
BRANCH   1  20
ATOM     20  C   UNL     1       9.517   0.883  23.446  0.00  0.00    +0.067 C 
BRANCH  20  21
ATOM     21  C   UNL     1       9.734   2.350  23.760  0.00  0.00    -0.043 A 
ATOM     22  C   UNL     1       8.674   3.105  24.285  0.00  0.00    +0.021 A 
ATOM     23  C   UNL     1       8.779   4.495  24.422  0.00  0.00    +0.056 A 
ATOM     24  I   UNL     1       7.123   5.536  25.166  0.00  0.00    -0.040 I 
ATOM     25  C   UNL     1       9.950   5.147  24.029  0.00  0.00    +0.143 A 
ATOM     26  C   UNL     1      11.031   4.395  23.557  0.00  0.00    +0.056 A 
ATOM     27  I   UNL     1      12.822   5.317  22.990  0.00  0.00    -0.040 I 
ATOM     28  C   UNL     1      10.930   3.003  23.427  0.00  0.00    +0.021 A 
BRANCH  25  29
ATOM     29  O   UNL     1      10.006   6.516  24.082  0.00  0.00    -0.505 OA
ATOM     30  H   UNL     1       9.296   6.867  23.516  0.00  0.00    +0.292 HD
ENDBRANCH  25  29
ENDBRANCH  20  21
ENDBRANCH   1  20
TORSDOF 10
ENDMDL
MODEL 2
REMARK VINA RESULT:      -6.4      4.896      8.720
REMARK  Name = 
REMARK  12 active torsions:
REMARK  status: ('A' for Active; 'I' for Inactive)
REMARK    1  A    between atoms: CG2_1  and  CB_2
REMARK    2  A    between atoms: CB_2  and  OG1_4
REMARK    3  A    between atoms: CB_2  and  CA_5
REMARK    4  A    between atoms: CA_5  and  N_7
REMARK    5  A    between atoms: CA_5  and  C_26
REMARK    6  A    between atoms: C_8  and  CA_10
REMARK    7  A    between atoms: CA_10  and  C_12
REMARK    8  A    between atoms: CA_10  and  N_22
REMARK    9  A    between atoms: C_12  and  C_13
REMARK   10  A    between atoms: C_17  and  O_18
REMARK   11  A    between atoms: C_23  and  C_24
REMARK   12  A    between atoms: C_26  and  O_27
REMARK                            x       y       z     vdW  Elec       q    Type
REMARK                         _______ _______ _______ _____ _____    ______ ____
ROOT
ATOM      1  CA  UNL     1       7.852  -4.685  24.648  0.00  0.00    +0.163 C 
ENDROOT
BRANCH   1   2
ATOM      2  N   UNL     1       7.509  -5.398  23.412  0.00  0.00    -0.304 N 
ATOM      3  H   UNL     1       7.408  -6.403  23.490  0.00  0.00    +0.149 HD
ATOM      4  C   UNL     1       7.074  -4.795  22.260  0.00  0.00    +0.211 C 
ATOM      5  O   UNL     1       6.963  -3.580  22.130  0.00  0.00    -0.276 OA
ATOM      6  C   UNL     1       6.776  -5.750  21.136  0.00  0.00    +0.109 C 
ENDBRANCH   1   2
BRANCH   1   9
ATOM      7  N   UNL     1       8.744  -2.431  24.186  0.00  0.00    -0.299 N 
ATOM      8  H   UNL     1       7.772  -2.210  23.961  0.00  0.00    +0.150 HD
ATOM      9  C   UNL     1       9.064  -3.740  24.434  0.00  0.00    +0.234 C 
ATOM     10  O   UNL     1      10.225  -4.139  24.501  0.00  0.00    -0.274 OA
BRANCH   7  11
ATOM     11  CA  UNL     1       9.734  -1.359  24.064  0.00  0.00    +0.210 C 
BRANCH  11  13
ATOM     12  CG2 UNL     1       8.954  -0.623  26.375  0.00  0.00    +0.040 C 
ATOM     13  CB  UNL     1       9.496  -0.173  25.018  0.00  0.00    +0.143 C 
BRANCH  13  14
ATOM     14  OG1 UNL     1      10.759   0.490  25.235  0.00  0.00    -0.390 OA
ATOM     15  HG1 UNL     1      11.250  -0.025  25.907  0.00  0.00    +0.210 HD
ENDBRANCH  13  14
ENDBRANCH  11  13
BRANCH  11  16
ATOM     16  C   UNL     1       9.879  -0.948  22.579  0.00  0.00    +0.328 C 
ATOM     17  OXT UNL     1      10.104   0.196  22.200  0.00  0.00    -0.249 OA
BRANCH  16  18
ATOM     18  O   UNL     1       9.605  -1.938  21.694  0.00  0.00    -0.479 OA
ATOM     19  H   UNL     1      10.414  -2.447  21.442  0.00  0.00    +0.295 HD
ENDBRANCH  16  18
ENDBRANCH  11  16
ENDBRANCH   7  11
ENDBRANCH   1   9
BRANCH   1  20
ATOM     20  C   UNL     1       6.693  -3.920  25.309  0.00  0.00    +0.067 C 
BRANCH  20  21
ATOM     21  C   UNL     1       5.681  -4.743  26.082  0.00  0.00    -0.043 A 
ATOM     22  C   UNL     1       5.793  -4.837  27.478  0.00  0.00    +0.021 A 
ATOM     23  C   UNL     1       4.990  -5.724  28.205  0.00  0.00    +0.056 A 
ATOM     24  I   UNL     1       5.271  -5.829  30.277  0.00  0.00    -0.040 I 
ATOM     25  C   UNL     1       4.067  -6.534  27.541  0.00  0.00    +0.143 A 
ATOM     26  C   UNL     1       3.910  -6.406  26.157  0.00  0.00    +0.056 A 
ATOM     27  I   UNL     1       2.515  -7.567  25.115  0.00  0.00    -0.040 I 
ATOM     28  C   UNL     1       4.708  -5.512  25.428  0.00  0.00    +0.021 A 
BRANCH  25  29
ATOM     29  O   UNL     1       3.353  -7.463  28.253  0.00  0.00    -0.505 OA
ATOM     30  H   UNL     1       3.130  -7.071  29.116  0.00  0.00    +0.292 HD
ENDBRANCH  25  29
ENDBRANCH  20  21
ENDBRANCH   1  20
TORSDOF 10
ENDMDL
MODEL 3
REMARK VINA RESULT:      -6.3      3.473      5.454
REMARK  Name = 
REMARK  12 active torsions:
REMARK  status: ('A' for Active; 'I' for Inactive)
REMARK    1  A    between atoms: CG2_1  and  CB_2
REMARK    2  A    between atoms: CB_2  and  OG1_4
REMARK    3  A    between atoms: CB_2  and  CA_5
REMARK    4  A    between atoms: CA_5  and  N_7
REMARK    5  A    between atoms: CA_5  and  C_26
REMARK    6  A    between atoms: C_8  and  CA_10
REMARK    7  A    between atoms: CA_10  and  C_12
REMARK    8  A    between atoms: CA_10  and  N_22
REMARK    9  A    between atoms: C_12  and  C_13
REMARK   10  A    between atoms: C_17  and  O_18
REMARK   11  A    between atoms: C_23  and  C_24
REMARK   12  A    between atoms: C_26  and  O_27
REMARK                            x       y       z     vdW  Elec       q    Type
REMARK                         _______ _______ _______ _____ _____    ______ ____
ROOT
ATOM      1  CA  UNL     1       8.041  -4.805  26.402  0.00  0.00    +0.163 C 
ENDROOT
BRANCH   1   2
ATOM      2  N   UNL     1       6.787  -4.645  27.149  0.00  0.00    -0.304 N 
ATOM      3  H   UNL     1       6.118  -3.988  26.764  0.00  0.00    +0.149 HD
ATOM      4  C   UNL     1       6.363  -5.484  28.147  0.00  0.00    +0.211 C 
ATOM      5  O   UNL     1       7.014  -6.443  28.551  0.00  0.00    -0.276 OA
ATOM      6  C   UNL     1       5.034  -5.111  28.747  0.00  0.00    +0.109 C 
ENDBRANCH   1   2
BRANCH   1   9
ATOM      7  N   UNL     1       6.454  -5.109  24.537  0.00  0.00    -0.299 N 
ATOM      8  H   UNL     1       5.745  -5.041  25.271  0.00  0.00    +0.150 HD
ATOM      9  C   UNL     1       7.769  -5.163  24.917  0.00  0.00    +0.234 C 
ATOM     10  O   UNL     1       8.674  -5.457  24.139  0.00  0.00    -0.274 OA
BRANCH   7  11
ATOM     11  CA  UNL     1       5.994  -5.302  23.160  0.00  0.00    +0.210 C 
BRANCH  11  13
ATOM     12  CG2 UNL     1       5.647  -2.779  23.108  0.00  0.00    +0.040 C 
ATOM     13  CB  UNL     1       6.024  -4.023  22.303  0.00  0.00    +0.143 C 
BRANCH  13  14
ATOM     14  OG1 UNL     1       7.367  -3.847  21.804  0.00  0.00    -0.390 OA
ATOM     15  HG1 UNL     1       7.372  -4.130  20.867  0.00  0.00    +0.210 HD
ENDBRANCH  13  14
ENDBRANCH  11  13
BRANCH  11  16
ATOM     16  C   UNL     1       4.624  -6.021  23.163  0.00  0.00    +0.328 C 
ATOM     17  OXT UNL     1       3.577  -5.510  22.782  0.00  0.00    -0.249 OA
BRANCH  16  18
ATOM     18  O   UNL     1       4.634  -7.243  23.752  0.00  0.00    -0.479 OA
ATOM     19  H   UNL     1       4.262  -7.217  24.668  0.00  0.00    +0.295 HD
ENDBRANCH  16  18
ENDBRANCH  11  16
ENDBRANCH   7  11
ENDBRANCH   1   9
BRANCH   1  20
ATOM     20  C   UNL     1       9.015  -3.619  26.493  0.00  0.00    +0.067 C 
BRANCH  20  21
ATOM     21  C   UNL     1       8.578  -2.321  25.842  0.00  0.00    -0.043 A 
ATOM     22  C   UNL     1       9.004  -2.028  24.537  0.00  0.00    +0.021 A 
ATOM     23  C   UNL     1       8.771  -0.769  23.971  0.00  0.00    +0.056 A 
ATOM     24  I   UNL     1       9.493  -0.413  22.039  0.00  0.00    -0.040 I 
ATOM     25  C   UNL     1       8.110   0.216  24.708  0.00  0.00    +0.143 A 
ATOM     26  C   UNL     1       7.633  -0.087  25.988  0.00  0.00    +0.056 A 
ATOM     27  I   UNL     1       6.603   1.339  27.122  0.00  0.00    -0.040 I 
ATOM     28  C   UNL     1       7.859  -1.349  26.554  0.00  0.00    +0.021 A 
BRANCH  25  29
ATOM     29  O   UNL     1       7.969   1.472  24.176  0.00  0.00    -0.505 OA
ATOM     30  H   UNL     1       7.048   1.754  24.316  0.00  0.00    +0.292 HD
ENDBRANCH  25  29
ENDBRANCH  20  21
ENDBRANCH   1  20
TORSDOF 10
ENDMDL
MODEL 4
REMARK VINA RESULT:      -6.3      3.614      7.244
REMARK  Name = 
REMARK  12 active torsions:
REMARK  status: ('A' for Active; 'I' for Inactive)
REMARK    1  A    between atoms: CG2_1  and  CB_2
REMARK    2  A    between atoms: CB_2  and  OG1_4
REMARK    3  A    between atoms: CB_2  and  CA_5
REMARK    4  A    between atoms: CA_5  and  N_7
REMARK    5  A    between atoms: CA_5  and  C_26
REMARK    6  A    between atoms: C_8  and  CA_10
REMARK    7  A    between atoms: CA_10  and  C_12
REMARK    8  A    between atoms: CA_10  and  N_22
REMARK    9  A    between atoms: C_12  and  C_13
REMARK   10  A    between atoms: C_17  and  O_18
REMARK   11  A    between atoms: C_23  and  C_24
REMARK   12  A    between atoms: C_26  and  O_27
REMARK                            x       y       z     vdW  Elec       q    Type
REMARK                         _______ _______ _______ _____ _____    ______ ____
ROOT
ATOM      1  CA  UNL     1       9.010  -3.050  23.379  0.00  0.00    +0.163 C 
ENDROOT
BRANCH   1   2
ATOM      2  N   UNL     1       7.615  -2.855  22.967  0.00  0.00    -0.304 N 
ATOM      3  H   UNL     1       7.273  -1.902  22.984  0.00  0.00    +0.149 HD
ATOM      4  C   UNL     1       6.850  -3.802  22.335  0.00  0.00    +0.211 C 
ATOM      5  O   UNL     1       7.246  -4.935  22.081  0.00  0.00    -0.276 OA
ATOM      6  C   UNL     1       5.452  -3.351  22.007  0.00  0.00    +0.109 C 
ENDBRANCH   1   2
BRANCH   1   9
ATOM      7  N   UNL     1       9.380  -0.610  23.367  0.00  0.00    -0.299 N 
ATOM      8  H   UNL     1       8.407  -0.570  23.676  0.00  0.00    +0.150 HD
ATOM      9  C   UNL     1       9.885  -1.828  22.993  0.00  0.00    +0.234 C 
ATOM     10  O   UNL     1      10.961  -1.951  22.411  0.00  0.00    -0.274 OA
BRANCH   7  11
ATOM     11  CA  UNL     1      10.096   0.656  23.198  0.00  0.00    +0.210 C 
BRANCH  11  13
ATOM     12  CG2 UNL     1       8.878   2.296  24.718  0.00  0.00    +0.040 C 
ATOM     13  CB  UNL     1      10.168   1.512  24.476  0.00  0.00    +0.143 C 
BRANCH  13  14
ATOM     14  OG1 UNL     1      10.376   0.629  25.599  0.00  0.00    -0.390 OA
ATOM     15  HG1 UNL     1       9.766   0.910  26.310  0.00  0.00    +0.210 HD
ENDBRANCH  13  14
ENDBRANCH  11  13
BRANCH  11  16
ATOM     16  C   UNL     1       9.538   1.412  21.968  0.00  0.00    +0.328 C 
ATOM     17  OXT UNL     1       8.508   1.104  21.380  0.00  0.00    -0.249 OA
BRANCH  16  18
ATOM     18  O   UNL     1      10.353   2.385  21.491  0.00  0.00    -0.479 OA
ATOM     19  H   UNL     1      10.944   2.055  20.771  0.00  0.00    +0.295 HD
ENDBRANCH  16  18
ENDBRANCH  11  16
ENDBRANCH   7  11
ENDBRANCH   1   9
BRANCH   1  20
ATOM     20  C   UNL     1       9.216  -3.404  24.861  0.00  0.00    +0.067 C 
BRANCH  20  21
ATOM     21  C   UNL     1       8.005  -3.291  25.767  0.00  0.00    -0.043 A 
ATOM     22  C   UNL     1       7.275  -4.447  26.086  0.00  0.00    +0.021 A 
ATOM     23  C   UNL     1       6.056  -4.361  26.769  0.00  0.00    +0.056 A 
ATOM     24  I   UNL     1       5.017  -6.137  27.150  0.00  0.00    -0.040 I 
ATOM     25  C   UNL     1       5.551  -3.113  27.140  0.00  0.00    +0.143 A 
ATOM     26  C   UNL     1       6.300  -1.961  26.875  0.00  0.00    +0.056 A 
ATOM     27  I   UNL     1       5.608  -0.069  27.441  0.00  0.00    -0.040 I 
ATOM     28  C   UNL     1       7.524  -2.046  26.197  0.00  0.00    +0.021 A 
BRANCH  25  29
ATOM     29  O   UNL     1       4.314  -3.036  27.726  0.00  0.00    -0.505 OA
ATOM     30  H   UNL     1       3.679  -2.746  27.048  0.00  0.00    +0.292 HD
ENDBRANCH  25  29
ENDBRANCH  20  21
ENDBRANCH   1  20
TORSDOF 10
ENDMDL
MODEL 5
REMARK VINA RESULT:      -6.3      3.745      7.414
REMARK  Name = 
REMARK  12 active torsions:
REMARK  status: ('A' for Active; 'I' for Inactive)
REMARK    1  A    between atoms: CG2_1  and  CB_2
REMARK    2  A    between atoms: CB_2  and  OG1_4
REMARK    3  A    between atoms: CB_2  and  CA_5
REMARK    4  A    between atoms: CA_5  and  N_7
REMARK    5  A    between atoms: CA_5  and  C_26
REMARK    6  A    between atoms: C_8  and  CA_10
REMARK    7  A    between atoms: CA_10  and  C_12
REMARK    8  A    between atoms: CA_10  and  N_22
REMARK    9  A    between atoms: C_12  and  C_13
REMARK   10  A    between atoms: C_17  and  O_18
REMARK   11  A    between atoms: C_23  and  C_24
REMARK   12  A    between atoms: C_26  and  O_27
REMARK                            x       y       z     vdW  Elec       q    Type
REMARK                         _______ _______ _______ _____ _____    ______ ____
ROOT
ATOM      1  CA  UNL     1       8.889  -3.069  23.581  0.00  0.00    +0.163 C 
ENDROOT
BRANCH   1   2
ATOM      2  N   UNL     1       7.571  -2.925  22.951  0.00  0.00    -0.304 N 
ATOM      3  H   UNL     1       7.221  -1.978  22.859  0.00  0.00    +0.149 HD
ATOM      4  C   UNL     1       6.922  -3.920  22.266  0.00  0.00    +0.211 C 
ATOM      5  O   UNL     1       7.363  -5.058  22.143  0.00  0.00    -0.276 OA
ATOM      6  C   UNL     1       5.587  -3.514  21.703  0.00  0.00    +0.109 C 
ENDBRANCH   1   2
BRANCH   1   9
ATOM      7  N   UNL     1       9.401  -0.663  23.392  0.00  0.00    -0.299 N 
ATOM      8  H   UNL     1       8.419  -0.544  23.650  0.00  0.00    +0.150 HD
ATOM      9  C   UNL     1       9.850  -1.933  23.142  0.00  0.00    +0.234 C 
ATOM     10  O   UNL     1      10.941  -2.163  22.623  0.00  0.00    -0.274 OA
BRANCH   7  11
ATOM     11  CA  UNL     1      10.197   0.544  23.157  0.00  0.00    +0.210 C 
BRANCH  11  13
ATOM     12  CG2 UNL     1       9.058   2.273  24.641  0.00  0.00    +0.040 C 
ATOM     13  CB  UNL     1      10.328   1.459  24.389  0.00  0.00    +0.143 C 
BRANCH  13  14
ATOM     14  OG1 UNL     1      10.567   0.628  25.544  0.00  0.00    -0.390 OA
ATOM     15  HG1 UNL     1       9.861  -0.048  25.571  0.00  0.00    +0.210 HD
ENDBRANCH  13  14
ENDBRANCH  11  13
BRANCH  11  16
ATOM     16  C   UNL     1       9.684   1.269  21.890  0.00  0.00    +0.328 C 
ATOM     17  OXT UNL     1       8.815   0.826  21.147  0.00  0.00    -0.249 OA
BRANCH  16  18
ATOM     18  O   UNL     1      10.367   2.397  21.574  0.00  0.00    -0.479 OA
ATOM     19  H   UNL     1      10.882   2.748  22.342  0.00  0.00    +0.295 HD
ENDBRANCH  16  18
ENDBRANCH  11  16
ENDBRANCH   7  11
ENDBRANCH   1   9
BRANCH   1  20
ATOM     20  C   UNL     1       8.876  -3.190  25.114  0.00  0.00    +0.067 C 
BRANCH  20  21
ATOM     21  C   UNL     1       7.518  -3.253  25.785  0.00  0.00    -0.043 A 
ATOM     22  C   UNL     1       6.925  -2.069  26.250  0.00  0.00    +0.021 A 
ATOM     23  C   UNL     1       5.761  -2.106  27.029  0.00  0.00    +0.056 A 
ATOM     24  I   UNL     1       4.985  -0.288  27.719  0.00  0.00    -0.040 I 
ATOM     25  C   UNL     1       5.178  -3.332  27.355  0.00  0.00    +0.143 A 
ATOM     26  C   UNL     1       5.732  -4.513  26.848  0.00  0.00    +0.056 A 
ATOM     27  I   UNL     1       4.878  -6.376  27.274  0.00  0.00    -0.040 I 
ATOM     28  C   UNL     1       6.892  -4.478  26.062  0.00  0.00    +0.021 A 
BRANCH  25  29
ATOM     29  O   UNL     1       4.094  -3.359  28.192  0.00  0.00    -0.505 OA
ATOM     30  H   UNL     1       3.865  -4.291  28.356  0.00  0.00    +0.292 HD
ENDBRANCH  25  29
ENDBRANCH  20  21
ENDBRANCH   1  20
TORSDOF 10
ENDMDL
MODEL 6
REMARK VINA RESULT:      -6.2      4.788      8.725
REMARK  Name = 
REMARK  12 active torsions:
REMARK  status: ('A' for Active; 'I' for Inactive)
REMARK    1  A    between atoms: CG2_1  and  CB_2
REMARK    2  A    between atoms: CB_2  and  OG1_4
REMARK    3  A    between atoms: CB_2  and  CA_5
REMARK    4  A    between atoms: CA_5  and  N_7
REMARK    5  A    between atoms: CA_5  and  C_26
REMARK    6  A    between atoms: C_8  and  CA_10
REMARK    7  A    between atoms: CA_10  and  C_12
REMARK    8  A    between atoms: CA_10  and  N_22
REMARK    9  A    between atoms: C_12  and  C_13
REMARK   10  A    between atoms: C_17  and  O_18
REMARK   11  A    between atoms: C_23  and  C_24
REMARK   12  A    between atoms: C_26  and  O_27
REMARK                            x       y       z     vdW  Elec       q    Type
REMARK                         _______ _______ _______ _____ _____    ______ ____
ROOT
ATOM      1  CA  UNL     1       8.191  -4.161  24.664  0.00  0.00    +0.163 C 
ENDROOT
BRANCH   1   2
ATOM      2  N   UNL     1       7.894  -5.083  23.561  0.00  0.00    -0.304 N 
ATOM      3  H   UNL     1       8.076  -6.064  23.737  0.00  0.00    +0.149 HD
ATOM      4  C   UNL     1       7.168  -4.754  22.445  0.00  0.00    +0.211 C 
ATOM      5  O   UNL     1       6.720  -3.632  22.234  0.00  0.00    -0.276 OA
ATOM      6  C   UNL     1       6.992  -5.883  21.465  0.00  0.00    +0.109 C 
ENDBRANCH   1   2
BRANCH   1   9
ATOM      7  N   UNL     1       8.266  -1.760  24.100  0.00  0.00    -0.299 N 
ATOM      8  H   UNL     1       7.249  -1.820  24.181  0.00  0.00    +0.150 HD
ATOM      9  C   UNL     1       8.984  -2.925  24.166  0.00  0.00    +0.234 C 
ATOM     10  O   UNL     1      10.176  -2.989  23.869  0.00  0.00    -0.274 OA
BRANCH   7  11
ATOM     11  CA  UNL     1       8.849  -0.460  23.762  0.00  0.00    +0.210 C 
BRANCH  11  13
ATOM     12  CG2 UNL     1      10.958   0.658  24.650  0.00  0.00    +0.040 C 
ATOM     13  CB  UNL     1       9.513   0.259  24.951  0.00  0.00    +0.143 C 
BRANCH  13  14
ATOM     14  OG1 UNL     1       8.762   1.459  25.228  0.00  0.00    -0.390 OA
ATOM     15  HG1 UNL     1       9.360   2.220  25.086  0.00  0.00    +0.210 HD
ENDBRANCH  13  14
ENDBRANCH  11  13
BRANCH  11  16
ATOM     16  C   UNL     1       7.804   0.402  23.014  0.00  0.00    +0.328 C 
ATOM     17  OXT UNL     1       8.088   1.319  22.251  0.00  0.00    -0.249 OA
BRANCH  16  18
ATOM     18  O   UNL     1       6.518   0.156  23.366  0.00  0.00    -0.479 OA
ATOM     19  H   UNL     1       5.951  -0.050  22.583  0.00  0.00    +0.295 HD
ENDBRANCH  16  18
ENDBRANCH  11  16
ENDBRANCH   7  11
ENDBRANCH   1   9
BRANCH   1  20
ATOM     20  C   UNL     1       6.974  -3.713  25.492  0.00  0.00    +0.067 C 
BRANCH  20  21
ATOM     21  C   UNL     1       6.197  -4.798  26.212  0.00  0.00    -0.043 A 
ATOM     22  C   UNL     1       5.239  -5.541  25.505  0.00  0.00    +0.021 A 
ATOM     23  C   UNL     1       4.380  -6.424  26.172  0.00  0.00    +0.056 A 
ATOM     24  I   UNL     1       2.951  -7.447  25.035  0.00  0.00    -0.040 I 
ATOM     25  C   UNL     1       4.469  -6.571  27.557  0.00  0.00    +0.143 A 
ATOM     26  C   UNL     1       5.458  -5.875  28.261  0.00  0.00    +0.056 A 
ATOM     27  I   UNL     1       5.660  -6.085  30.333  0.00  0.00    -0.040 I 
ATOM     28  C   UNL     1       6.323  -4.996  27.594  0.00  0.00    +0.021 A 
BRANCH  25  29
ATOM     29  O   UNL     1       3.563  -7.368  28.208  0.00  0.00    -0.505 OA
ATOM     30  H   UNL     1       2.672  -7.112  27.912  0.00  0.00    +0.292 HD
ENDBRANCH  25  29
ENDBRANCH  20  21
ENDBRANCH   1  20
TORSDOF 10
ENDMDL
MODEL 7
REMARK VINA RESULT:      -6.2      4.308      7.957
REMARK  Name = 
REMARK  12 active torsions:
REMARK  status: ('A' for Active; 'I' for Inactive)
REMARK    1  A    between atoms: CG2_1  and  CB_2
REMARK    2  A    between atoms: CB_2  and  OG1_4
REMARK    3  A    between atoms: CB_2  and  CA_5
REMARK    4  A    between atoms: CA_5  and  N_7
REMARK    5  A    between atoms: CA_5  and  C_26
REMARK    6  A    between atoms: C_8  and  CA_10
REMARK    7  A    between atoms: CA_10  and  C_12
REMARK    8  A    between atoms: CA_10  and  N_22
REMARK    9  A    between atoms: C_12  and  C_13
REMARK   10  A    between atoms: C_17  and  O_18
REMARK   11  A    between atoms: C_23  and  C_24
REMARK   12  A    between atoms: C_26  and  O_27
REMARK                            x       y       z     vdW  Elec       q    Type
REMARK                         _______ _______ _______ _____ _____    ______ ____
ROOT
ATOM      1  CA  UNL     1       7.879  -1.690  25.337  0.00  0.00    +0.163 C 
ENDROOT
BRANCH   1   2
ATOM      2  N   UNL     1       8.676  -2.890  25.055  0.00  0.00    -0.304 N 
ATOM      3  H   UNL     1       9.274  -2.847  24.238  0.00  0.00    +0.149 HD
ATOM      4  C   UNL     1       8.860  -3.927  25.934  0.00  0.00    +0.211 C 
ATOM      5  O   UNL     1       8.339  -3.977  27.044  0.00  0.00    -0.276 OA
ATOM      6  C   UNL     1       9.733  -5.035  25.409  0.00  0.00    +0.109 C 
ENDBRANCH   1   2
BRANCH   1   9
ATOM      7  N   UNL     1       8.010   0.056  23.599  0.00  0.00    -0.299 N 
ATOM      8  H   UNL     1       7.357  -0.548  23.095  0.00  0.00    +0.150 HD
ATOM      9  C   UNL     1       8.556  -0.417  24.763  0.00  0.00    +0.234 C 
ATOM     10  O   UNL     1       9.502   0.131  25.325  0.00  0.00    -0.274 OA
BRANCH   7  11
ATOM     11  CA  UNL     1       8.426   1.301  22.951  0.00  0.00    +0.210 C 
BRANCH  11  13
ATOM     12  CG2 UNL     1       6.165   2.368  23.439  0.00  0.00    +0.040 C 
ATOM     13  CB  UNL     1       7.260   2.141  22.396  0.00  0.00    +0.143 C 
BRANCH  13  14
ATOM     14  OG1 UNL     1       7.780   3.428  22.001  0.00  0.00    -0.390 OA
ATOM     15  HG1 UNL     1       7.873   3.420  21.026  0.00  0.00    +0.210 HD
ENDBRANCH  13  14
ENDBRANCH  11  13
BRANCH  11  16
ATOM     16  C   UNL     1       9.534   1.005  21.911  0.00  0.00    +0.328 C 
ATOM     17  OXT UNL     1       9.826  -0.119  21.518  0.00  0.00    -0.249 OA
BRANCH  16  18
ATOM     18  O   UNL     1      10.268   2.087  21.550  0.00  0.00    -0.479 OA
ATOM     19  H   UNL     1       9.731   2.917  21.549  0.00  0.00    +0.295 HD
ENDBRANCH  16  18
ENDBRANCH  11  16
ENDBRANCH   7  11
ENDBRANCH   1   9
BRANCH   1  20
ATOM     20  C   UNL     1       6.409  -1.757  24.891  0.00  0.00    +0.067 C 
BRANCH  20  21
ATOM     21  C   UNL     1       5.868  -3.123  24.517  0.00  0.00    -0.043 A 
ATOM     22  C   UNL     1       5.166  -3.870  25.476  0.00  0.00    +0.021 A 
ATOM     23  C   UNL     1       4.807  -5.201  25.229  0.00  0.00    +0.056 A 
ATOM     24  I   UNL     1       3.809  -6.246  26.743  0.00  0.00    -0.040 I 
ATOM     25  C   UNL     1       5.150  -5.802  24.016  0.00  0.00    +0.143 A 
ATOM     26  C   UNL     1       5.800  -5.047  23.034  0.00  0.00    +0.056 A 
ATOM     27  I   UNL     1       6.305  -5.886  21.184  0.00  0.00    -0.040 I 
ATOM     28  C   UNL     1       6.154  -3.712  23.278  0.00  0.00    +0.021 A 
BRANCH  25  29
ATOM     29  O   UNL     1       4.873  -7.130  23.823  0.00  0.00    -0.505 OA
ATOM     30  H   UNL     1       5.503  -7.474  23.165  0.00  0.00    +0.292 HD
ENDBRANCH  25  29
ENDBRANCH  20  21
ENDBRANCH   1  20
TORSDOF 10
ENDMDL
MODEL 8
REMARK VINA RESULT:      -6.2      4.176      7.674
REMARK  Name = 
REMARK  12 active torsions:
REMARK  status: ('A' for Active; 'I' for Inactive)
REMARK    1  A    between atoms: CG2_1  and  CB_2
REMARK    2  A    between atoms: CB_2  and  OG1_4
REMARK    3  A    between atoms: CB_2  and  CA_5
REMARK    4  A    between atoms: CA_5  and  N_7
REMARK    5  A    between atoms: CA_5  and  C_26
REMARK    6  A    between atoms: C_8  and  CA_10
REMARK    7  A    between atoms: CA_10  and  C_12
REMARK    8  A    between atoms: CA_10  and  N_22
REMARK    9  A    between atoms: C_12  and  C_13
REMARK   10  A    between atoms: C_17  and  O_18
REMARK   11  A    between atoms: C_23  and  C_24
REMARK   12  A    between atoms: C_26  and  O_27
REMARK                            x       y       z     vdW  Elec       q    Type
REMARK                         _______ _______ _______ _____ _____    ______ ____
ROOT
ATOM      1  CA  UNL     1       7.728  -1.132  25.730  0.00  0.00    +0.163 C 
ENDROOT
BRANCH   1   2
ATOM      2  N   UNL     1       7.836  -0.321  26.949  0.00  0.00    -0.304 N 
ATOM      3  H   UNL     1       8.775  -0.128  27.276  0.00  0.00    +0.149 HD
ATOM      4  C   UNL     1       6.802   0.387  27.506  0.00  0.00    +0.211 C 
ATOM      5  O   UNL     1       5.659   0.383  27.060  0.00  0.00    -0.276 OA
ATOM      6  C   UNL     1       7.173   1.150  28.749  0.00  0.00    +0.109 C 
ENDBRANCH   1   2
BRANCH   1   9
ATOM      7  N   UNL     1       9.526  -0.274  24.273  0.00  0.00    -0.299 N 
ATOM      8  H   UNL     1      10.138  -0.575  25.034  0.00  0.00    +0.150 HD
ATOM      9  C   UNL     1       8.172  -0.329  24.479  0.00  0.00    +0.234 C 
ATOM     10  O   UNL     1       7.362   0.203  23.722  0.00  0.00    -0.274 OA
BRANCH   7  11
ATOM     11  CA  UNL     1      10.147   0.337  23.097  0.00  0.00    +0.210 C 
BRANCH  11  13
ATOM     12  CG2 UNL     1      10.495   2.742  23.860  0.00  0.00    +0.040 C 
ATOM     13  CB  UNL     1       9.770   1.815  22.884  0.00  0.00    +0.143 C 
BRANCH  13  14
ATOM     14  OG1 UNL     1      10.150   2.188  21.542  0.00  0.00    -0.390 OA
ATOM     15  HG1 UNL     1      10.857   2.861  21.613  0.00  0.00    +0.210 HD
ENDBRANCH  13  14
ENDBRANCH  11  13
BRANCH  11  16
ATOM     16  C   UNL     1       9.906  -0.555  21.856  0.00  0.00    +0.328 C 
ATOM     17  OXT UNL     1       9.162  -0.259  20.928  0.00  0.00    -0.249 OA
BRANCH  16  18
ATOM     18  O   UNL     1      10.488  -1.779  21.923  0.00  0.00    -0.479 OA
ATOM     19  H   UNL     1      11.374  -1.746  22.361  0.00  0.00    +0.295 HD
ENDBRANCH  16  18
ENDBRANCH  11  16
ENDBRANCH   7  11
ENDBRANCH   1   9
BRANCH   1  20
ATOM     20  C   UNL     1       8.455  -2.487  25.776  0.00  0.00    +0.067 C 
BRANCH  20  21
ATOM     21  C   UNL     1       7.633  -3.717  25.441  0.00  0.00    -0.043 A 
ATOM     22  C   UNL     1       7.504  -4.114  24.100  0.00  0.00    +0.021 A 
ATOM     23  C   UNL     1       6.615  -5.132  23.734  0.00  0.00    +0.056 A 
ATOM     24  I   UNL     1       6.457  -5.613  21.704  0.00  0.00    -0.040 I 
ATOM     25  C   UNL     1       5.840  -5.764  24.708  0.00  0.00    +0.143 A 
ATOM     26  C   UNL     1       6.004  -5.413  26.053  0.00  0.00    +0.056 A 
ATOM     27  I   UNL     1       4.895  -6.354  27.558  0.00  0.00    -0.040 I 
ATOM     28  C   UNL     1       6.899  -4.399  26.422  0.00  0.00    +0.021 A 
BRANCH  25  29
ATOM     29  O   UNL     1       4.909  -6.695  24.326  0.00  0.00    -0.505 OA
ATOM     30  H   UNL     1       4.035  -6.381  24.619  0.00  0.00    +0.292 HD
ENDBRANCH  25  29
ENDBRANCH  20  21
ENDBRANCH   1  20
TORSDOF 10
ENDMDL
MODEL 9
REMARK VINA RESULT:      -6.1      4.674      8.291
REMARK  Name = 
REMARK  12 active torsions:
REMARK  status: ('A' for Active; 'I' for Inactive)
REMARK    1  A    between atoms: CG2_1  and  CB_2
REMARK    2  A    between atoms: CB_2  and  OG1_4
REMARK    3  A    between atoms: CB_2  and  CA_5
REMARK    4  A    between atoms: CA_5  and  N_7
REMARK    5  A    between atoms: CA_5  and  C_26
REMARK    6  A    between atoms: C_8  and  CA_10
REMARK    7  A    between atoms: CA_10  and  C_12
REMARK    8  A    between atoms: CA_10  and  N_22
REMARK    9  A    between atoms: C_12  and  C_13
REMARK   10  A    between atoms: C_17  and  O_18
REMARK   11  A    between atoms: C_23  and  C_24
REMARK   12  A    between atoms: C_26  and  O_27
REMARK                            x       y       z     vdW  Elec       q    Type
REMARK                         _______ _______ _______ _____ _____    ______ ____
ROOT
ATOM      1  CA  UNL     1       7.842  -2.811  24.620  0.00  0.00    +0.163 C 
ENDROOT
BRANCH   1   2
ATOM      2  N   UNL     1       7.057  -1.872  25.431  0.00  0.00    -0.304 N 
ATOM      3  H   UNL     1       7.585  -1.256  26.038  0.00  0.00    +0.149 HD
ATOM      4  C   UNL     1       5.727  -1.600  25.239  0.00  0.00    +0.211 C 
ATOM      5  O   UNL     1       5.038  -2.149  24.384  0.00  0.00    -0.276 OA
ATOM      6  C   UNL     1       5.157  -0.589  26.197  0.00  0.00    +0.109 C 
ENDBRANCH   1   2
BRANCH   1   9
ATOM      7  N   UNL     1       8.893  -0.784  23.683  0.00  0.00    -0.299 N 
ATOM      8  H   UNL     1       7.942  -0.410  23.709  0.00  0.00    +0.150 HD
ATOM      9  C   UNL     1       9.069  -2.110  23.979  0.00  0.00    +0.234 C 
ATOM     10  O   UNL     1      10.126  -2.703  23.770  0.00  0.00    -0.274 OA
BRANCH   7  11
ATOM     11  CA  UNL     1       9.956   0.087  23.177  0.00  0.00    +0.210 C 
BRANCH  11  13
ATOM     12  CG2 UNL     1       9.118   1.930  24.722  0.00  0.00    +0.040 C 
ATOM     13  CB  UNL     1      10.343   1.228  24.136  0.00  0.00    +0.143 C 
BRANCH  13  14
ATOM     14  OG1 UNL     1      11.102   0.662  25.225  0.00  0.00    -0.390 OA
ATOM     15  HG1 UNL     1      11.902   1.213  25.342  0.00  0.00    +0.210 HD
ENDBRANCH  13  14
ENDBRANCH  11  13
BRANCH  11  16
ATOM     16  C   UNL     1       9.604   0.563  21.747  0.00  0.00    +0.328 C 
ATOM     17  OXT UNL     1       9.194  -0.173  20.857  0.00  0.00    -0.249 OA
BRANCH  16  18
ATOM     18  O   UNL     1       9.911   1.860  21.497  0.00  0.00    -0.479 OA
ATOM     19  H   UNL     1       9.194   2.322  20.998  0.00  0.00    +0.295 HD
ENDBRANCH  16  18
ENDBRANCH  11  16
ENDBRANCH   7  11
ENDBRANCH   1   9
BRANCH   1  20
ATOM     20  C   UNL     1       8.281  -4.096  25.341  0.00  0.00    +0.067 C 
BRANCH  20  21
ATOM     21  C   UNL     1       7.181  -4.987  25.885  0.00  0.00    -0.043 A 
ATOM     22  C   UNL     1       6.185  -5.458  25.015  0.00  0.00    +0.021 A 
ATOM     23  C   UNL     1       5.061  -6.132  25.508  0.00  0.00    +0.056 A 
ATOM     24  I   UNL     1       3.606  -6.747  24.135  0.00  0.00    -0.040 I 
ATOM     25  C   UNL     1       4.919  -6.340  26.881  0.00  0.00    +0.143 A 
ATOM     26  C   UNL     1       5.934  -5.923  27.749  0.00  0.00    +0.056 A 
ATOM     27  I   UNL     1       5.791  -6.242  29.812  0.00  0.00    -0.040 I 
ATOM     28  C   UNL     1       7.064  -5.254  27.256  0.00  0.00    +0.021 A 
BRANCH  25  29
ATOM     29  O   UNL     1       3.771  -6.919  27.358  0.00  0.00    -0.505 OA
ATOM     30  H   UNL     1       3.545  -6.486  28.200  0.00  0.00    +0.292 HD
ENDBRANCH  25  29
ENDBRANCH  20  21
ENDBRANCH   1  20
TORSDOF 10
ENDMDL
