MODEL 1
REMARK VINA RESULT:      -3.5      0.000      0.000
REMARK  Name = 
REMARK  2 active torsions:
REMARK  status: ('A' for Active; 'I' for Inactive)
REMARK    1  A    between atoms: O_1  and  C_2
REMARK    2  A    between atoms: C_2  and  C_3
REMARK                            x       y       z     vdW  Elec       q    Type
REMARK                         _______ _______ _______ _____ _____    ______ ____
ROOT
ATOM      1  C   UNL     1      12.020   5.426  23.488  0.00  0.00    +0.412 C 
ATOM      2  F   UNL     1      12.384   5.936  24.689  0.00  0.00    -0.168 F 
ATOM      3  F   UNL     1      11.637   4.143  23.698  0.00  0.00    -0.168 F 
ATOM      4  F   UNL     1      10.933   6.110  23.068  0.00  0.00    -0.168 F 
ENDROOT
BRANCH   1   5
ATOM      5  C   UNL     1      13.187   5.486  22.496  0.00  0.00    +0.269 C 
BRANCH   5   6
ATOM      6  O   UNL     1      14.457   5.114  23.045  0.00  0.00    -0.386 OA
ATOM      7  H   UNL     1      14.285   4.549  23.817  0.00  0.00    +0.210 HD
ENDBRANCH   5   6
ENDBRANCH   1   5
TORSDOF 2
ENDMDL
MODEL 2
REMARK VINA RESULT:      -3.2      3.925      4.622
REMARK  Name = 
REMARK  2 active torsions:
REMARK  status: ('A' for Active; 'I' for Inactive)
REMARK    1  A    between atoms: O_1  and  C_2
REMARK    2  A    between atoms: C_2  and  C_3
REMARK                            x       y       z     vdW  Elec       q    Type
REMARK                         _______ _______ _______ _____ _____    ______ ____
ROOT
ATOM      1  C   UNL     1      10.626   1.752  23.924  0.00  0.00    +0.412 C 
ATOM      2  F   UNL     1       9.651   2.050  24.817  0.00  0.00    -0.168 F 
ATOM      3  F   UNL     1      11.332   2.889  23.711  0.00  0.00    -0.168 F 
ATOM      4  F   UNL     1      11.457   0.863  24.510  0.00  0.00    -0.168 F 
ENDROOT
BRANCH   1   5
ATOM      5  C   UNL     1      10.023   1.237  22.612  0.00  0.00    +0.269 C 
BRANCH   5   6
ATOM      6  O   UNL     1      10.054   2.177  21.531  0.00  0.00    -0.386 OA
ATOM      7  H   UNL     1       9.134   2.340  21.262  0.00  0.00    +0.210 HD
ENDBRANCH   5   6
ENDBRANCH   1   5
TORSDOF 2
ENDMDL
MODEL 3
REMARK VINA RESULT:      -3.1      5.650      6.164
REMARK  Name = 
REMARK  2 active torsions:
REMARK  status: ('A' for Active; 'I' for Inactive)
REMARK    1  A    between atoms: O_1  and  C_2
REMARK    2  A    between atoms: C_2  and  C_3
REMARK                            x       y       z     vdW  Elec       q    Type
REMARK                         _______ _______ _______ _____ _____    ______ ____
ROOT
ATOM      1  C   UNL     1       9.527   0.842  21.891  0.00  0.00    +0.412 C 
ATOM      2  F   UNL     1       8.570   1.313  22.726  0.00  0.00    -0.168 F 
ATOM      3  F   UNL     1       8.935   0.617  20.693  0.00  0.00    -0.168 F 
ATOM      4  F   UNL     1      10.435   1.827  21.715  0.00  0.00    -0.168 F 
ENDROOT
BRANCH   1   5
ATOM      5  C   UNL     1      10.141  -0.450  22.441  0.00  0.00    +0.269 C 
BRANCH   5   6
ATOM      6  O   UNL     1      10.193  -1.533  21.504  0.00  0.00    -0.386 OA
ATOM      7  H   UNL     1       9.524  -1.359  20.821  0.00  0.00    +0.210 HD
ENDBRANCH   5   6
ENDBRANCH   1   5
TORSDOF 2
ENDMDL
MODEL 4
REMARK VINA RESULT:      -2.9      6.195      6.456
REMARK  Name = 
REMARK  2 active torsions:
REMARK  status: ('A' for Active; 'I' for Inactive)
REMARK    1  A    between atoms: O_1  and  C_2
REMARK    2  A    between atoms: C_2  and  C_3
REMARK                            x       y       z     vdW  Elec       q    Type
REMARK                         _______ _______ _______ _____ _____    ______ ____
ROOT
ATOM      1  C   UNL     1       9.519  -0.173  21.771  0.00  0.00    +0.412 C 
ATOM      2  F   UNL     1       8.417  -0.482  22.496  0.00  0.00    -0.168 F 
ATOM      3  F   UNL     1      10.463  -1.099  22.066  0.00  0.00    -0.168 F 
ATOM      4  F   UNL     1       9.201  -0.320  20.466  0.00  0.00    -0.168 F 
ENDROOT
BRANCH   1   5
ATOM      5  C   UNL     1      10.018   1.236  22.112  0.00  0.00    +0.269 C 
BRANCH   5   6
ATOM      6  O   UNL     1       9.325   2.294  21.439  0.00  0.00    -0.386 OA
ATOM      7  H   UNL     1       8.896   1.909  20.657  0.00  0.00    +0.210 HD
ENDBRANCH   5   6
ENDBRANCH   1   5
TORSDOF 2
ENDMDL
MODEL 5
REMARK VINA RESULT:      -2.9     12.195     12.598
REMARK  Name = 
REMARK  2 active torsions:
REMARK  status: ('A' for Active; 'I' for Inactive)
REMARK    1  A    between atoms: O_1  and  C_2
REMARK    2  A    between atoms: C_2  and  C_3
REMARK                            x       y       z     vdW  Elec       q    Type
REMARK                         _______ _______ _______ _____ _____    ______ ____
ROOT
ATOM      1  C   UNL     1       6.379  -5.585  21.493  0.00  0.00    +0.412 C 
ATOM      2  F   UNL     1       5.390  -6.178  22.205  0.00  0.00    -0.168 F 
ATOM      3  F   UNL     1       7.521  -6.266  21.754  0.00  0.00    -0.168 F 
ATOM      4  F   UNL     1       6.095  -5.755  20.183  0.00  0.00    -0.168 F 
ENDROOT
BRANCH   1   5
ATOM      5  C   UNL     1       6.526  -4.112  21.890  0.00  0.00    +0.269 C 
BRANCH   5   6
ATOM      6  O   UNL     1       5.397  -3.291  21.567  0.00  0.00    -0.386 OA
ATOM      7  H   UNL     1       5.369  -3.205  20.599  0.00  0.00    +0.210 HD
ENDBRANCH   5   6
ENDBRANCH   1   5
TORSDOF 2
ENDMDL
MODEL 6
REMARK VINA RESULT:      -2.9      5.154      5.735
REMARK  Name = 
REMARK  2 active torsions:
REMARK  status: ('A' for Active; 'I' for Inactive)
REMARK    1  A    between atoms: O_1  and  C_2
REMARK    2  A    between atoms: C_2  and  C_3
REMARK                            x       y       z     vdW  Elec       q    Type
REMARK                         _______ _______ _______ _____ _____    ______ ____
ROOT
ATOM      1  C   UNL     1       9.462   1.189  21.877  0.00  0.00    +0.412 C 
ATOM      2  F   UNL     1       9.579   0.684  23.128  0.00  0.00    -0.168 F 
ATOM      3  F   UNL     1      10.529   1.999  21.672  0.00  0.00    -0.168 F 
ATOM      4  F   UNL     1       9.564   0.157  21.010  0.00  0.00    -0.168 F 
ENDROOT
BRANCH   1   5
ATOM      5  C   UNL     1       8.152   1.972  21.727  0.00  0.00    +0.269 C 
BRANCH   5   6
ATOM      6  O   UNL     1       8.253   3.368  22.034  0.00  0.00    -0.386 OA
ATOM      7  H   UNL     1       8.255   3.453  23.002  0.00  0.00    +0.210 HD
ENDBRANCH   5   6
ENDBRANCH   1   5
TORSDOF 2
ENDMDL
MODEL 7
REMARK VINA RESULT:      -2.9     12.660     13.300
REMARK  Name = 
REMARK  2 active torsions:
REMARK  status: ('A' for Active; 'I' for Inactive)
REMARK    1  A    between atoms: O_1  and  C_2
REMARK    2  A    between atoms: C_2  and  C_3
REMARK                            x       y       z     vdW  Elec       q    Type
REMARK                         _______ _______ _______ _____ _____    ______ ____
ROOT
ATOM      1  C   UNL     1       6.389  -5.773  21.577  0.00  0.00    +0.412 C 
ATOM      2  F   UNL     1       6.843  -7.000  21.929  0.00  0.00    -0.168 F 
ATOM      3  F   UNL     1       7.428  -4.912  21.701  0.00  0.00    -0.168 F 
ATOM      4  F   UNL     1       6.056  -5.822  20.269  0.00  0.00    -0.168 F 
ENDROOT
BRANCH   1   5
ATOM      5  C   UNL     1       5.224  -5.346  22.478  0.00  0.00    +0.269 C 
BRANCH   5   6
ATOM      6  O   UNL     1       4.186  -6.325  22.615  0.00  0.00    -0.386 OA
ATOM      7  H   UNL     1       4.510  -7.149  22.215  0.00  0.00    +0.210 HD
ENDBRANCH   5   6
ENDBRANCH   1   5
TORSDOF 2
ENDMDL
MODEL 8
REMARK VINA RESULT:      -2.8      5.249      5.908
REMARK  Name = 
REMARK  2 active torsions:
REMARK  status: ('A' for Active; 'I' for Inactive)
REMARK    1  A    between atoms: O_1  and  C_2
REMARK    2  A    between atoms: C_2  and  C_3
REMARK                            x       y       z     vdW  Elec       q    Type
REMARK                         _______ _______ _______ _____ _____    ______ ____
ROOT
ATOM      1  C   UNL     1      10.100   0.048  22.964  0.00  0.00    +0.412 C 
ATOM      2  F   UNL     1      10.690  -1.109  22.578  0.00  0.00    -0.168 F 
ATOM      3  F   UNL     1       9.060  -0.283  23.767  0.00  0.00    -0.168 F 
ATOM      4  F   UNL     1      10.992   0.729  23.717  0.00  0.00    -0.168 F 
ENDROOT
BRANCH   1   5
ATOM      5  C   UNL     1       9.611   0.842  21.747  0.00  0.00    +0.269 C 
BRANCH   5   6
ATOM      6  O   UNL     1      10.192   2.145  21.612  0.00  0.00    -0.386 OA
ATOM      7  H   UNL     1      11.137   2.065  21.823  0.00  0.00    +0.210 HD
ENDBRANCH   5   6
ENDBRANCH   1   5
TORSDOF 2
ENDMDL
MODEL 9
REMARK VINA RESULT:      -2.8      7.354      7.905
REMARK  Name = 
REMARK  2 active torsions:
REMARK  status: ('A' for Active; 'I' for Inactive)
REMARK    1  A    between atoms: O_1  and  C_2
REMARK    2  A    between atoms: C_2  and  C_3
REMARK                            x       y       z     vdW  Elec       q    Type
REMARK                         _______ _______ _______ _____ _____    ______ ____
ROOT
ATOM      1  C   UNL     1       9.631  -1.976  23.788  0.00  0.00    +0.412 C 
ATOM      2  F   UNL     1      10.405  -0.914  24.120  0.00  0.00    -0.168 F 
ATOM      3  F   UNL     1      10.379  -3.089  23.980  0.00  0.00    -0.168 F 
ATOM      4  F   UNL     1       8.605  -2.021  24.666  0.00  0.00    -0.168 F 
ENDROOT
BRANCH   1   5
ATOM      5  C   UNL     1       9.170  -1.878  22.330  0.00  0.00    +0.269 C 
BRANCH   5   6
ATOM      6  O   UNL     1      10.199  -1.513  21.401  0.00  0.00    -0.386 OA
ATOM      7  H   UNL     1      10.564  -0.661  21.693  0.00  0.00    +0.210 HD
ENDBRANCH   5   6
ENDBRANCH   1   5
TORSDOF 2
ENDMDL
