MODEL 1
REMARK VINA RESULT:      -4.7      0.000      0.000
REMARK  Name = 
REMARK  5 active torsions:
REMARK  status: ('A' for Active; 'I' for Inactive)
REMARK    1  A    between atoms: O_1  and  C_2
REMARK    2  A    between atoms: C_2  and  C_3
REMARK    3  A    between atoms: C_8  and  O_10
REMARK    4  A    between atoms: C_11  and  O_13
REMARK    5  A    between atoms: C_14  and  O_16
REMARK                            x       y       z     vdW  Elec       q    Type
REMARK                         _______ _______ _______ _____ _____    ______ ____
ROOT
ATOM      1  C   UNL     1       8.994   0.605  23.098  0.00  0.00    +0.233 C 
ATOM      2  C   UNL     1      10.224  -0.225  23.484  0.00  0.00    +0.189 C 
ATOM      3  C   UNL     1      10.141  -1.617  22.856  0.00  0.00    +0.186 C 
ATOM      4  C   UNL     1       8.825  -2.301  23.221  0.00  0.00    +0.254 C 
ATOM      5  C   UNL     1       7.616  -1.394  23.009  0.00  0.00    +0.339 C 
ATOM      6  O   UNL     1       6.518  -1.856  22.712  0.00  0.00    -0.248 OA
ATOM      7  O   UNL     1       7.750  -0.090  23.342  0.00  0.00    -0.454 OA
ENDROOT
BRANCH   2   8
ATOM      8  O   UNL     1      10.304  -0.282  24.915  0.00  0.00    -0.385 OA
ATOM      9  H   UNL     1      10.325   0.623  25.275  0.00  0.00    +0.210 HD
ENDBRANCH   2   8
BRANCH   3  10
ATOM     10  O   UNL     1      10.285  -1.571  21.437  0.00  0.00    -0.386 OA
ATOM     11  H   UNL     1       9.488  -1.155  21.064  0.00  0.00    +0.210 HD
ENDBRANCH   3  10
BRANCH   4  12
ATOM     12  O   UNL     1       8.870  -2.769  24.573  0.00  0.00    -0.378 OA
ATOM     13  H   UNL     1       9.216  -2.025  25.108  0.00  0.00    +0.211 HD
ENDBRANCH   4  12
BRANCH   1  14
ATOM     14  C   UNL     1       8.973   1.103  21.646  0.00  0.00    +0.203 C 
BRANCH  14  15
ATOM     15  O   UNL     1       9.918   2.144  21.433  0.00  0.00    -0.391 OA
ATOM     16  H   UNL     1       9.933   2.679  22.248  0.00  0.00    +0.210 HD
ENDBRANCH  14  15
ENDBRANCH   1  14
TORSDOF 5
ENDMDL
MODEL 2
REMARK VINA RESULT:      -4.7      1.233      2.562
REMARK  Name = 
REMARK  5 active torsions:
REMARK  status: ('A' for Active; 'I' for Inactive)
REMARK    1  A    between atoms: O_1  and  C_2
REMARK    2  A    between atoms: C_2  and  C_3
REMARK    3  A    between atoms: C_8  and  O_10
REMARK    4  A    between atoms: C_11  and  O_13
REMARK    5  A    between atoms: C_14  and  O_16
REMARK                            x       y       z     vdW  Elec       q    Type
REMARK                         _______ _______ _______ _____ _____    ______ ____
ROOT
ATOM      1  C   UNL     1      10.231   0.524  22.600  0.00  0.00    +0.233 C 
ATOM      2  C   UNL     1       9.412  -0.486  21.788  0.00  0.00    +0.189 C 
ATOM      3  C   UNL     1       8.164  -0.903  22.570  0.00  0.00    +0.186 C 
ATOM      4  C   UNL     1       8.539  -1.419  23.958  0.00  0.00    +0.254 C 
ATOM      5  C   UNL     1       9.509  -0.493  24.685  0.00  0.00    +0.339 C 
ATOM      6  O   UNL     1       9.507  -0.404  25.909  0.00  0.00    -0.248 OA
ATOM      7  O   UNL     1      10.490   0.080  23.951  0.00  0.00    -0.454 OA
ENDROOT
BRANCH   2   8
ATOM      8  O   UNL     1      10.251  -1.606  21.474  0.00  0.00    -0.385 OA
ATOM      9  H   UNL     1      10.249  -2.233  22.221  0.00  0.00    +0.210 HD
ENDBRANCH   2   8
BRANCH   3  10
ATOM     10  O   UNL     1       7.227   0.167  22.688  0.00  0.00    -0.386 OA
ATOM     11  H   UNL     1       7.343   0.758  21.923  0.00  0.00    +0.210 HD
ENDBRANCH   3  10
BRANCH   4  12
ATOM     12  O   UNL     1       9.083  -2.740  23.862  0.00  0.00    -0.378 OA
ATOM     13  H   UNL     1       9.656  -2.857  24.647  0.00  0.00    +0.211 HD
ENDBRANCH   4  12
BRANCH   1  14
ATOM     14  C   UNL     1       9.633   1.936  22.679  0.00  0.00    +0.203 C 
BRANCH  14  15
ATOM     15  O   UNL     1       9.038   2.325  21.448  0.00  0.00    -0.391 OA
ATOM     16  H   UNL     1       8.629   1.526  21.069  0.00  0.00    +0.210 HD
ENDBRANCH  14  15
ENDBRANCH   1  14
TORSDOF 5
ENDMDL
MODEL 3
REMARK VINA RESULT:      -4.7      1.745      3.822
REMARK  Name = 
REMARK  5 active torsions:
REMARK  status: ('A' for Active; 'I' for Inactive)
REMARK    1  A    between atoms: O_1  and  C_2
REMARK    2  A    between atoms: C_2  and  C_3
REMARK    3  A    between atoms: C_8  and  O_10
REMARK    4  A    between atoms: C_11  and  O_13
REMARK    5  A    between atoms: C_14  and  O_16
REMARK                            x       y       z     vdW  Elec       q    Type
REMARK                         _______ _______ _______ _____ _____    ______ ____
ROOT
ATOM      1  C   UNL     1       8.646  -0.204  22.689  0.00  0.00    +0.233 C 
ATOM      2  C   UNL     1       7.906   1.133  22.574  0.00  0.00    +0.189 C 
ATOM      3  C   UNL     1       8.887   2.296  22.737  0.00  0.00    +0.186 C 
ATOM      4  C   UNL     1       9.676   2.163  24.038  0.00  0.00    +0.254 C 
ATOM      5  C   UNL     1      10.253   0.764  24.233  0.00  0.00    +0.339 C 
ATOM      6  O   UNL     1      11.299   0.587  24.852  0.00  0.00    -0.248 OA
ATOM      7  O   UNL     1       9.480  -0.284  23.867  0.00  0.00    -0.454 OA
ENDROOT
BRANCH   2   8
ATOM      8  O   UNL     1       6.864   1.164  23.559  0.00  0.00    -0.385 OA
ATOM      9  H   UNL     1       7.132   1.744  24.295  0.00  0.00    +0.210 HD
ENDBRANCH   2   8
BRANCH   3  10
ATOM     10  O   UNL     1       9.787   2.393  21.634  0.00  0.00    -0.386 OA
ATOM     11  H   UNL     1       9.487   1.777  20.941  0.00  0.00    +0.210 HD
ENDBRANCH   3  10
BRANCH   4  12
ATOM     12  O   UNL     1       8.853   2.527  25.152  0.00  0.00    -0.378 OA
ATOM     13  H   UNL     1       8.028   2.894  24.775  0.00  0.00    +0.211 HD
ENDBRANCH   4  12
BRANCH   1  14
ATOM     14  C   UNL     1       9.514  -0.577  21.478  0.00  0.00    +0.203 C 
BRANCH  14  15
ATOM     15  O   UNL     1      10.357  -1.687  21.757  0.00  0.00    -0.391 OA
ATOM     16  H   UNL     1      10.854  -1.465  22.565  0.00  0.00    +0.210 HD
ENDBRANCH  14  15
ENDBRANCH   1  14
TORSDOF 5
ENDMDL
MODEL 4
REMARK VINA RESULT:      -4.6      1.438      3.909
REMARK  Name = 
REMARK  5 active torsions:
REMARK  status: ('A' for Active; 'I' for Inactive)
REMARK    1  A    between atoms: O_1  and  C_2
REMARK    2  A    between atoms: C_2  and  C_3
REMARK    3  A    between atoms: C_8  and  O_10
REMARK    4  A    between atoms: C_11  and  O_13
REMARK    5  A    between atoms: C_14  and  O_16
REMARK                            x       y       z     vdW  Elec       q    Type
REMARK                         _______ _______ _______ _____ _____    ______ ____
ROOT
ATOM      1  C   UNL     1       8.566  -0.344  24.005  0.00  0.00    +0.233 C 
ATOM      2  C   UNL     1       8.024  -0.370  22.571  0.00  0.00    +0.189 C 
ATOM      3  C   UNL     1       9.126   0.017  21.583  0.00  0.00    +0.186 C 
ATOM      4  C   UNL     1       9.749   1.360  21.960  0.00  0.00    +0.254 C 
ATOM      5  C   UNL     1      10.113   1.441  23.440  0.00  0.00    +0.339 C 
ATOM      6  O   UNL     1      11.055   2.127  23.826  0.00  0.00    -0.248 OA
ATOM      7  O   UNL     1       9.252   0.887  24.324  0.00  0.00    -0.454 OA
ENDROOT
BRANCH   2   8
ATOM      8  O   UNL     1       6.897   0.514  22.494  0.00  0.00    -0.385 OA
ATOM      9  H   UNL     1       6.876   1.082  23.286  0.00  0.00    +0.210 HD
ENDBRANCH   2   8
BRANCH   3  10
ATOM     10  O   UNL     1      10.143  -0.982  21.502  0.00  0.00    -0.386 OA
ATOM     11  H   UNL     1       9.710  -1.851  21.420  0.00  0.00    +0.210 HD
ENDBRANCH   3  10
BRANCH   4  12
ATOM     12  O   UNL     1       8.868   2.430  21.600  0.00  0.00    -0.378 OA
ATOM     13  H   UNL     1       8.878   2.474  20.622  0.00  0.00    +0.211 HD
ENDBRANCH   4  12
BRANCH   1  14
ATOM     14  C   UNL     1       9.500  -1.507  24.370  0.00  0.00    +0.203 C 
BRANCH  14  15
ATOM     15  O   UNL     1       9.121  -2.711  23.716  0.00  0.00    -0.391 OA
ATOM     16  H   UNL     1       9.489  -2.668  22.814  0.00  0.00    +0.210 HD
ENDBRANCH  14  15
ENDBRANCH   1  14
TORSDOF 5
ENDMDL
MODEL 5
REMARK VINA RESULT:      -4.6      1.638      3.324
REMARK  Name = 
REMARK  5 active torsions:
REMARK  status: ('A' for Active; 'I' for Inactive)
REMARK    1  A    between atoms: O_1  and  C_2
REMARK    2  A    between atoms: C_2  and  C_3
REMARK    3  A    between atoms: C_8  and  O_10
REMARK    4  A    between atoms: C_11  and  O_13
REMARK    5  A    between atoms: C_14  and  O_16
REMARK                            x       y       z     vdW  Elec       q    Type
REMARK                         _______ _______ _______ _____ _____    ______ ____
ROOT
ATOM      1  C   UNL     1       8.914   0.242  21.808  0.00  0.00    +0.233 C 
ATOM      2  C   UNL     1      10.130   1.086  22.208  0.00  0.00    +0.189 C 
ATOM      3  C   UNL     1      10.236   1.168  23.732  0.00  0.00    +0.186 C 
ATOM      4  C   UNL     1       8.932   1.678  24.342  0.00  0.00    +0.254 C 
ATOM      5  C   UNL     1       7.706   0.954  23.792  0.00  0.00    +0.339 C 
ATOM      6  O   UNL     1       6.698   0.800  24.476  0.00  0.00    -0.248 OA
ATOM      7  O   UNL     1       7.699   0.658  22.472  0.00  0.00    -0.454 OA
ENDROOT
BRANCH   2   8
ATOM      8  O   UNL     1      10.004   2.381  21.606  0.00  0.00    -0.385 OA
ATOM      9  H   UNL     1       9.568   2.989  22.231  0.00  0.00    +0.210 HD
ENDBRANCH   2   8
BRANCH   3  10
ATOM     10  O   UNL     1      10.582  -0.090  24.312  0.00  0.00    -0.386 OA
ATOM     11  H   UNL     1       9.995  -0.770  23.934  0.00  0.00    +0.210 HD
ENDBRANCH   3  10
BRANCH   4  12
ATOM     12  O   UNL     1       8.813   3.091  24.142  0.00  0.00    -0.378 OA
ATOM     13  H   UNL     1       8.301   3.207  23.315  0.00  0.00    +0.211 HD
ENDBRANCH   4  12
BRANCH   1  14
ATOM     14  C   UNL     1       9.069  -1.270  22.023  0.00  0.00    +0.203 C 
BRANCH  14  15
ATOM     15  O   UNL     1      10.401  -1.702  21.776  0.00  0.00    -0.391 OA
ATOM     16  H   UNL     1      10.420  -2.662  21.943  0.00  0.00    +0.210 HD
ENDBRANCH  14  15
ENDBRANCH   1  14
TORSDOF 5
ENDMDL
MODEL 6
REMARK VINA RESULT:      -4.5      3.253      4.532
REMARK  Name = 
REMARK  5 active torsions:
REMARK  status: ('A' for Active; 'I' for Inactive)
REMARK    1  A    between atoms: O_1  and  C_2
REMARK    2  A    between atoms: C_2  and  C_3
REMARK    3  A    between atoms: C_8  and  O_10
REMARK    4  A    between atoms: C_11  and  O_13
REMARK    5  A    between atoms: C_14  and  O_16
REMARK                            x       y       z     vdW  Elec       q    Type
REMARK                         _______ _______ _______ _____ _____    ______ ____
ROOT
ATOM      1  C   UNL     1       8.150  -2.573  25.219  0.00  0.00    +0.233 C 
ATOM      2  C   UNL     1       8.721  -3.267  23.977  0.00  0.00    +0.189 C 
ATOM      3  C   UNL     1       8.261  -4.726  23.930  0.00  0.00    +0.186 C 
ATOM      4  C   UNL     1       8.610  -5.449  25.229  0.00  0.00    +0.254 C 
ATOM      5  C   UNL     1       8.204  -4.656  26.468  0.00  0.00    +0.339 C 
ATOM      6  O   UNL     1       7.887  -5.222  27.510  0.00  0.00    -0.248 OA
ATOM      7  O   UNL     1       8.386  -3.316  26.436  0.00  0.00    -0.454 OA
ENDROOT
BRANCH   2   8
ATOM      8  O   UNL     1      10.150  -3.153  24.007  0.00  0.00    -0.385 OA
ATOM      9  H   UNL     1      10.458  -3.181  24.932  0.00  0.00    +0.210 HD
ENDBRANCH   2   8
BRANCH   3  10
ATOM     10  O   UNL     1       6.860  -4.836  23.677  0.00  0.00    -0.386 OA
ATOM     11  H   UNL     1       6.588  -4.072  23.137  0.00  0.00    +0.210 HD
ENDBRANCH   3  10
BRANCH   4  12
ATOM     12  O   UNL     1      10.009  -5.752  25.264  0.00  0.00    -0.378 OA
ATOM     13  H   UNL     1      10.356  -5.352  26.087  0.00  0.00    +0.211 HD
ENDBRANCH   4  12
BRANCH   1  14
ATOM     14  C   UNL     1       6.650  -2.249  25.154  0.00  0.00    +0.203 C 
BRANCH  14  15
ATOM     15  O   UNL     1       6.249  -1.874  23.842  0.00  0.00    -0.391 OA
ATOM     16  H   UNL     1       6.835  -1.145  23.568  0.00  0.00    +0.210 HD
ENDBRANCH  14  15
ENDBRANCH   1  14
TORSDOF 5
ENDMDL
MODEL 7
REMARK VINA RESULT:      -4.4      1.403      3.313
REMARK  Name = 
REMARK  5 active torsions:
REMARK  status: ('A' for Active; 'I' for Inactive)
REMARK    1  A    between atoms: O_1  and  C_2
REMARK    2  A    between atoms: C_2  and  C_3
REMARK    3  A    between atoms: C_8  and  O_10
REMARK    4  A    between atoms: C_11  and  O_13
REMARK    5  A    between atoms: C_14  and  O_16
REMARK                            x       y       z     vdW  Elec       q    Type
REMARK                         _______ _______ _______ _____ _____    ______ ____
ROOT
ATOM      1  C   UNL     1       9.541   0.231  24.544  0.00  0.00    +0.233 C 
ATOM      2  C   UNL     1       8.998   0.692  23.186  0.00  0.00    +0.189 C 
ATOM      3  C   UNL     1       8.251  -0.453  22.500  0.00  0.00    +0.186 C 
ATOM      4  C   UNL     1       9.134  -1.695  22.396  0.00  0.00    +0.254 C 
ATOM      5  C   UNL     1       9.821  -2.036  23.715  0.00  0.00    +0.339 C 
ATOM      6  O   UNL     1      10.096  -3.196  24.008  0.00  0.00    -0.248 OA
ATOM      7  O   UNL     1      10.284  -1.006  24.460  0.00  0.00    -0.454 OA
ENDROOT
BRANCH   2   8
ATOM      8  O   UNL     1      10.095   1.171  22.395  0.00  0.00    -0.385 OA
ATOM      9  H   UNL     1      10.513   1.927  22.845  0.00  0.00    +0.210 HD
ENDBRANCH   2   8
BRANCH   3  10
ATOM     10  O   UNL     1       7.036  -0.778  23.176  0.00  0.00    -0.386 OA
ATOM     11  H   UNL     1       6.295  -0.407  22.665  0.00  0.00    +0.210 HD
ENDBRANCH   3  10
BRANCH   4  12
ATOM     12  O   UNL     1      10.102  -1.526  21.355  0.00  0.00    -0.378 OA
ATOM     13  H   UNL     1      10.972  -1.731  21.754  0.00  0.00    +0.211 HD
ENDBRANCH   4  12
BRANCH   1  14
ATOM     14  C   UNL     1       8.486   0.067  25.647  0.00  0.00    +0.203 C 
BRANCH  14  15
ATOM     15  O   UNL     1       9.071  -0.336  26.879  0.00  0.00    -0.391 OA
ATOM     16  H   UNL     1       9.952  -0.695  26.666  0.00  0.00    +0.210 HD
ENDBRANCH  14  15
ENDBRANCH   1  14
TORSDOF 5
ENDMDL
MODEL 8
REMARK VINA RESULT:      -4.4      1.547      2.581
REMARK  Name = 
REMARK  5 active torsions:
REMARK  status: ('A' for Active; 'I' for Inactive)
REMARK    1  A    between atoms: O_1  and  C_2
REMARK    2  A    between atoms: C_2  and  C_3
REMARK    3  A    between atoms: C_8  and  O_10
REMARK    4  A    between atoms: C_11  and  O_13
REMARK    5  A    between atoms: C_14  and  O_16
REMARK                            x       y       z     vdW  Elec       q    Type
REMARK                         _______ _______ _______ _____ _____    ______ ____
ROOT
ATOM      1  C   UNL     1       8.449   0.353  22.652  0.00  0.00    +0.233 C 
ATOM      2  C   UNL     1       8.475   1.294  23.861  0.00  0.00    +0.189 C 
ATOM      3  C   UNL     1       9.706   1.012  24.725  0.00  0.00    +0.186 C 
ATOM      4  C   UNL     1       9.768  -0.463  25.117  0.00  0.00    +0.254 C 
ATOM      5  C   UNL     1       9.553  -1.395  23.929  0.00  0.00    +0.339 C 
ATOM      6  O   UNL     1      10.076  -2.505  23.887  0.00  0.00    -0.248 OA
ATOM      7  O   UNL     1       8.620  -1.035  23.017  0.00  0.00    -0.454 OA
ENDROOT
BRANCH   2   8
ATOM      8  O   UNL     1       7.253   1.129  24.594  0.00  0.00    -0.385 OA
ATOM      9  H   UNL     1       6.979   0.194  24.560  0.00  0.00    +0.210 HD
ENDBRANCH   2   8
BRANCH   3  10
ATOM     10  O   UNL     1      10.916   1.389  24.068  0.00  0.00    -0.386 OA
ATOM     11  H   UNL     1      11.564   1.645  24.748  0.00  0.00    +0.210 HD
ENDBRANCH   3  10
BRANCH   4  12
ATOM     12  O   UNL     1       8.817  -0.738  26.151  0.00  0.00    -0.378 OA
ATOM     13  H   UNL     1       8.311   0.089  26.284  0.00  0.00    +0.211 HD
ENDBRANCH   4  12
BRANCH   1  14
ATOM     14  C   UNL     1       9.472   0.675  21.553  0.00  0.00    +0.203 C 
BRANCH  14  15
ATOM     15  O   UNL     1       9.689   2.075  21.429  0.00  0.00    -0.391 OA
ATOM     16  H   UNL     1       8.851   2.510  21.670  0.00  0.00    +0.210 HD
ENDBRANCH  14  15
ENDBRANCH   1  14
TORSDOF 5
ENDMDL
MODEL 9
REMARK VINA RESULT:      -4.4      1.226      3.712
REMARK  Name = 
REMARK  5 active torsions:
REMARK  status: ('A' for Active; 'I' for Inactive)
REMARK    1  A    between atoms: O_1  and  C_2
REMARK    2  A    between atoms: C_2  and  C_3
REMARK    3  A    between atoms: C_8  and  O_10
REMARK    4  A    between atoms: C_11  and  O_13
REMARK    5  A    between atoms: C_14  and  O_16
REMARK                            x       y       z     vdW  Elec       q    Type
REMARK                         _______ _______ _______ _____ _____    ______ ____
ROOT
ATOM      1  C   UNL     1       8.214  -0.794  22.910  0.00  0.00    +0.233 C 
ATOM      2  C   UNL     1       9.702  -0.825  22.540  0.00  0.00    +0.189 C 
ATOM      3  C   UNL     1      10.433   0.352  23.188  0.00  0.00    +0.186 C 
ATOM      4  C   UNL     1       9.758   1.675  22.830  0.00  0.00    +0.254 C 
ATOM      5  C   UNL     1       8.246   1.633  23.025  0.00  0.00    +0.339 C 
ATOM      6  O   UNL     1       7.614   2.642  23.326  0.00  0.00    -0.248 OA
ATOM      7  O   UNL     1       7.605   0.495  22.673  0.00  0.00    -0.454 OA
ENDROOT
BRANCH   2   8
ATOM      8  O   UNL     1       9.816  -0.810  21.110  0.00  0.00    -0.385 OA
ATOM      9  H   UNL     1      10.642  -1.255  20.846  0.00  0.00    +0.210 HD
ENDBRANCH   2   8
BRANCH   3  10
ATOM     10  O   UNL     1      10.508   0.217  24.607  0.00  0.00    -0.386 OA
ATOM     11  H   UNL     1       9.624  -0.025  24.937  0.00  0.00    +0.210 HD
ENDBRANCH   3  10
BRANCH   4  12
ATOM     12  O   UNL     1      10.081   2.044  21.485  0.00  0.00    -0.378 OA
ATOM     13  H   UNL     1      10.976   1.688  21.310  0.00  0.00    +0.211 HD
ENDBRANCH   4  12
BRANCH   1  14
ATOM     14  C   UNL     1       7.893  -1.203  24.355  0.00  0.00    +0.203 C 
BRANCH  14  15
ATOM     15  O   UNL     1       8.771  -2.220  24.821  0.00  0.00    -0.391 OA
ATOM     16  H   UNL     1       8.714  -2.953  24.182  0.00  0.00    +0.210 HD
ENDBRANCH  14  15
ENDBRANCH   1  14
TORSDOF 5
ENDMDL
