MODEL 1
REMARK VINA RESULT:      -4.1      0.000      0.000
REMARK  Name = 
REMARK  7 active torsions:
REMARK  status: ('A' for Active; 'I' for Inactive)
REMARK    1  A    between atoms: N_1  and  C_2
REMARK    2  A    between atoms: C_2  and  C_3
REMARK    3  A    between atoms: C_3  and  C_4
REMARK    4  A    between atoms: C_4  and  CA_5
REMARK    5  A    between atoms: CA_5  and  N_7
REMARK    6  A    between atoms: CA_5  and  C_8
REMARK    7  A    between atoms: C_8  and  O_9
REMARK                            x       y       z     vdW  Elec       q    Type
REMARK                         _______ _______ _______ _____ _____    ______ ____
ROOT
ATOM      1  CA  UNL     1       9.107  -4.618  25.533  0.00  0.00    +0.161 C 
ENDROOT
BRANCH   1   2
ATOM      2  N   UNL     1      10.197  -5.618  25.365  0.00  0.00    -0.318 NA
ATOM      3  H1  UNL     1      10.328  -6.098  26.261  0.00  0.00    +0.119 HD
ATOM      4  H2  UNL     1       9.858  -6.351  24.733  0.00  0.00    +0.119 HD
ENDBRANCH   1   2
BRANCH   1   5
ATOM      5  C   UNL     1       7.875  -5.321  26.122  0.00  0.00    +0.322 C 
ATOM      6  OXT UNL     1       6.805  -5.456  25.552  0.00  0.00    -0.249 OA
BRANCH   5   7
ATOM      7  O   UNL     1       8.134  -5.807  27.365  0.00  0.00    -0.480 OA
ATOM      8  H   UNL     1       8.281  -5.015  27.942  0.00  0.00    +0.295 HD
ENDBRANCH   5   7
ENDBRANCH   1   5
BRANCH   1   9
ATOM      9  C   UNL     1       8.756  -3.916  24.215  0.00  0.00    +0.031 C 
BRANCH   9  10
ATOM     10  C   UNL     1       9.563  -2.645  23.922  0.00  0.00    +0.017 C 
BRANCH  10  11
ATOM     11  C   UNL     1       9.080  -1.983  22.629  0.00  0.00    +0.078 C 
BRANCH  11  12
ATOM     12  N   UNL     1      10.213  -1.602  21.794  0.00  0.00    -0.330 NA
ATOM     13  H   UNL     1      10.178  -0.597  21.605  0.00  0.00    +0.118 HD
ATOM     14  H   UNL     1      11.081  -1.757  22.305  0.00  0.00    +0.118 HD
ENDBRANCH  11  12
ENDBRANCH  10  11
ENDBRANCH   9  10
ENDBRANCH   1   9
TORSDOF 7
ENDMDL
MODEL 2
REMARK VINA RESULT:      -4.0      5.653      6.757
REMARK  Name = 
REMARK  7 active torsions:
REMARK  status: ('A' for Active; 'I' for Inactive)
REMARK    1  A    between atoms: N_1  and  C_2
REMARK    2  A    between atoms: C_2  and  C_3
REMARK    3  A    between atoms: C_3  and  C_4
REMARK    4  A    between atoms: C_4  and  CA_5
REMARK    5  A    between atoms: CA_5  and  N_7
REMARK    6  A    between atoms: CA_5  and  C_8
REMARK    7  A    between atoms: C_8  and  O_9
REMARK                            x       y       z     vdW  Elec       q    Type
REMARK                         _______ _______ _______ _____ _____    ______ ____
ROOT
ATOM      1  CA  UNL     1       9.813   1.659  24.023  0.00  0.00    +0.161 C 
ENDROOT
BRANCH   1   2
ATOM      2  N   UNL     1       8.431   1.386  23.538  0.00  0.00    -0.318 NA
ATOM      3  H1  UNL     1       7.776   1.883  24.150  0.00  0.00    +0.119 HD
ATOM      4  H2  UNL     1       8.320   1.844  22.627  0.00  0.00    +0.119 HD
ENDBRANCH   1   2
BRANCH   1   5
ATOM      5  C   UNL     1      10.512   2.597  23.027  0.00  0.00    +0.322 C 
ATOM      6  OXT UNL     1      11.241   3.526  23.331  0.00  0.00    -0.249 OA
BRANCH   5   7
ATOM      7  O   UNL     1      10.236   2.243  21.743  0.00  0.00    -0.480 OA
ATOM      8  H   UNL     1      11.075   2.384  21.236  0.00  0.00    +0.295 HD
ENDBRANCH   5   7
ENDBRANCH   1   5
BRANCH   1   9
ATOM      9  C   UNL     1      10.623   0.371  24.220  0.00  0.00    +0.031 C 
BRANCH   9  10
ATOM     10  C   UNL     1       9.881  -0.922  23.862  0.00  0.00    +0.017 C 
BRANCH  10  11
ATOM     11  C   UNL     1      10.379  -1.481  22.527  0.00  0.00    +0.078 C 
BRANCH  11  12
ATOM     12  N   UNL     1       9.756  -0.778  21.413  0.00  0.00    -0.330 NA
ATOM     13  H   UNL     1      10.400  -0.751  20.619  0.00  0.00    +0.118 HD
ATOM     14  H   UNL     1       8.941  -1.300  21.092  0.00  0.00    +0.118 HD
ENDBRANCH  11  12
ENDBRANCH  10  11
ENDBRANCH   9  10
ENDBRANCH   1   9
TORSDOF 7
ENDMDL
MODEL 3
REMARK VINA RESULT:      -3.9      4.144      5.113
REMARK  Name = 
REMARK  7 active torsions:
REMARK  status: ('A' for Active; 'I' for Inactive)
REMARK    1  A    between atoms: N_1  and  C_2
REMARK    2  A    between atoms: C_2  and  C_3
REMARK    3  A    between atoms: C_3  and  C_4
REMARK    4  A    between atoms: C_4  and  CA_5
REMARK    5  A    between atoms: CA_5  and  N_7
REMARK    6  A    between atoms: CA_5  and  C_8
REMARK    7  A    between atoms: C_8  and  O_9
REMARK                            x       y       z     vdW  Elec       q    Type
REMARK                         _______ _______ _______ _____ _____    ______ ____
ROOT
ATOM      1  CA  UNL     1       9.661  -0.482  23.862  0.00  0.00    +0.161 C 
ENDROOT
BRANCH   1   2
ATOM      2  N   UNL     1       9.200  -1.168  25.101  0.00  0.00    -0.318 NA
ATOM      3  H1  UNL     1       8.245  -0.855  25.300  0.00  0.00    +0.119 HD
ATOM      4  H2  UNL     1       9.100  -2.166  24.890  0.00  0.00    +0.119 HD
ENDBRANCH   1   2
BRANCH   1   5
ATOM      5  C   UNL     1      10.127  -1.541  22.852  0.00  0.00    +0.322 C 
ATOM      6  OXT UNL     1      10.489  -2.671  23.137  0.00  0.00    -0.249 OA
BRANCH   5   7
ATOM      7  O   UNL     1      10.062  -1.069  21.579  0.00  0.00    -0.480 OA
ATOM      8  H   UNL     1       9.528  -0.236  21.625  0.00  0.00    +0.295 HD
ENDBRANCH   5   7
ENDBRANCH   1   5
BRANCH   1   9
ATOM      9  C   UNL     1      10.778   0.533  24.143  0.00  0.00    +0.031 C 
BRANCH   9  10
ATOM     10  C   UNL     1      10.374   2.003  23.980  0.00  0.00    +0.017 C 
BRANCH  10  11
ATOM     11  C   UNL     1       9.348   2.161  22.856  0.00  0.00    +0.078 C 
BRANCH  11  12
ATOM     12  N   UNL     1      10.001   2.113  21.554  0.00  0.00    -0.330 NA
ATOM     13  H   UNL     1      10.758   1.426  21.574  0.00  0.00    +0.118 HD
ATOM     14  H   UNL     1       9.341   1.778  20.853  0.00  0.00    +0.118 HD
ENDBRANCH  11  12
ENDBRANCH  10  11
ENDBRANCH   9  10
ENDBRANCH   1   9
TORSDOF 7
ENDMDL
MODEL 4
REMARK VINA RESULT:      -3.9      3.451      4.586
REMARK  Name = 
REMARK  7 active torsions:
REMARK  status: ('A' for Active; 'I' for Inactive)
REMARK    1  A    between atoms: N_1  and  C_2
REMARK    2  A    between atoms: C_2  and  C_3
REMARK    3  A    between atoms: C_3  and  C_4
REMARK    4  A    between atoms: C_4  and  CA_5
REMARK    5  A    between atoms: CA_5  and  N_7
REMARK    6  A    between atoms: CA_5  and  C_8
REMARK    7  A    between atoms: C_8  and  O_9
REMARK                            x       y       z     vdW  Elec       q    Type
REMARK                         _______ _______ _______ _____ _____    ______ ____
ROOT
ATOM      1  CA  UNL     1      10.206  -1.193  22.933  0.00  0.00    +0.161 C 
ENDROOT
BRANCH   1   2
ATOM      2  N   UNL     1       9.905  -0.962  21.492  0.00  0.00    -0.318 NA
ATOM      3  H1  UNL     1      10.577  -0.277  21.134  0.00  0.00    +0.119 HD
ATOM      4  H2  UNL     1      10.127  -1.823  20.982  0.00  0.00    +0.119 HD
ENDBRANCH   1   2
BRANCH   1   5
ATOM      5  C   UNL     1       9.558  -2.515  23.369  0.00  0.00    +0.322 C 
ATOM      6  OXT UNL     1      10.063  -3.328  24.126  0.00  0.00    -0.249 OA
BRANCH   5   7
ATOM      7  O   UNL     1       8.322  -2.660  22.822  0.00  0.00    -0.480 OA
ATOM      8  H   UNL     1       7.695  -2.740  23.584  0.00  0.00    +0.295 HD
ENDBRANCH   5   7
ENDBRANCH   1   5
BRANCH   1   9
ATOM      9  C   UNL     1       9.730  -0.033  23.818  0.00  0.00    +0.031 C 
BRANCH   9  10
ATOM     10  C   UNL     1      10.689   1.161  23.893  0.00  0.00    +0.017 C 
BRANCH  10  11
ATOM     11  C   UNL     1      10.096   2.378  23.180  0.00  0.00    +0.078 C 
BRANCH  11  12
ATOM     12  N   UNL     1      10.141   2.198  21.734  0.00  0.00    -0.330 NA
ATOM     13  H   UNL     1      10.370   3.088  21.284  0.00  0.00    +0.118 HD
ATOM     14  H   UNL     1      10.900   1.562  21.493  0.00  0.00    +0.118 HD
ENDBRANCH  11  12
ENDBRANCH  10  11
ENDBRANCH   9  10
ENDBRANCH   1   9
TORSDOF 7
ENDMDL
MODEL 5
REMARK VINA RESULT:      -3.9      5.719      7.046
REMARK  Name = 
REMARK  7 active torsions:
REMARK  status: ('A' for Active; 'I' for Inactive)
REMARK    1  A    between atoms: N_1  and  C_2
REMARK    2  A    between atoms: C_2  and  C_3
REMARK    3  A    between atoms: C_3  and  C_4
REMARK    4  A    between atoms: C_4  and  CA_5
REMARK    5  A    between atoms: CA_5  and  N_7
REMARK    6  A    between atoms: CA_5  and  C_8
REMARK    7  A    between atoms: C_8  and  O_9
REMARK                            x       y       z     vdW  Elec       q    Type
REMARK                         _______ _______ _______ _____ _____    ______ ____
ROOT
ATOM      1  CA  UNL     1       9.613   1.848  22.978  0.00  0.00    +0.161 C 
ENDROOT
BRANCH   1   2
ATOM      2  N   UNL     1       9.802   1.898  21.502  0.00  0.00    -0.318 NA
ATOM      3  H1  UNL     1       9.122   1.262  21.074  0.00  0.00    +0.119 HD
ATOM      4  H2  UNL     1       9.515   2.828  21.178  0.00  0.00    +0.119 HD
ENDBRANCH   1   2
BRANCH   1   5
ATOM      5  C   UNL     1       9.968   3.221  23.570  0.00  0.00    +0.322 C 
ATOM      6  OXT UNL     1       9.329   3.800  24.433  0.00  0.00    -0.249 OA
BRANCH   5   7
ATOM      7  O   UNL     1      11.114   3.709  23.025  0.00  0.00    -0.480 OA
ATOM      8  H   UNL     1      11.563   2.936  22.597  0.00  0.00    +0.295 HD
ENDBRANCH   5   7
ENDBRANCH   1   5
BRANCH   1   9
ATOM      9  C   UNL     1      10.449   0.740  23.633  0.00  0.00    +0.031 C 
BRANCH   9  10
ATOM     10  C   UNL     1       9.757  -0.625  23.725  0.00  0.00    +0.017 C 
BRANCH  10  11
ATOM     11  C   UNL     1      10.403  -1.626  22.765  0.00  0.00    +0.078 C 
BRANCH  11  12
ATOM     12  N   UNL     1       9.976  -1.374  21.395  0.00  0.00    -0.330 NA
ATOM     13  H   UNL     1      10.500  -1.974  20.755  0.00  0.00    +0.118 HD
ATOM     14  H   UNL     1       8.998  -1.641  21.288  0.00  0.00    +0.118 HD
ENDBRANCH  11  12
ENDBRANCH  10  11
ENDBRANCH   9  10
ENDBRANCH   1   9
TORSDOF 7
ENDMDL
MODEL 6
REMARK VINA RESULT:      -3.8      4.864      6.205
REMARK  Name = 
REMARK  7 active torsions:
REMARK  status: ('A' for Active; 'I' for Inactive)
REMARK    1  A    between atoms: N_1  and  C_2
REMARK    2  A    between atoms: C_2  and  C_3
REMARK    3  A    between atoms: C_3  and  C_4
REMARK    4  A    between atoms: C_4  and  CA_5
REMARK    5  A    between atoms: CA_5  and  N_7
REMARK    6  A    between atoms: CA_5  and  C_8
REMARK    7  A    between atoms: C_8  and  O_9
REMARK                            x       y       z     vdW  Elec       q    Type
REMARK                         _______ _______ _______ _____ _____    ______ ____
ROOT
ATOM      1  CA  UNL     1       9.277   0.008  22.219  0.00  0.00    +0.161 C 
ENDROOT
BRANCH   1   2
ATOM      2  N   UNL     1       9.622  -0.890  21.082  0.00  0.00    -0.318 NA
ATOM      3  H1  UNL     1       8.796  -1.453  20.860  0.00  0.00    +0.119 HD
ATOM      4  H2  UNL     1       9.760  -0.306  20.249  0.00  0.00    +0.119 HD
ENDBRANCH   1   2
BRANCH   1   5
ATOM      5  C   UNL     1       9.022   1.422  21.674  0.00  0.00    +0.322 C 
ATOM      6  OXT UNL     1       7.926   1.880  21.397  0.00  0.00    -0.249 OA
BRANCH   5   7
ATOM      7  O   UNL     1      10.183   2.122  21.563  0.00  0.00    -0.480 OA
ATOM      8  H   UNL     1       9.974   2.905  20.994  0.00  0.00    +0.295 HD
ENDBRANCH   5   7
ENDBRANCH   1   5
BRANCH   1   9
ATOM      9  C   UNL     1      10.371   0.027  23.295  0.00  0.00    +0.031 C 
BRANCH   9  10
ATOM     10  C   UNL     1       9.941  -0.510  24.665  0.00  0.00    +0.017 C 
BRANCH  10  11
ATOM     11  C   UNL     1       9.259  -1.873  24.523  0.00  0.00    +0.078 C 
BRANCH  11  12
ATOM     12  N   UNL     1      10.121  -2.806  23.807  0.00  0.00    -0.330 NA
ATOM     13  H   UNL     1      10.099  -2.595  22.807  0.00  0.00    +0.118 HD
ATOM     14  H   UNL     1      11.089  -2.668  24.098  0.00  0.00    +0.118 HD
ENDBRANCH  11  12
ENDBRANCH  10  11
ENDBRANCH   9  10
ENDBRANCH   1   9
TORSDOF 7
ENDMDL
MODEL 7
REMARK VINA RESULT:      -3.8      2.304      2.904
REMARK  Name = 
REMARK  7 active torsions:
REMARK  status: ('A' for Active; 'I' for Inactive)
REMARK    1  A    between atoms: N_1  and  C_2
REMARK    2  A    between atoms: C_2  and  C_3
REMARK    3  A    between atoms: C_3  and  C_4
REMARK    4  A    between atoms: C_4  and  CA_5
REMARK    5  A    between atoms: CA_5  and  N_7
REMARK    6  A    between atoms: CA_5  and  C_8
REMARK    7  A    between atoms: C_8  and  O_9
REMARK                            x       y       z     vdW  Elec       q    Type
REMARK                         _______ _______ _______ _____ _____    ______ ____
ROOT
ATOM      1  CA  UNL     1       9.184  -4.531  25.309  0.00  0.00    +0.161 C 
ENDROOT
BRANCH   1   2
ATOM      2  N   UNL     1       9.985  -5.784  25.229  0.00  0.00    -0.318 NA
ATOM      3  H1  UNL     1      10.880  -5.619  25.699  0.00  0.00    +0.119 HD
ATOM      4  H2  UNL     1       9.522  -6.491  25.810  0.00  0.00    +0.119 HD
ENDBRANCH   1   2
BRANCH   1   5
ATOM      5  C   UNL     1       8.216  -4.636  26.497  0.00  0.00    +0.322 C 
ATOM      6  OXT UNL     1       7.502  -3.734  26.902  0.00  0.00    -0.249 OA
BRANCH   5   7
ATOM      7  O   UNL     1       8.232  -5.885  27.034  0.00  0.00    -0.480 OA
ATOM      8  H   UNL     1       7.398  -5.964  27.562  0.00  0.00    +0.295 HD
ENDBRANCH   5   7
ENDBRANCH   1   5
BRANCH   1   9
ATOM      9  C   UNL     1       8.423  -4.245  24.008  0.00  0.00    +0.031 C 
BRANCH   9  10
ATOM     10  C   UNL     1       7.260  -5.201  23.715  0.00  0.00    +0.017 C 
BRANCH  10  11
ATOM     11  C   UNL     1       7.240  -5.593  22.235  0.00  0.00    +0.078 C 
BRANCH  11  12
ATOM     12  N   UNL     1       6.195  -6.575  21.978  0.00  0.00    -0.330 NA
ATOM     13  H   UNL     1       6.378  -7.422  22.522  0.00  0.00    +0.118 HD
ATOM     14  H   UNL     1       5.301  -6.218  22.314  0.00  0.00    +0.118 HD
ENDBRANCH  11  12
ENDBRANCH  10  11
ENDBRANCH   9  10
ENDBRANCH   1   9
TORSDOF 7
ENDMDL
MODEL 8
REMARK VINA RESULT:      -3.8      2.611      2.949
REMARK  Name = 
REMARK  7 active torsions:
REMARK  status: ('A' for Active; 'I' for Inactive)
REMARK    1  A    between atoms: N_1  and  C_2
REMARK    2  A    between atoms: C_2  and  C_3
REMARK    3  A    between atoms: C_3  and  C_4
REMARK    4  A    between atoms: C_4  and  CA_5
REMARK    5  A    between atoms: CA_5  and  N_7
REMARK    6  A    between atoms: CA_5  and  C_8
REMARK    7  A    between atoms: C_8  and  O_9
REMARK                            x       y       z     vdW  Elec       q    Type
REMARK                         _______ _______ _______ _____ _____    ______ ____
ROOT
ATOM      1  CA  UNL     1       8.177  -5.346  25.398  0.00  0.00    +0.161 C 
ENDROOT
BRANCH   1   2
ATOM      2  N   UNL     1       8.160  -5.681  26.850  0.00  0.00    -0.318 NA
ATOM      3  H1  UNL     1       8.911  -5.153  27.306  0.00  0.00    +0.119 HD
ATOM      4  H2  UNL     1       7.300  -5.293  27.253  0.00  0.00    +0.119 HD
ENDBRANCH   1   2
BRANCH   1   5
ATOM      5  C   UNL     1       9.559  -4.780  25.036  0.00  0.00    +0.322 C 
ATOM      6  OXT UNL     1       9.754  -3.763  24.393  0.00  0.00    -0.249 OA
BRANCH   5   7
ATOM      7  O   UNL     1      10.555  -5.550  25.551  0.00  0.00    -0.480 OA
ATOM      8  H   UNL     1      11.402  -5.118  25.276  0.00  0.00    +0.295 HD
ENDBRANCH   5   7
ENDBRANCH   1   5
BRANCH   1   9
ATOM      9  C   UNL     1       7.067  -4.358  25.019  0.00  0.00    +0.031 C 
BRANCH   9  10
ATOM     10  C   UNL     1       6.141  -4.826  23.889  0.00  0.00    +0.017 C 
BRANCH  10  11
ATOM     11  C   UNL     1       6.855  -4.751  22.538  0.00  0.00    +0.078 C 
BRANCH  11  12
ATOM     12  N   UNL     1       7.453  -3.435  22.346  0.00  0.00    -0.330 NA
ATOM     13  H   UNL     1       8.431  -3.540  22.067  0.00  0.00    +0.118 HD
ATOM     14  H   UNL     1       6.993  -2.961  21.570  0.00  0.00    +0.118 HD
ENDBRANCH  11  12
ENDBRANCH  10  11
ENDBRANCH   9  10
ENDBRANCH   1   9
TORSDOF 7
ENDMDL
MODEL 9
REMARK VINA RESULT:      -3.7      4.570      5.583
REMARK  Name = 
REMARK  7 active torsions:
REMARK  status: ('A' for Active; 'I' for Inactive)
REMARK    1  A    between atoms: N_1  and  C_2
REMARK    2  A    between atoms: C_2  and  C_3
REMARK    3  A    between atoms: C_3  and  C_4
REMARK    4  A    between atoms: C_4  and  CA_5
REMARK    5  A    between atoms: CA_5  and  N_7
REMARK    6  A    between atoms: CA_5  and  C_8
REMARK    7  A    between atoms: C_8  and  O_9
REMARK                            x       y       z     vdW  Elec       q    Type
REMARK                         _______ _______ _______ _____ _____    ______ ____
ROOT
ATOM      1  CA  UNL     1       8.715   0.194  21.974  0.00  0.00    +0.161 C 
ENDROOT
BRANCH   1   2
ATOM      2  N   UNL     1       7.769   0.471  23.092  0.00  0.00    -0.318 NA
ATOM      3  H1  UNL     1       7.777  -0.338  23.721  0.00  0.00    +0.119 HD
ATOM      4  H2  UNL     1       8.162   1.232  23.656  0.00  0.00    +0.119 HD
ENDBRANCH   1   2
BRANCH   1   5
ATOM      5  C   UNL     1       9.023  -1.311  21.947  0.00  0.00    +0.322 C 
ATOM      6  OXT UNL     1       8.218  -2.196  22.183  0.00  0.00    -0.249 OA
BRANCH   5   7
ATOM      7  O   UNL     1      10.316  -1.541  21.596  0.00  0.00    -0.480 OA
ATOM      8  H   UNL     1      10.433  -1.130  20.702  0.00  0.00    +0.295 HD
ENDBRANCH   5   7
ENDBRANCH   1   5
BRANCH   1   9
ATOM      9  C   UNL     1      10.007   1.013  22.092  0.00  0.00    +0.031 C 
BRANCH   9  10
ATOM     10  C   UNL     1      10.206   1.720  23.438  0.00  0.00    +0.017 C 
BRANCH  10  11
ATOM     11  C   UNL     1      10.981   0.826  24.410  0.00  0.00    +0.078 C 
BRANCH  11  12
ATOM     12  N   UNL     1      10.088   0.267  25.417  0.00  0.00    -0.330 NA
ATOM     13  H   UNL     1      10.187  -0.751  25.437  0.00  0.00    +0.118 HD
ATOM     14  H   UNL     1      10.369   0.591  26.341  0.00  0.00    +0.118 HD
ENDBRANCH  11  12
ENDBRANCH  10  11
ENDBRANCH   9  10
ENDBRANCH   1   9
TORSDOF 7
ENDMDL
