MODEL 1
REMARK VINA RESULT:      -4.2      0.000      0.000
REMARK  Name = 
REMARK  2 active torsions:
REMARK  status: ('A' for Active; 'I' for Inactive)
REMARK    1  A    between atoms: O_1  and  C_2
REMARK    2  A    between atoms: C_2  and  C_4
REMARK                            x       y       z     vdW  Elec       q    Type
REMARK                         _______ _______ _______ _____ _____    ______ ____
ROOT
ATOM      1  C   UNL     1      10.166  -0.137  22.862  0.00  0.00    +0.077 A 
ATOM      2  C   UNL     1       9.875   0.818  21.884  0.00  0.00    +0.018 A 
ATOM      3  C   UNL     1      10.016   2.171  22.193  0.00  0.00    +0.020 A 
ATOM      4  C   UNL     1      10.435   2.517  23.468  0.00  0.00    +0.111 A 
ATOM      5  N   UNL     1      10.709   1.616  24.437  0.00  0.00    -0.262 NA
ATOM      6  C   UNL     1      10.556   0.307  24.118  0.00  0.00    +0.125 A 
ENDROOT
BRANCH   1   7
ATOM      7  C   UNL     1      10.038  -1.587  22.638  0.00  0.00    +0.338 C 
ATOM      8  O   UNL     1      10.192  -2.409  23.525  0.00  0.00    -0.245 OA
BRANCH   7   9
ATOM      9  O   UNL     1       9.775  -1.919  21.356  0.00  0.00    -0.477 OA
ATOM     10  H   UNL     1      10.223  -1.375  20.682  0.00  0.00    +0.295 HD
ENDBRANCH   7   9
ENDBRANCH   1   7
TORSDOF 2
ENDMDL
MODEL 2
REMARK VINA RESULT:      -4.2      2.558      3.450
REMARK  Name = 
REMARK  2 active torsions:
REMARK  status: ('A' for Active; 'I' for Inactive)
REMARK    1  A    between atoms: O_1  and  C_2
REMARK    2  A    between atoms: C_2  and  C_4
REMARK                            x       y       z     vdW  Elec       q    Type
REMARK                         _______ _______ _______ _____ _____    ______ ____
ROOT
ATOM      1  C   UNL     1      10.008   0.462  22.875  0.00  0.00    +0.077 A 
ATOM      2  C   UNL     1       9.651  -0.316  21.770  0.00  0.00    +0.018 A 
ATOM      3  C   UNL     1       9.382  -1.672  21.954  0.00  0.00    +0.020 A 
ATOM      4  C   UNL     1       9.489  -2.199  23.232  0.00  0.00    +0.111 A 
ATOM      5  N   UNL     1       9.847  -1.474  24.314  0.00  0.00    -0.262 NA
ATOM      6  C   UNL     1      10.113  -0.160  24.111  0.00  0.00    +0.125 A 
ENDROOT
BRANCH   1   7
ATOM      7  C   UNL     1      10.322   1.899  22.783  0.00  0.00    +0.338 C 
ATOM      8  O   UNL     1      10.609   2.576  23.755  0.00  0.00    -0.245 OA
BRANCH   7   9
ATOM      9  O   UNL     1      10.223   2.399  21.533  0.00  0.00    -0.477 OA
ATOM     10  H   UNL     1      10.432   1.775  20.814  0.00  0.00    +0.295 HD
ENDBRANCH   7   9
ENDBRANCH   1   7
TORSDOF 2
ENDMDL
MODEL 3
REMARK VINA RESULT:      -4.2      2.756      3.759
REMARK  Name = 
REMARK  2 active torsions:
REMARK  status: ('A' for Active; 'I' for Inactive)
REMARK    1  A    between atoms: O_1  and  C_2
REMARK    2  A    between atoms: C_2  and  C_4
REMARK                            x       y       z     vdW  Elec       q    Type
REMARK                         _______ _______ _______ _____ _____    ______ ____
ROOT
ATOM      1  C   UNL     1      10.037   0.493  22.963  0.00  0.00    +0.077 A 
ATOM      2  C   UNL     1       9.949  -0.003  24.268  0.00  0.00    +0.018 A 
ATOM      3  C   UNL     1       9.812  -1.377  24.463  0.00  0.00    +0.020 A 
ATOM      4  C   UNL     1       9.759  -2.200  23.349  0.00  0.00    +0.111 A 
ATOM      5  N   UNL     1       9.826  -1.748  22.078  0.00  0.00    -0.262 NA
ATOM      6  C   UNL     1       9.951  -0.407  21.910  0.00  0.00    +0.125 A 
ENDROOT
BRANCH   1   7
ATOM      7  C   UNL     1      10.173   1.927  22.652  0.00  0.00    +0.338 C 
ATOM      8  O   UNL     1      10.528   2.751  23.477  0.00  0.00    -0.245 OA
BRANCH   7   9
ATOM      9  O   UNL     1       9.828   2.244  21.386  0.00  0.00    -0.477 OA
ATOM     10  H   UNL     1       8.873   2.358  21.228  0.00  0.00    +0.295 HD
ENDBRANCH   7   9
ENDBRANCH   1   7
TORSDOF 2
ENDMDL
MODEL 4
REMARK VINA RESULT:      -4.1      3.186      3.886
REMARK  Name = 
REMARK  2 active torsions:
REMARK  status: ('A' for Active; 'I' for Inactive)
REMARK    1  A    between atoms: O_1  and  C_2
REMARK    2  A    between atoms: C_2  and  C_4
REMARK                            x       y       z     vdW  Elec       q    Type
REMARK                         _______ _______ _______ _____ _____    ______ ____
ROOT
ATOM      1  C   UNL     1      10.278   2.062  23.187  0.00  0.00    +0.077 A 
ATOM      2  C   UNL     1       9.858   1.582  21.943  0.00  0.00    +0.018 A 
ATOM      3  C   UNL     1       9.755   0.205  21.748  0.00  0.00    +0.020 A 
ATOM      4  C   UNL     1      10.083  -0.638  22.798  0.00  0.00    +0.111 A 
ATOM      5  N   UNL     1      10.506  -0.202  24.005  0.00  0.00    -0.262 NA
ATOM      6  C   UNL     1      10.608   1.141  24.171  0.00  0.00    +0.125 A 
ENDROOT
BRANCH   1   7
ATOM      7  C   UNL     1      10.429   3.496  23.489  0.00  0.00    +0.338 C 
ATOM      8  O   UNL     1       9.608   4.126  24.133  0.00  0.00    -0.245 OA
BRANCH   7   9
ATOM      9  O   UNL     1      11.536   4.052  22.953  0.00  0.00    -0.477 OA
ATOM     10  H   UNL     1      12.123   4.509  23.583  0.00  0.00    +0.295 HD
ENDBRANCH   7   9
ENDBRANCH   1   7
TORSDOF 2
ENDMDL
MODEL 5
REMARK VINA RESULT:      -4.0      4.047      4.911
REMARK  Name = 
REMARK  2 active torsions:
REMARK  status: ('A' for Active; 'I' for Inactive)
REMARK    1  A    between atoms: O_1  and  C_2
REMARK    2  A    between atoms: C_2  and  C_4
REMARK                            x       y       z     vdW  Elec       q    Type
REMARK                         _______ _______ _______ _____ _____    ______ ____
ROOT
ATOM      1  C   UNL     1       9.016  -3.889  24.432  0.00  0.00    +0.077 A 
ATOM      2  C   UNL     1       9.748  -2.745  24.102  0.00  0.00    +0.018 A 
ATOM      3  C   UNL     1       9.352  -1.979  23.006  0.00  0.00    +0.020 A 
ATOM      4  C   UNL     1       8.247  -2.391  22.277  0.00  0.00    +0.111 A 
ATOM      5  N   UNL     1       7.531  -3.500  22.563  0.00  0.00    -0.262 NA
ATOM      6  C   UNL     1       7.938  -4.235  23.628  0.00  0.00    +0.125 A 
ENDROOT
BRANCH   1   7
ATOM      7  C   UNL     1       9.359  -4.769  25.563  0.00  0.00    +0.338 C 
ATOM      8  O   UNL     1       9.111  -4.483  26.721  0.00  0.00    -0.245 OA
BRANCH   7   9
ATOM      9  O   UNL     1      10.007  -5.896  25.199  0.00  0.00    -0.477 OA
ATOM     10  H   UNL     1       9.704  -6.303  24.367  0.00  0.00    +0.295 HD
ENDBRANCH   7   9
ENDBRANCH   1   7
TORSDOF 2
ENDMDL
MODEL 6
REMARK VINA RESULT:      -4.0      0.950      1.608
REMARK  Name = 
REMARK  2 active torsions:
REMARK  status: ('A' for Active; 'I' for Inactive)
REMARK    1  A    between atoms: O_1  and  C_2
REMARK    2  A    between atoms: C_2  and  C_4
REMARK                            x       y       z     vdW  Elec       q    Type
REMARK                         _______ _______ _______ _____ _____    ______ ____
ROOT
ATOM      1  C   UNL     1      10.111  -0.106  22.976  0.00  0.00    +0.077 A 
ATOM      2  C   UNL     1      10.306   0.389  24.269  0.00  0.00    +0.018 A 
ATOM      3  C   UNL     1      10.310   1.768  24.473  0.00  0.00    +0.020 A 
ATOM      4  C   UNL     1      10.129   2.599  23.378  0.00  0.00    +0.111 A 
ATOM      5  N   UNL     1       9.954   2.149  22.116  0.00  0.00    -0.262 NA
ATOM      6  C   UNL     1       9.962   0.804  21.938  0.00  0.00    +0.125 A 
ENDROOT
BRANCH   1   7
ATOM      7  C   UNL     1      10.101  -1.544  22.655  0.00  0.00    +0.338 C 
ATOM      8  O   UNL     1      10.265  -2.410  23.497  0.00  0.00    -0.245 OA
BRANCH   7   9
ATOM      9  O   UNL     1       9.934  -1.808  21.341  0.00  0.00    -0.477 OA
ATOM     10  H   UNL     1      10.023  -2.745  21.088  0.00  0.00    +0.295 HD
ENDBRANCH   7   9
ENDBRANCH   1   7
TORSDOF 2
ENDMDL
MODEL 7
REMARK VINA RESULT:      -3.9      6.541      7.280
REMARK  Name = 
REMARK  2 active torsions:
REMARK  status: ('A' for Active; 'I' for Inactive)
REMARK    1  A    between atoms: O_1  and  C_2
REMARK    2  A    between atoms: C_2  and  C_4
REMARK                            x       y       z     vdW  Elec       q    Type
REMARK                         _______ _______ _______ _____ _____    ______ ____
ROOT
ATOM      1  C   UNL     1       7.429  -5.200  25.412  0.00  0.00    +0.077 A 
ATOM      2  C   UNL     1       8.082  -5.054  24.185  0.00  0.00    +0.018 A 
ATOM      3  C   UNL     1       7.359  -5.236  23.006  0.00  0.00    +0.020 A 
ATOM      4  C   UNL     1       6.015  -5.565  23.099  0.00  0.00    +0.111 A 
ATOM      5  N   UNL     1       5.363  -5.728  24.271  0.00  0.00    -0.262 NA
ATOM      6  C   UNL     1       6.087  -5.555  25.405  0.00  0.00    +0.125 A 
ENDROOT
BRANCH   1   7
ATOM      7  C   UNL     1       8.106  -5.039  26.711  0.00  0.00    +0.338 C 
ATOM      8  O   UNL     1       8.962  -4.194  26.910  0.00  0.00    -0.245 OA
BRANCH   7   9
ATOM      9  O   UNL     1       7.719  -5.938  27.641  0.00  0.00    -0.477 OA
ATOM     10  H   UNL     1       6.904  -5.715  28.126  0.00  0.00    +0.295 HD
ENDBRANCH   7   9
ENDBRANCH   1   7
TORSDOF 2
ENDMDL
MODEL 8
REMARK VINA RESULT:      -3.9      3.170      4.711
REMARK  Name = 
REMARK  2 active torsions:
REMARK  status: ('A' for Active; 'I' for Inactive)
REMARK    1  A    between atoms: O_1  and  C_2
REMARK    2  A    between atoms: C_2  and  C_4
REMARK                            x       y       z     vdW  Elec       q    Type
REMARK                         _______ _______ _______ _____ _____    ______ ____
ROOT
ATOM      1  C   UNL     1       8.793  -2.595  22.968  0.00  0.00    +0.077 A 
ATOM      2  C   UNL     1       7.712  -3.448  22.727  0.00  0.00    +0.018 A 
ATOM      3  C   UNL     1       7.572  -4.601  23.500  0.00  0.00    +0.020 A 
ATOM      4  C   UNL     1       8.521  -4.860  24.476  0.00  0.00    +0.111 A 
ATOM      5  N   UNL     1       9.583  -4.062  24.721  0.00  0.00    -0.262 NA
ATOM      6  C   UNL     1       9.705  -2.952  23.952  0.00  0.00    +0.125 A 
ENDROOT
BRANCH   1   7
ATOM      7  C   UNL     1       9.035  -1.361  22.201  0.00  0.00    +0.338 C 
ATOM      8  O   UNL     1       8.341  -0.365  22.314  0.00  0.00    -0.245 OA
BRANCH   7   9
ATOM      9  O   UNL     1      10.067  -1.452  21.335  0.00  0.00    -0.477 OA
ATOM     10  H   UNL     1      10.337  -2.358  21.099  0.00  0.00    +0.295 HD
ENDBRANCH   7   9
ENDBRANCH   1   7
TORSDOF 2
ENDMDL
MODEL 9
REMARK VINA RESULT:      -3.8      1.574      1.980
REMARK  Name = 
REMARK  2 active torsions:
REMARK  status: ('A' for Active; 'I' for Inactive)
REMARK    1  A    between atoms: O_1  and  C_2
REMARK    2  A    between atoms: C_2  and  C_4
REMARK                            x       y       z     vdW  Elec       q    Type
REMARK                         _______ _______ _______ _____ _____    ______ ____
ROOT
ATOM      1  C   UNL     1       9.472  -1.615  23.082  0.00  0.00    +0.077 A 
ATOM      2  C   UNL     1       9.115  -1.233  21.785  0.00  0.00    +0.018 A 
ATOM      3  C   UNL     1       9.399   0.065  21.359  0.00  0.00    +0.020 A 
ATOM      4  C   UNL     1      10.019   0.931  22.245  0.00  0.00    +0.111 A 
ATOM      5  N   UNL     1      10.361   0.593  23.508  0.00  0.00    -0.262 NA
ATOM      6  C   UNL     1      10.069  -0.670  23.905  0.00  0.00    +0.125 A 
ENDROOT
BRANCH   1   7
ATOM      7  C   UNL     1       9.206  -2.957  23.630  0.00  0.00    +0.338 C 
ATOM      8  O   UNL     1      10.022  -3.573  24.292  0.00  0.00    -0.245 OA
BRANCH   7   9
ATOM      9  O   UNL     1       7.996  -3.452  23.295  0.00  0.00    -0.477 OA
ATOM     10  H   UNL     1       7.624  -3.118  22.458  0.00  0.00    +0.295 HD
ENDBRANCH   7   9
ENDBRANCH   1   7
TORSDOF 2
ENDMDL
