MODEL 1
REMARK VINA RESULT:      -4.9      0.000      0.000
REMARK  Name = 
REMARK  3 active torsions:
REMARK  status: ('A' for Active; 'I' for Inactive)
REMARK    1  A    between atoms: C_2  and  C_4
REMARK    2  A    between atoms: C_7  and  C_8
REMARK    3  A    between atoms: C_8  and  O_9
REMARK                            x       y       z     vdW  Elec       q    Type
REMARK                         _______ _______ _______ _____ _____    ______ ____
ROOT
ATOM      1  C   UNL     1      10.372   2.139  23.160  0.00  0.00    +0.065 A 
ATOM      2  C   UNL     1      10.618   1.298  24.250  0.00  0.00    +0.016 A 
ATOM      3  C   UNL     1      10.380  -0.075  24.142  0.00  0.00    +0.007 A 
ATOM      4  C   UNL     1       9.911  -0.628  22.941  0.00  0.00    -0.022 A 
ATOM      5  C   UNL     1       9.707   0.219  21.842  0.00  0.00    +0.007 A 
ATOM      6  C   UNL     1       9.944   1.593  21.947  0.00  0.00    +0.016 A 
ENDROOT
BRANCH   1  10
ATOM      7  N   UNL     1       9.406   4.401  23.439  0.00  0.00    -0.247 N 
ATOM      8  H   UNL     1       8.545   4.011  23.067  0.00  0.00    +0.288 HD
ATOM      9  H   UNL     1       9.521   5.368  23.157  0.00  0.00    +0.288 HD
ATOM     10  C   UNL     1      10.516   3.617  23.294  0.00  0.00    +0.308 C 
ATOM     11  N   UNL     1      11.689   4.156  23.232  0.00  0.00    -0.099 NA
ATOM     12  H   UNL     1      11.611   5.166  23.364  0.00  0.00    +0.363 HD
ENDBRANCH   1  10
BRANCH   4  13
ATOM     13  C   UNL     1       9.534  -2.085  22.847  0.00  0.00    +0.191 C 
BRANCH  13  14
ATOM     14  O   UNL     1      10.239  -2.878  23.792  0.00  0.00    -0.390 OA
ATOM     15  H   UNL     1      10.505  -2.280  24.513  0.00  0.00    +0.210 HD
ENDBRANCH  13  14
ENDBRANCH   4  13
TORSDOF 3
ENDMDL
MODEL 2
REMARK VINA RESULT:      -4.9      3.737      4.936
REMARK  Name = 
REMARK  3 active torsions:
REMARK  status: ('A' for Active; 'I' for Inactive)
REMARK    1  A    between atoms: C_2  and  C_4
REMARK    2  A    between atoms: C_7  and  C_8
REMARK    3  A    between atoms: C_8  and  O_9
REMARK                            x       y       z     vdW  Elec       q    Type
REMARK                         _______ _______ _______ _____ _____    ______ ____
ROOT
ATOM      1  C   UNL     1       9.852  -0.549  23.078  0.00  0.00    +0.065 A 
ATOM      2  C   UNL     1       9.744   0.280  21.957  0.00  0.00    +0.016 A 
ATOM      3  C   UNL     1      10.001   1.649  22.072  0.00  0.00    +0.007 A 
ATOM      4  C   UNL     1      10.387   2.204  23.301  0.00  0.00    -0.022 A 
ATOM      5  C   UNL     1      10.531   1.358  24.410  0.00  0.00    +0.007 A 
ATOM      6  C   UNL     1      10.274  -0.013  24.298  0.00  0.00    +0.016 A 
ENDROOT
BRANCH   1  10
ATOM      7  N   UNL     1       8.441  -2.380  22.192  0.00  0.00    -0.247 N 
ATOM      8  H   UNL     1       7.746  -1.666  21.997  0.00  0.00    +0.288 HD
ATOM      9  H   UNL     1       8.002  -3.257  22.448  0.00  0.00    +0.288 HD
ATOM     10  C   UNL     1       9.474  -1.989  22.997  0.00  0.00    +0.308 C 
ATOM     11  N   UNL     1      10.100  -2.859  23.720  0.00  0.00    -0.099 NA
ATOM     12  H   UNL     1       9.734  -3.793  23.527  0.00  0.00    +0.363 HD
ENDBRANCH   1  10
BRANCH   4  13
ATOM     13  C   UNL     1      10.548   3.694  23.468  0.00  0.00    +0.191 C 
BRANCH  13  14
ATOM     14  O   UNL     1      11.711   4.180  22.812  0.00  0.00    -0.390 OA
ATOM     15  H   UNL     1      11.407   4.618  21.997  0.00  0.00    +0.210 HD
ENDBRANCH  13  14
ENDBRANCH   4  13
TORSDOF 3
ENDMDL
MODEL 3
REMARK VINA RESULT:      -4.8      0.291      1.484
REMARK  Name = 
REMARK  3 active torsions:
REMARK  status: ('A' for Active; 'I' for Inactive)
REMARK    1  A    between atoms: C_2  and  C_4
REMARK    2  A    between atoms: C_7  and  C_8
REMARK    3  A    between atoms: C_8  and  O_9
REMARK                            x       y       z     vdW  Elec       q    Type
REMARK                         _______ _______ _______ _____ _____    ______ ____
ROOT
ATOM      1  C   UNL     1      10.331   2.255  23.264  0.00  0.00    +0.065 A 
ATOM      2  C   UNL     1       9.930   1.786  22.009  0.00  0.00    +0.016 A 
ATOM      3  C   UNL     1       9.746   0.416  21.801  0.00  0.00    +0.007 A 
ATOM      4  C   UNL     1       9.941  -0.500  22.846  0.00  0.00    -0.022 A 
ATOM      5  C   UNL     1      10.304  -0.014  24.111  0.00  0.00    +0.007 A 
ATOM      6  C   UNL     1      10.489   1.356  24.322  0.00  0.00    +0.016 A 
ENDROOT
BRANCH   1  10
ATOM      7  N   UNL     1       9.705   4.522  24.041  0.00  0.00    -0.247 N 
ATOM      8  H   UNL     1       8.740   4.221  23.940  0.00  0.00    +0.288 HD
ATOM      9  H   UNL     1       9.806   5.506  23.821  0.00  0.00    +0.288 HD
ATOM     10  C   UNL     1      10.638   3.700  23.471  0.00  0.00    +0.308 C 
ATOM     11  N   UNL     1      11.770   4.179  23.074  0.00  0.00    -0.099 NA
ATOM     12  H   UNL     1      11.827   5.171  23.312  0.00  0.00    +0.363 HD
ENDBRANCH   1  10
BRANCH   4  13
ATOM     13  C   UNL     1       9.866  -1.986  22.605  0.00  0.00    +0.191 C 
BRANCH  13  14
ATOM     14  O   UNL     1      10.303  -2.730  23.735  0.00  0.00    -0.390 OA
ATOM     15  H   UNL     1      11.181  -2.382  23.973  0.00  0.00    +0.210 HD
ENDBRANCH  13  14
ENDBRANCH   4  13
TORSDOF 3
ENDMDL
MODEL 4
REMARK VINA RESULT:      -4.8      5.253      6.456
REMARK  Name = 
REMARK  3 active torsions:
REMARK  status: ('A' for Active; 'I' for Inactive)
REMARK    1  A    between atoms: C_2  and  C_4
REMARK    2  A    between atoms: C_7  and  C_8
REMARK    3  A    between atoms: C_8  and  O_9
REMARK                            x       y       z     vdW  Elec       q    Type
REMARK                         _______ _______ _______ _____ _____    ______ ____
ROOT
ATOM      1  C   UNL     1       8.933  -3.710  25.489  0.00  0.00    +0.065 A 
ATOM      2  C   UNL     1       8.327  -2.827  26.388  0.00  0.00    +0.016 A 
ATOM      3  C   UNL     1       8.372  -1.450  26.153  0.00  0.00    +0.007 A 
ATOM      4  C   UNL     1       9.006  -0.939  25.010  0.00  0.00    -0.022 A 
ATOM      5  C   UNL     1       9.576  -1.836  24.096  0.00  0.00    +0.007 A 
ATOM      6  C   UNL     1       9.532  -3.215  24.329  0.00  0.00    +0.016 A 
ENDROOT
BRANCH   1  10
ATOM      7  N   UNL     1       8.162  -5.711  26.728  0.00  0.00    -0.247 N 
ATOM      8  H   UNL     1       7.839  -5.066  27.444  0.00  0.00    +0.288 HD
ATOM      9  H   UNL     1       8.485  -6.579  27.139  0.00  0.00    +0.288 HD
ATOM     10  C   UNL     1       8.989  -5.172  25.782  0.00  0.00    +0.308 C 
ATOM     11  N   UNL     1       9.848  -5.917  25.169  0.00  0.00    -0.099 NA
ATOM     12  H   UNL     1       9.737  -6.888  25.468  0.00  0.00    +0.363 HD
ENDBRANCH   1  10
BRANCH   4  13
ATOM     13  C   UNL     1       9.170   0.546  24.807  0.00  0.00    +0.191 C 
BRANCH  13  14
ATOM     14  O   UNL     1      10.494   0.979  25.093  0.00  0.00    -0.390 OA
ATOM     15  H   UNL     1      10.422   1.638  25.806  0.00  0.00    +0.210 HD
ENDBRANCH  13  14
ENDBRANCH   4  13
TORSDOF 3
ENDMDL
MODEL 5
REMARK VINA RESULT:      -4.8      1.569      2.025
REMARK  Name = 
REMARK  3 active torsions:
REMARK  status: ('A' for Active; 'I' for Inactive)
REMARK    1  A    between atoms: C_2  and  C_4
REMARK    2  A    between atoms: C_7  and  C_8
REMARK    3  A    between atoms: C_8  and  O_9
REMARK                            x       y       z     vdW  Elec       q    Type
REMARK                         _______ _______ _______ _____ _____    ______ ____
ROOT
ATOM      1  C   UNL     1      10.011   0.493  23.262  0.00  0.00    +0.065 A 
ATOM      2  C   UNL     1       9.698   0.262  24.605  0.00  0.00    +0.016 A 
ATOM      3  C   UNL     1       9.419  -1.034  25.045  0.00  0.00    +0.007 A 
ATOM      4  C   UNL     1       9.468  -2.119  24.156  0.00  0.00    -0.022 A 
ATOM      5  C   UNL     1       9.822  -1.881  22.820  0.00  0.00    +0.007 A 
ATOM      6  C   UNL     1      10.101  -0.584  22.376  0.00  0.00    +0.016 A 
ENDROOT
BRANCH   1  10
ATOM      7  N   UNL     1       9.816   2.206  21.484  0.00  0.00    -0.247 N 
ATOM      8  H   UNL     1       9.783   1.431  20.828  0.00  0.00    +0.288 HD
ATOM      9  H   UNL     1      10.288   3.006  21.080  0.00  0.00    +0.288 HD
ATOM     10  C   UNL     1      10.202   1.883  22.755  0.00  0.00    +0.308 C 
ATOM     11  N   UNL     1      10.771   2.767  23.506  0.00  0.00    -0.099 NA
ATOM     12  H   UNL     1      10.802   3.665  23.018  0.00  0.00    +0.363 HD
ENDBRANCH   1  10
BRANCH   4  13
ATOM     13  C   UNL     1       9.050  -3.502  24.587  0.00  0.00    +0.191 C 
BRANCH  13  14
ATOM     14  O   UNL     1      10.145  -4.409  24.596  0.00  0.00    -0.390 OA
ATOM     15  H   UNL     1      10.301  -4.663  23.669  0.00  0.00    +0.210 HD
ENDBRANCH  13  14
ENDBRANCH   4  13
TORSDOF 3
ENDMDL
MODEL 6
REMARK VINA RESULT:      -4.5      2.098      2.925
REMARK  Name = 
REMARK  3 active torsions:
REMARK  status: ('A' for Active; 'I' for Inactive)
REMARK    1  A    between atoms: C_2  and  C_4
REMARK    2  A    between atoms: C_7  and  C_8
REMARK    3  A    between atoms: C_8  and  O_9
REMARK                            x       y       z     vdW  Elec       q    Type
REMARK                         _______ _______ _______ _____ _____    ______ ____
ROOT
ATOM      1  C   UNL     1       8.870   0.069  22.345  0.00  0.00    +0.065 A 
ATOM      2  C   UNL     1      10.045  -0.683  22.440  0.00  0.00    +0.016 A 
ATOM      3  C   UNL     1      10.022  -1.944  23.041  0.00  0.00    +0.007 A 
ATOM      4  C   UNL     1       8.824  -2.478  23.539  0.00  0.00    -0.022 A 
ATOM      5  C   UNL     1       7.644  -1.732  23.403  0.00  0.00    +0.007 A 
ATOM      6  C   UNL     1       7.665  -0.469  22.802  0.00  0.00    +0.016 A 
ENDROOT
BRANCH   1  10
ATOM      7  N   UNL     1      10.096   2.099  21.632  0.00  0.00    -0.247 N 
ATOM      8  H   UNL     1      10.856   1.771  22.220  0.00  0.00    +0.288 HD
ATOM      9  H   UNL     1      10.047   3.111  21.630  0.00  0.00    +0.288 HD
ATOM     10  C   UNL     1       8.900   1.460  21.807  0.00  0.00    +0.308 C 
ATOM     11  N   UNL     1       7.792   2.071  21.546  0.00  0.00    -0.099 NA
ATOM     12  H   UNL     1       7.991   2.999  21.166  0.00  0.00    +0.363 HD
ENDBRANCH   1  10
BRANCH   4  13
ATOM     13  C   UNL     1       8.806  -3.781  24.298  0.00  0.00    +0.191 C 
BRANCH  13  14
ATOM     14  O   UNL     1      10.118  -4.263  24.556  0.00  0.00    -0.390 OA
ATOM     15  H   UNL     1      10.694  -3.877  23.873  0.00  0.00    +0.210 HD
ENDBRANCH  13  14
ENDBRANCH   4  13
TORSDOF 3
ENDMDL
MODEL 7
REMARK VINA RESULT:      -4.5      7.428      8.281
REMARK  Name = 
REMARK  3 active torsions:
REMARK  status: ('A' for Active; 'I' for Inactive)
REMARK    1  A    between atoms: C_2  and  C_4
REMARK    2  A    between atoms: C_7  and  C_8
REMARK    3  A    between atoms: C_8  and  O_9
REMARK                            x       y       z     vdW  Elec       q    Type
REMARK                         _______ _______ _______ _____ _____    ______ ____
ROOT
ATOM      1  C   UNL     1       6.060  -5.547  23.505  0.00  0.00    +0.065 A 
ATOM      2  C   UNL     1       5.757  -5.585  24.869  0.00  0.00    +0.016 A 
ATOM      3  C   UNL     1       6.744  -5.289  25.814  0.00  0.00    +0.007 A 
ATOM      4  C   UNL     1       8.040  -4.933  25.408  0.00  0.00    -0.022 A 
ATOM      5  C   UNL     1       8.321  -4.859  24.036  0.00  0.00    +0.007 A 
ATOM      6  C   UNL     1       7.335  -5.155  23.089  0.00  0.00    +0.016 A 
ENDROOT
BRANCH   1  10
ATOM      7  N   UNL     1       3.762  -6.219  22.874  0.00  0.00    -0.247 N 
ATOM      8  H   UNL     1       3.641  -6.488  23.846  0.00  0.00    +0.288 HD
ATOM      9  H   UNL     1       3.242  -6.834  22.258  0.00  0.00    +0.288 HD
ATOM     10  C   UNL     1       5.050  -5.966  22.491  0.00  0.00    +0.308 C 
ATOM     11  N   UNL     1       5.406  -6.129  21.259  0.00  0.00    -0.099 NA
ATOM     12  H   UNL     1       4.594  -6.393  20.699  0.00  0.00    +0.363 HD
ENDBRANCH   1  10
BRANCH   4  13
ATOM     13  C   UNL     1       9.145  -4.732  26.414  0.00  0.00    +0.191 C 
BRANCH  13  14
ATOM     14  O   UNL     1      10.341  -5.396  26.029  0.00  0.00    -0.390 OA
ATOM     15  H   UNL     1      11.034  -4.713  25.980  0.00  0.00    +0.210 HD
ENDBRANCH  13  14
ENDBRANCH   4  13
TORSDOF 3
ENDMDL
MODEL 8
REMARK VINA RESULT:      -4.5      2.041      2.618
REMARK  Name = 
REMARK  3 active torsions:
REMARK  status: ('A' for Active; 'I' for Inactive)
REMARK    1  A    between atoms: C_2  and  C_4
REMARK    2  A    between atoms: C_7  and  C_8
REMARK    3  A    between atoms: C_8  and  O_9
REMARK                            x       y       z     vdW  Elec       q    Type
REMARK                         _______ _______ _______ _____ _____    ______ ____
ROOT
ATOM      1  C   UNL     1       8.784   0.620  22.228  0.00  0.00    +0.065 A 
ATOM      2  C   UNL     1       7.577   0.278  22.843  0.00  0.00    +0.016 A 
ATOM      3  C   UNL     1       7.204  -1.064  22.956  0.00  0.00    +0.007 A 
ATOM      4  C   UNL     1       8.041  -2.082  22.472  0.00  0.00    -0.022 A 
ATOM      5  C   UNL     1       9.268  -1.730  21.893  0.00  0.00    +0.007 A 
ATOM      6  C   UNL     1       9.643  -0.387  21.779  0.00  0.00    +0.016 A 
ENDROOT
BRANCH   1  10
ATOM      7  N   UNL     1       8.179   3.016  22.078  0.00  0.00    -0.247 N 
ATOM      8  H   UNL     1       7.230   2.701  21.898  0.00  0.00    +0.288 HD
ATOM      9  H   UNL     1       8.382   3.869  21.570  0.00  0.00    +0.288 HD
ATOM     10  C   UNL     1       9.143   2.050  22.002  0.00  0.00    +0.308 C 
ATOM     11  N   UNL     1      10.358   2.367  21.695  0.00  0.00    -0.099 NA
ATOM     12  H   UNL     1      10.435   3.381  21.599  0.00  0.00    +0.363 HD
ENDBRANCH   1  10
BRANCH   4  13
ATOM     13  C   UNL     1       7.598  -3.524  22.475  0.00  0.00    +0.191 C 
BRANCH  13  14
ATOM     14  O   UNL     1       8.087  -4.227  23.609  0.00  0.00    -0.390 OA
ATOM     15  H   UNL     1       8.784  -4.825  23.286  0.00  0.00    +0.210 HD
ENDBRANCH  13  14
ENDBRANCH   4  13
TORSDOF 3
ENDMDL
MODEL 9
REMARK VINA RESULT:      -4.5      1.869      2.229
REMARK  Name = 
REMARK  3 active torsions:
REMARK  status: ('A' for Active; 'I' for Inactive)
REMARK    1  A    between atoms: C_2  and  C_4
REMARK    2  A    between atoms: C_7  and  C_8
REMARK    3  A    between atoms: C_8  and  O_9
REMARK                            x       y       z     vdW  Elec       q    Type
REMARK                         _______ _______ _______ _____ _____    ______ ____
ROOT
ATOM      1  C   UNL     1       8.602   2.969  22.856  0.00  0.00    +0.065 A 
ATOM      2  C   UNL     1       9.507   2.570  23.843  0.00  0.00    +0.016 A 
ATOM      3  C   UNL     1      10.108   1.310  23.773  0.00  0.00    +0.007 A 
ATOM      4  C   UNL     1       9.828   0.441  22.707  0.00  0.00    -0.022 A 
ATOM      5  C   UNL     1       8.949   0.868  21.701  0.00  0.00    +0.007 A 
ATOM      6  C   UNL     1       8.346   2.129  21.769  0.00  0.00    +0.016 A 
ENDROOT
BRANCH   1  10
ATOM      7  N   UNL     1       7.363   4.868  21.859  0.00  0.00    -0.247 N 
ATOM      8  H   UNL     1       7.826   4.630  20.986  0.00  0.00    +0.288 HD
ATOM      9  H   UNL     1       7.222   5.868  21.936  0.00  0.00    +0.288 HD
ATOM     10  C   UNL     1       7.870   4.263  22.975  0.00  0.00    +0.308 C 
ATOM     11  N   UNL     1       7.753   4.830  24.131  0.00  0.00    -0.099 NA
ATOM     12  H   UNL     1       7.208   5.690  24.039  0.00  0.00    +0.363 HD
ENDBRANCH   1  10
BRANCH   4  13
ATOM     13  C   UNL     1      10.372  -0.965  22.682  0.00  0.00    +0.191 C 
BRANCH  13  14
ATOM     14  O   UNL     1      10.196  -1.580  21.413  0.00  0.00    -0.390 OA
ATOM     15  H   UNL     1      10.593  -0.980  20.757  0.00  0.00    +0.210 HD
ENDBRANCH  13  14
ENDBRANCH   4  13
TORSDOF 3
ENDMDL
