MODEL 1
REMARK VINA RESULT:      -8.6      0.000      0.000
REMARK  Name = 
REMARK  12 active torsions:
REMARK  status: ('A' for Active; 'I' for Inactive)
REMARK    1  A    between atoms: O_1  and  C_2
REMARK    2  A    between atoms: C_4  and  O_6
REMARK    3  A    between atoms: C_7  and  C_9
REMARK    4  A    between atoms: C_9  and  C_10
REMARK    5  A    between atoms: N_16  and  C_17
REMARK    6  A    between atoms: C_17  and  C_18
REMARK    7  A    between atoms: C_22  and  C_24
REMARK    8  A    between atoms: N_34  and  C_35
REMARK    9  A    between atoms: C_35  and  C_36
REMARK   10  A    between atoms: C_40  and  C_42
REMARK   11  A    between atoms: C_50  and  C_52
REMARK   12  A    between atoms: C_52  and  C_53
REMARK                            x       y       z     vdW  Elec       q    Type
REMARK                         _______ _______ _______ _____ _____    ______ ____
ROOT
ATOM      1  C   UNL     1      10.050   0.180  23.143  0.00  0.00    +0.165 C 
ATOM      2  C   UNL     1       8.917  -0.714  23.681  0.00  0.00    +0.113 C 
ATOM      3  N   UNL     1       8.401  -0.145  24.985  0.00  0.00    -0.275 N 
ATOM      4  C   UNL     1       7.644   1.032  25.154  0.00  0.00    +0.306 C 
ATOM      5  O   UNL     1       7.213   1.389  26.251  0.00  0.00    -0.252 OA
ATOM      6  N   UNL     1       7.553   1.918  24.085  0.00  0.00    -0.275 N 
ATOM      7  C   UNL     1       8.868   2.462  23.647  0.00  0.00    +0.113 C 
ATOM      8  C   UNL     1       9.629   1.570  22.616  0.00  0.00    +0.165 C 
ENDROOT
BRANCH   1   9
ATOM      9  O   UNL     1      11.061   0.328  24.161  0.00  0.00    -0.387 OA
ATOM     10  H   UNL     1      11.413   1.235  24.097  0.00  0.00    +0.210 HD
ENDBRANCH   1   9
BRANCH   8  11
ATOM     11  O   UNL     1       8.902   1.459  21.392  0.00  0.00    -0.387 OA
ATOM     12  H   UNL     1       7.980   1.233  21.620  0.00  0.00    +0.210 HD
ENDBRANCH   8  11
BRANCH   2  13
ATOM     13  C   UNL     1       7.806  -1.102  22.667  0.00  0.00    +0.060 C 
BRANCH  13  14
ATOM     14  C   UNL     1       7.216  -2.510  22.577  0.00  0.00    -0.046 A 
ATOM     15  C   UNL     1       5.815  -2.664  22.670  0.00  0.00    +0.004 A 
ATOM     16  C   UNL     1       5.222  -3.917  22.879  0.00  0.00    +0.000 A 
ATOM     17  C   UNL     1       6.019  -5.050  22.991  0.00  0.00    +0.000 A 
ATOM     18  C   UNL     1       7.400  -4.929  22.848  0.00  0.00    +0.000 A 
ATOM     19  C   UNL     1       7.997  -3.672  22.638  0.00  0.00    +0.004 A 
ENDBRANCH  13  14
ENDBRANCH   2  13
BRANCH   3  20
ATOM     20  C   UNL     1       8.838  -0.867  26.217  0.00  0.00    +0.144 C 
BRANCH  20  21
ATOM     21  C   UNL     1       8.266  -2.259  26.360  0.00  0.00    -0.029 A 
ATOM     22  C   UNL     1       6.884  -2.414  26.534  0.00  0.00    +0.018 A 
ATOM     23  C   UNL     1       6.286  -3.672  26.541  0.00  0.00    +0.037 A 
ATOM     24  C   UNL     1       7.095  -4.806  26.429  0.00  0.00    +0.013 A 
ATOM     25  C   UNL     1       8.483  -4.679  26.362  0.00  0.00    +0.001 A 
ATOM     26  C   UNL     1       9.069  -3.409  26.335  0.00  0.00    +0.005 A 
BRANCH  23  27
ATOM     27  C   UNL     1       4.807  -3.847  26.573  0.00  0.00    +0.250 C 
ATOM     28  N   UNL     1       4.315  -5.066  26.144  0.00  0.00    -0.261 N 
ATOM     29  H   UNL     1       4.897  -5.785  25.749  0.00  0.00    +0.157 HD
ATOM     30  C   UNL     1       2.976  -5.337  26.171  0.00  0.00    +0.165 A 
ATOM     31  S   UNL     1       2.533  -6.820  25.442  0.00  0.00    -0.061 S 
ATOM     32  C   UNL     1       0.884  -6.443  25.739  0.00  0.00    +0.068 A 
ATOM     33  C   UNL     1       0.793  -5.251  26.412  0.00  0.00    +0.120 A 
ATOM     34  N   UNL     1       1.996  -4.621  26.662  0.00  0.00    -0.233 NA
ATOM     35  O   UNL     1       4.129  -2.895  26.929  0.00  0.00    -0.270 OA
ENDBRANCH  23  27
ENDBRANCH  20  21
ENDBRANCH   3  20
BRANCH   6  36
ATOM     36  C   UNL     1       6.307   1.966  23.250  0.00  0.00    +0.144 C 
BRANCH  36  37
ATOM     37  C   UNL     1       5.074   2.906  23.378  0.00  0.00    -0.029 A 
ATOM     38  C   UNL     1       4.510   3.771  22.416  0.00  0.00    +0.018 A 
ATOM     39  C   UNL     1       3.249   4.416  22.635  0.00  0.00    +0.037 A 
ATOM     40  C   UNL     1       2.538   4.210  23.823  0.00  0.00    +0.013 A 
ATOM     41  C   UNL     1       3.058   3.359  24.782  0.00  0.00    +0.001 A 
ATOM     42  C   UNL     1       4.291   2.722  24.558  0.00  0.00    +0.005 A 
BRANCH  39  43
ATOM     43  C   UNL     1       2.554   5.309  21.646  0.00  0.00    +0.250 C 
ATOM     44  N   UNL     1       2.464   4.797  20.374  0.00  0.00    -0.261 N 
ATOM     45  H   UNL     1       2.783   3.864  20.172  0.00  0.00    +0.157 HD
ATOM     46  C   UNL     1       1.752   5.423  19.382  0.00  0.00    +0.165 A 
ATOM     47  S   UNL     1       1.568   4.482  17.966  0.00  0.00    -0.061 S 
ATOM     48  C   UNL     1       0.650   5.751  17.260  0.00  0.00    +0.068 A 
ATOM     49  C   UNL     1       0.567   6.803  18.148  0.00  0.00    +0.120 A 
ATOM     50  N   UNL     1       1.197   6.608  19.361  0.00  0.00    -0.233 NA
ATOM     51  O   UNL     1       2.045   6.346  22.057  0.00  0.00    -0.270 OA
ENDBRANCH  39  43
ENDBRANCH  36  37
ENDBRANCH   6  36
BRANCH   7  52
ATOM     52  C   UNL     1       8.802   3.961  23.280  0.00  0.00    +0.060 C 
BRANCH  52  53
ATOM     53  C   UNL     1      10.006   4.767  23.734  0.00  0.00    -0.046 A 
ATOM     54  C   UNL     1      11.310   4.412  23.356  0.00  0.00    +0.004 A 
ATOM     55  C   UNL     1      12.403   5.202  23.736  0.00  0.00    +0.000 A 
ATOM     56  C   UNL     1      12.201   6.358  24.487  0.00  0.00    +0.000 A 
ATOM     57  C   UNL     1      10.914   6.712  24.882  0.00  0.00    +0.000 A 
ATOM     58  C   UNL     1       9.825   5.915  24.518  0.00  0.00    +0.004 A 
ENDBRANCH  52  53
ENDBRANCH   7  52
TORSDOF 12
ENDMDL
MODEL 2
REMARK VINA RESULT:      -8.4      2.929      8.978
REMARK  Name = 
REMARK  12 active torsions:
REMARK  status: ('A' for Active; 'I' for Inactive)
REMARK    1  A    between atoms: O_1  and  C_2
REMARK    2  A    between atoms: C_4  and  O_6
REMARK    3  A    between atoms: C_7  and  C_9
REMARK    4  A    between atoms: C_9  and  C_10
REMARK    5  A    between atoms: N_16  and  C_17
REMARK    6  A    between atoms: C_17  and  C_18
REMARK    7  A    between atoms: C_22  and  C_24
REMARK    8  A    between atoms: N_34  and  C_35
REMARK    9  A    between atoms: C_35  and  C_36
REMARK   10  A    between atoms: C_40  and  C_42
REMARK   11  A    between atoms: C_50  and  C_52
REMARK   12  A    between atoms: C_52  and  C_53
REMARK                            x       y       z     vdW  Elec       q    Type
REMARK                         _______ _______ _______ _____ _____    ______ ____
ROOT
ATOM      1  C   UNL     1      10.394   2.226  23.317  0.00  0.00    +0.165 C 
ATOM      2  C   UNL     1       9.063   2.892  23.712  0.00  0.00    +0.113 C 
ATOM      3  N   UNL     1       7.929   2.248  22.944  0.00  0.00    -0.275 N 
ATOM      4  C   UNL     1       7.412   0.949  23.128  0.00  0.00    +0.306 C 
ATOM      5  O   UNL     1       6.443   0.527  22.496  0.00  0.00    -0.252 OA
ATOM      6  N   UNL     1       8.141   0.052  23.901  0.00  0.00    -0.275 N 
ATOM      7  C   UNL     1       9.499  -0.235  23.362  0.00  0.00    +0.113 C 
ATOM      8  C   UNL     1      10.603   0.776  23.808  0.00  0.00    +0.165 C 
ENDROOT
BRANCH   1   9
ATOM      9  O   UNL     1      10.547   2.284  21.884  0.00  0.00    -0.387 OA
ATOM     10  H   UNL     1      10.510   3.222  21.621  0.00  0.00    +0.210 HD
ENDBRANCH   1   9
BRANCH   8  11
ATOM     11  O   UNL     1      10.802   0.733  25.222  0.00  0.00    -0.387 OA
ATOM     12  H   UNL     1      10.771   1.652  25.549  0.00  0.00    +0.210 HD
ENDBRANCH   8  11
BRANCH   2  13
ATOM     13  C   UNL     1       8.797   3.050  25.235  0.00  0.00    +0.060 C 
BRANCH  13  14
ATOM     14  C   UNL     1       7.780   4.041  25.804  0.00  0.00    -0.046 A 
ATOM     15  C   UNL     1       8.096   5.417  25.789  0.00  0.00    +0.004 A 
ATOM     16  C   UNL     1       7.361   6.351  26.532  0.00  0.00    +0.000 A 
ATOM     17  C   UNL     1       6.284   5.930  27.302  0.00  0.00    +0.000 A 
ATOM     18  C   UNL     1       5.921   4.584  27.288  0.00  0.00    +0.000 A 
ATOM     19  C   UNL     1       6.657   3.645  26.543  0.00  0.00    +0.004 A 
ENDBRANCH  13  14
ENDBRANCH   2  13
BRANCH   3  20
ATOM     20  C   UNL     1       7.385   3.053  21.810  0.00  0.00    +0.144 C 
BRANCH  20  21
ATOM     21  C   UNL     1       6.848   4.408  22.209  0.00  0.00    -0.029 A 
ATOM     22  C   UNL     1       5.658   4.481  22.946  0.00  0.00    +0.018 A 
ATOM     23  C   UNL     1       5.186   5.690  23.451  0.00  0.00    +0.037 A 
ATOM     24  C   UNL     1       5.888   6.864  23.165  0.00  0.00    +0.013 A 
ATOM     25  C   UNL     1       7.016   6.828  22.344  0.00  0.00    +0.001 A 
ATOM     26  C   UNL     1       7.492   5.605  21.860  0.00  0.00    +0.005 A 
BRANCH  23  27
ATOM     27  C   UNL     1       4.009   5.764  24.361  0.00  0.00    +0.250 C 
ATOM     28  N   UNL     1       3.411   4.565  24.706  0.00  0.00    -0.261 N 
ATOM     29  H   UNL     1       3.687   3.682  24.312  0.00  0.00    +0.157 HD
ATOM     30  C   UNL     1       2.349   4.525  25.564  0.00  0.00    +0.165 A 
ATOM     31  S   UNL     1       1.630   2.983  25.738  0.00  0.00    -0.061 S 
ATOM     32  C   UNL     1       0.443   3.682  26.766  0.00  0.00    +0.068 A 
ATOM     33  C   UNL     1       0.708   5.017  26.942  0.00  0.00    +0.120 A 
ATOM     34  N   UNL     1       1.806   5.496  26.254  0.00  0.00    -0.233 NA
ATOM     35  O   UNL     1       3.622   6.871  24.703  0.00  0.00    -0.270 OA
ENDBRANCH  23  27
ENDBRANCH  20  21
ENDBRANCH   3  20
BRANCH   6  36
ATOM     36  C   UNL     1       7.722  -0.242  25.312  0.00  0.00    +0.144 C 
BRANCH  36  37
ATOM     37  C   UNL     1       6.360  -0.777  25.841  0.00  0.00    -0.029 A 
ATOM     38  C   UNL     1       5.493  -1.729  25.262  0.00  0.00    +0.018 A 
ATOM     39  C   UNL     1       4.374  -2.260  25.985  0.00  0.00    +0.037 A 
ATOM     40  C   UNL     1       4.104  -1.840  27.292  0.00  0.00    +0.013 A 
ATOM     41  C   UNL     1       4.941  -0.917  27.892  0.00  0.00    +0.001 A 
ATOM     42  C   UNL     1       6.043  -0.407  27.182  0.00  0.00    +0.005 A 
BRANCH  39  43
ATOM     43  C   UNL     1       3.432  -3.310  25.466  0.00  0.00    +0.250 C 
ATOM     44  N   UNL     1       3.983  -4.562  25.335  0.00  0.00    -0.261 N 
ATOM     45  H   UNL     1       4.925  -4.743  25.641  0.00  0.00    +0.157 HD
ATOM     46  C   UNL     1       3.233  -5.660  24.996  0.00  0.00    +0.165 A 
ATOM     47  S   UNL     1       4.075  -7.142  25.143  0.00  0.00    -0.061 S 
ATOM     48  C   UNL     1       2.660  -7.977  24.643  0.00  0.00    +0.068 A 
ATOM     49  C   UNL     1       1.657  -7.066  24.386  0.00  0.00    +0.120 A 
ATOM     50  N   UNL     1       1.992  -5.741  24.592  0.00  0.00    -0.233 NA
ATOM     51  O   UNL     1       2.256  -3.006  25.301  0.00  0.00    -0.270 OA
ENDBRANCH  39  43
ENDBRANCH  36  37
ENDBRANCH   6  36
BRANCH   7  52
ATOM     52  C   UNL     1       9.893  -1.722  23.496  0.00  0.00    +0.060 C 
BRANCH  52  53
ATOM     53  C   UNL     1       8.733  -2.690  23.346  0.00  0.00    -0.046 A 
ATOM     54  C   UNL     1       7.876  -2.642  22.235  0.00  0.00    +0.004 A 
ATOM     55  C   UNL     1       6.848  -3.581  22.086  0.00  0.00    +0.000 A 
ATOM     56  C   UNL     1       6.672  -4.581  23.039  0.00  0.00    +0.000 A 
ATOM     57  C   UNL     1       7.503  -4.630  24.154  0.00  0.00    +0.000 A 
ATOM     58  C   UNL     1       8.520  -3.683  24.313  0.00  0.00    +0.004 A 
ENDBRANCH  52  53
ENDBRANCH   7  52
TORSDOF 12
ENDMDL
MODEL 3
REMARK VINA RESULT:      -7.3      3.518      6.324
REMARK  Name = 
REMARK  12 active torsions:
REMARK  status: ('A' for Active; 'I' for Inactive)
REMARK    1  A    between atoms: O_1  and  C_2
REMARK    2  A    between atoms: C_4  and  O_6
REMARK    3  A    between atoms: C_7  and  C_9
REMARK    4  A    between atoms: C_9  and  C_10
REMARK    5  A    between atoms: N_16  and  C_17
REMARK    6  A    between atoms: C_17  and  C_18
REMARK    7  A    between atoms: C_22  and  C_24
REMARK    8  A    between atoms: N_34  and  C_35
REMARK    9  A    between atoms: C_35  and  C_36
REMARK   10  A    between atoms: C_40  and  C_42
REMARK   11  A    between atoms: C_50  and  C_52
REMARK   12  A    between atoms: C_52  and  C_53
REMARK                            x       y       z     vdW  Elec       q    Type
REMARK                         _______ _______ _______ _____ _____    ______ ____
ROOT
ATOM      1  C   UNL     1       7.825   0.512  26.866  0.00  0.00    +0.165 C 
ATOM      2  C   UNL     1       6.521  -0.225  26.511  0.00  0.00    +0.113 C 
ATOM      3  N   UNL     1       5.560   0.739  25.848  0.00  0.00    -0.275 N 
ATOM      4  C   UNL     1       5.676   1.295  24.558  0.00  0.00    +0.306 C 
ATOM      5  O   UNL     1       4.813   2.027  24.073  0.00  0.00    -0.252 OA
ATOM      6  N   UNL     1       6.894   1.176  23.894  0.00  0.00    -0.275 N 
ATOM      7  C   UNL     1       8.029   1.823  24.609  0.00  0.00    +0.113 C 
ATOM      8  C   UNL     1       8.723   0.920  25.677  0.00  0.00    +0.165 C 
ENDROOT
BRANCH   1   9
ATOM      9  O   UNL     1       7.511   1.673  27.664  0.00  0.00    -0.387 OA
ATOM     10  H   UNL     1       8.068   2.408  27.347  0.00  0.00    +0.210 HD
ENDBRANCH   1   9
BRANCH   8  11
ATOM     11  O   UNL     1       9.331  -0.222  25.073  0.00  0.00    -0.387 OA
ATOM     12  H   UNL     1      10.276  -0.212  25.316  0.00  0.00    +0.210 HD
ENDBRANCH   8  11
BRANCH   2  13
ATOM     13  C   UNL     1       6.677  -1.584  25.773  0.00  0.00    +0.060 C 
BRANCH  13  14
ATOM     14  C   UNL     1       6.873  -2.911  26.507  0.00  0.00    -0.046 A 
ATOM     15  C   UNL     1       8.096  -3.599  26.347  0.00  0.00    +0.004 A 
ATOM     16  C   UNL     1       8.252  -4.933  26.748  0.00  0.00    +0.000 A 
ATOM     17  C   UNL     1       7.186  -5.610  27.328  0.00  0.00    +0.000 A 
ATOM     18  C   UNL     1       5.986  -4.934  27.546  0.00  0.00    +0.000 A 
ATOM     19  C   UNL     1       5.829  -3.595  27.145  0.00  0.00    +0.004 A 
ENDBRANCH  13  14
ENDBRANCH   2  13
BRANCH   3  20
ATOM     20  C   UNL     1       4.434   1.214  26.705  0.00  0.00    +0.144 C 
BRANCH  20  21
ATOM     21  C   UNL     1       4.047   0.259  27.812  0.00  0.00    -0.029 A 
ATOM     22  C   UNL     1       3.181  -0.804  27.523  0.00  0.00    +0.018 A 
ATOM     23  C   UNL     1       2.894  -1.787  28.467  0.00  0.00    +0.037 A 
ATOM     24  C   UNL     1       3.439  -1.675  29.749  0.00  0.00    +0.013 A 
ATOM     25  C   UNL     1       4.217  -0.568  30.089  0.00  0.00    +0.001 A 
ATOM     26  C   UNL     1       4.516   0.401  29.127  0.00  0.00    +0.005 A 
BRANCH  23  27
ATOM     27  C   UNL     1       2.098  -3.001  28.131  0.00  0.00    +0.250 C 
ATOM     28  N   UNL     1       2.562  -4.206  28.626  0.00  0.00    -0.261 N 
ATOM     29  H   UNL     1       3.432  -4.297  29.122  0.00  0.00    +0.157 HD
ATOM     30  C   UNL     1       1.882  -5.370  28.404  0.00  0.00    +0.165 A 
ATOM     31  S   UNL     1       2.689  -6.781  28.938  0.00  0.00    -0.061 S 
ATOM     32  C   UNL     1       1.409  -7.726  28.289  0.00  0.00    +0.068 A 
ATOM     33  C   UNL     1       0.443  -6.905  27.764  0.00  0.00    +0.120 A 
ATOM     34  N   UNL     1       0.716  -5.552  27.837  0.00  0.00    -0.233 NA
ATOM     35  O   UNL     1       1.123  -2.860  27.408  0.00  0.00    -0.270 OA
ENDBRANCH  23  27
ENDBRANCH  20  21
ENDBRANCH   3  20
BRANCH   6  36
ATOM     36  C   UNL     1       7.062   0.158  22.804  0.00  0.00    +0.144 C 
BRANCH  36  37
ATOM     37  C   UNL     1       7.064  -1.395  22.903  0.00  0.00    -0.029 A 
ATOM     38  C   UNL     1       5.976  -2.292  22.838  0.00  0.00    +0.018 A 
ATOM     39  C   UNL     1       6.179  -3.709  22.741  0.00  0.00    +0.037 A 
ATOM     40  C   UNL     1       7.471  -4.245  22.714  0.00  0.00    +0.013 A 
ATOM     41  C   UNL     1       8.558  -3.392  22.764  0.00  0.00    +0.001 A 
ATOM     42  C   UNL     1       8.354  -2.003  22.850  0.00  0.00    +0.005 A 
BRANCH  39  43
ATOM     43  C   UNL     1       5.083  -4.729  22.618  0.00  0.00    +0.250 C 
ATOM     44  N   UNL     1       4.019  -4.536  23.467  0.00  0.00    -0.261 N 
ATOM     45  H   UNL     1       3.977  -3.724  24.060  0.00  0.00    +0.157 HD
ATOM     46  C   UNL     1       2.880  -5.298  23.398  0.00  0.00    +0.165 A 
ATOM     47  S   UNL     1       1.601  -4.716  24.373  0.00  0.00    -0.061 S 
ATOM     48  C   UNL     1       0.610  -6.003  23.816  0.00  0.00    +0.068 A 
ATOM     49  C   UNL     1       1.332  -6.790  22.942  0.00  0.00    +0.120 A 
ATOM     50  N   UNL     1       2.630  -6.380  22.706  0.00  0.00    -0.233 NA
ATOM     51  O   UNL     1       5.167  -5.569  21.728  0.00  0.00    -0.270 OA
ENDBRANCH  39  43
ENDBRANCH  36  37
ENDBRANCH   6  36
BRANCH   7  52
ATOM     52  C   UNL     1       8.997   2.553  23.652  0.00  0.00    +0.060 C 
BRANCH  52  53
ATOM     53  C   UNL     1       8.610   3.991  23.352  0.00  0.00    -0.046 A 
ATOM     54  C   UNL     1       9.360   5.070  23.846  0.00  0.00    +0.004 A 
ATOM     55  C   UNL     1       9.021   6.387  23.509  0.00  0.00    +0.000 A 
ATOM     56  C   UNL     1       7.939   6.636  22.669  0.00  0.00    +0.000 A 
ATOM     57  C   UNL     1       7.177   5.576  22.186  0.00  0.00    +0.000 A 
ATOM     58  C   UNL     1       7.503   4.262  22.535  0.00  0.00    +0.004 A 
ENDBRANCH  52  53
ENDBRANCH   7  52
TORSDOF 12
ENDMDL
MODEL 4
REMARK VINA RESULT:      -7.0      3.181      6.202
REMARK  Name = 
REMARK  12 active torsions:
REMARK  status: ('A' for Active; 'I' for Inactive)
REMARK    1  A    between atoms: O_1  and  C_2
REMARK    2  A    between atoms: C_4  and  O_6
REMARK    3  A    between atoms: C_7  and  C_9
REMARK    4  A    between atoms: C_9  and  C_10
REMARK    5  A    between atoms: N_16  and  C_17
REMARK    6  A    between atoms: C_17  and  C_18
REMARK    7  A    between atoms: C_22  and  C_24
REMARK    8  A    between atoms: N_34  and  C_35
REMARK    9  A    between atoms: C_35  and  C_36
REMARK   10  A    between atoms: C_40  and  C_42
REMARK   11  A    between atoms: C_50  and  C_52
REMARK   12  A    between atoms: C_52  and  C_53
REMARK                            x       y       z     vdW  Elec       q    Type
REMARK                         _______ _______ _______ _____ _____    ______ ____
ROOT
ATOM      1  C   UNL     1       7.191   3.310  26.780  0.00  0.00    +0.165 C 
ATOM      2  C   UNL     1       6.032   2.403  26.325  0.00  0.00    +0.113 C 
ATOM      3  N   UNL     1       4.923   3.254  25.744  0.00  0.00    -0.275 N 
ATOM      4  C   UNL     1       4.947   3.953  24.520  0.00  0.00    +0.306 C 
ATOM      5  O   UNL     1       3.972   4.574  24.094  0.00  0.00    -0.252 OA
ATOM      6  N   UNL     1       6.168   4.110  23.872  0.00  0.00    -0.275 N 
ATOM      7  C   UNL     1       7.175   4.862  24.671  0.00  0.00    +0.113 C 
ATOM      8  C   UNL     1       8.009   3.985  25.657  0.00  0.00    +0.165 C 
ENDROOT
BRANCH   1   9
ATOM      9  O   UNL     1       6.682   4.312  27.684  0.00  0.00    -0.387 OA
ATOM     10  H   UNL     1       5.715   4.347  27.572  0.00  0.00    +0.210 HD
ENDBRANCH   1   9
BRANCH   8  11
ATOM     11  O   UNL     1       8.804   3.030  24.952  0.00  0.00    -0.387 OA
ATOM     12  H   UNL     1       8.195   2.454  24.454  0.00  0.00    +0.210 HD
ENDBRANCH   8  11
BRANCH   2  13
ATOM     13  C   UNL     1       6.420   1.174  25.457  0.00  0.00    +0.060 C 
BRANCH  13  14
ATOM     14  C   UNL     1       6.853  -0.165  26.056  0.00  0.00    -0.046 A 
ATOM     15  C   UNL     1       8.231  -0.463  26.121  0.00  0.00    +0.004 A 
ATOM     16  C   UNL     1       8.695  -1.759  26.389  0.00  0.00    +0.000 A 
ATOM     17  C   UNL     1       7.787  -2.787  26.607  0.00  0.00    +0.000 A 
ATOM     18  C   UNL     1       6.422  -2.504  26.603  0.00  0.00    +0.000 A 
ATOM     19  C   UNL     1       5.955  -1.204  26.335  0.00  0.00    +0.004 A 
ENDBRANCH  13  14
ENDBRANCH   2  13
BRANCH   3  20
ATOM     20  C   UNL     1       3.731   3.441  26.623  0.00  0.00    +0.144 C 
BRANCH  20  21
ATOM     21  C   UNL     1       3.448   2.277  27.545  0.00  0.00    -0.029 A 
ATOM     22  C   UNL     1       2.882   1.109  27.016  0.00  0.00    +0.018 A 
ATOM     23  C   UNL     1       2.720  -0.037  27.789  0.00  0.00    +0.037 A 
ATOM     24  C   UNL     1       3.078   0.000  29.140  0.00  0.00    +0.013 A 
ATOM     25  C   UNL     1       3.542   1.185  29.713  0.00  0.00    +0.001 A 
ATOM     26  C   UNL     1       3.721   2.323  28.921  0.00  0.00    +0.005 A 
BRANCH  23  27
ATOM     27  C   UNL     1       2.263  -1.330  27.206  0.00  0.00    +0.250 C 
ATOM     28  N   UNL     1       2.919  -2.471  27.630  0.00  0.00    -0.261 N 
ATOM     29  H   UNL     1       3.720  -2.450  28.237  0.00  0.00    +0.157 HD
ATOM     30  C   UNL     1       2.548  -3.707  27.181  0.00  0.00    +0.165 A 
ATOM     31  S   UNL     1       3.577  -4.983  27.671  0.00  0.00    -0.061 S 
ATOM     32  C   UNL     1       2.630  -6.070  26.737  0.00  0.00    +0.068 A 
ATOM     33  C   UNL     1       1.578  -5.400  26.167  0.00  0.00    +0.120 A 
ATOM     34  N   UNL     1       1.531  -4.044  26.428  0.00  0.00    -0.233 NA
ATOM     35  O   UNL     1       1.378  -1.293  26.364  0.00  0.00    -0.270 OA
ENDBRANCH  23  27
ENDBRANCH  20  21
ENDBRANCH   3  20
BRANCH   6  36
ATOM     36  C   UNL     1       6.510   3.254  22.689  0.00  0.00    +0.144 C 
BRANCH  36  37
ATOM     37  C   UNL     1       7.574   2.125  22.567  0.00  0.00    -0.029 A 
ATOM     38  C   UNL     1       7.401   0.726  22.645  0.00  0.00    +0.018 A 
ATOM     39  C   UNL     1       8.459  -0.180  22.307  0.00  0.00    +0.037 A 
ATOM     40  C   UNL     1       9.706   0.301  21.893  0.00  0.00    +0.013 A 
ATOM     41  C   UNL     1       9.905   1.666  21.795  0.00  0.00    +0.001 A 
ATOM     42  C   UNL     1       8.861   2.550  22.119  0.00  0.00    +0.005 A 
BRANCH  39  43
ATOM     43  C   UNL     1       8.345  -1.678  22.314  0.00  0.00    +0.250 C 
ATOM     44  N   UNL     1       7.130  -2.161  22.738  0.00  0.00    -0.261 N 
ATOM     45  H   UNL     1       6.374  -1.532  22.949  0.00  0.00    +0.157 HD
ATOM     46  C   UNL     1       6.814  -3.495  22.685  0.00  0.00    +0.165 A 
ATOM     47  S   UNL     1       5.170  -3.828  23.021  0.00  0.00    -0.061 S 
ATOM     48  C   UNL     1       5.473  -5.499  22.767  0.00  0.00    +0.068 A 
ATOM     49  C   UNL     1       6.805  -5.682  22.462  0.00  0.00    +0.120 A 
ATOM     50  N   UNL     1       7.567  -4.530  22.415  0.00  0.00    -0.233 NA
ATOM     51  O   UNL     1       9.276  -2.334  21.858  0.00  0.00    -0.270 OA
ENDBRANCH  39  43
ENDBRANCH  36  37
ENDBRANCH   6  36
BRANCH   7  52
ATOM     52  C   UNL     1       8.007   5.841  23.814  0.00  0.00    +0.060 C 
BRANCH  52  53
ATOM     53  C   UNL     1       9.406   6.099  24.345  0.00  0.00    -0.046 A 
ATOM     54  C   UNL     1      10.546   5.686  23.637  0.00  0.00    +0.004 A 
ATOM     55  C   UNL     1      11.829   5.985  24.114  0.00  0.00    +0.000 A 
ATOM     56  C   UNL     1      11.984   6.707  25.295  0.00  0.00    +0.000 A 
ATOM     57  C   UNL     1      10.862   7.107  26.015  0.00  0.00    +0.000 A 
ATOM     58  C   UNL     1       9.582   6.795  25.549  0.00  0.00    +0.004 A 
ENDBRANCH  52  53
ENDBRANCH   7  52
TORSDOF 12
ENDMDL
MODEL 5
REMARK VINA RESULT:      -6.8      3.246      9.169
REMARK  Name = 
REMARK  12 active torsions:
REMARK  status: ('A' for Active; 'I' for Inactive)
REMARK    1  A    between atoms: O_1  and  C_2
REMARK    2  A    between atoms: C_4  and  O_6
REMARK    3  A    between atoms: C_7  and  C_9
REMARK    4  A    between atoms: C_9  and  C_10
REMARK    5  A    between atoms: N_16  and  C_17
REMARK    6  A    between atoms: C_17  and  C_18
REMARK    7  A    between atoms: C_22  and  C_24
REMARK    8  A    between atoms: N_34  and  C_35
REMARK    9  A    between atoms: C_35  and  C_36
REMARK   10  A    between atoms: C_40  and  C_42
REMARK   11  A    between atoms: C_50  and  C_52
REMARK   12  A    between atoms: C_52  and  C_53
REMARK                            x       y       z     vdW  Elec       q    Type
REMARK                         _______ _______ _______ _____ _____    ______ ____
ROOT
ATOM      1  C   UNL     1       9.635   0.604  24.997  0.00  0.00    +0.165 C 
ATOM      2  C   UNL     1       8.415   1.534  24.851  0.00  0.00    +0.113 C 
ATOM      3  N   UNL     1       7.637   1.155  23.609  0.00  0.00    -0.275 N 
ATOM      4  C   UNL     1       6.860  -0.005  23.419  0.00  0.00    +0.306 C 
ATOM      5  O   UNL     1       6.209  -0.204  22.393  0.00  0.00    -0.252 OA
ATOM      6  N   UNL     1       6.994  -1.047  24.332  0.00  0.00    -0.275 N 
ATOM      7  C   UNL     1       8.371  -1.609  24.398  0.00  0.00    +0.113 C 
ATOM      8  C   UNL     1       9.332  -0.862  25.376  0.00  0.00    +0.165 C 
ENDROOT
BRANCH   1   9
ATOM      9  O   UNL     1      10.410   0.645  23.781  0.00  0.00    -0.387 OA
ATOM     10  H   UNL     1      10.086  -0.067  23.200  0.00  0.00    +0.210 HD
ENDBRANCH   1   9
BRANCH   8  11
ATOM     11  O   UNL     1       8.877  -0.963  26.726  0.00  0.00    -0.387 OA
ATOM     12  H   UNL     1       9.517  -0.485  27.286  0.00  0.00    +0.210 HD
ENDBRANCH   8  11
BRANCH   2  13
ATOM     13  C   UNL     1       7.541   1.727  26.121  0.00  0.00    +0.060 C 
BRANCH  13  14
ATOM     14  C   UNL     1       7.177   3.104  26.679  0.00  0.00    -0.046 A 
ATOM     15  C   UNL     1       6.048   3.216  27.520  0.00  0.00    +0.004 A 
ATOM     16  C   UNL     1       5.487   4.460  27.841  0.00  0.00    +0.000 A 
ATOM     17  C   UNL     1       6.049   5.624  27.332  0.00  0.00    +0.000 A 
ATOM     18  C   UNL     1       7.197   5.541  26.545  0.00  0.00    +0.000 A 
ATOM     19  C   UNL     1       7.761   4.293  26.223  0.00  0.00    +0.004 A 
ENDBRANCH  13  14
ENDBRANCH   2  13
BRANCH   3  20
ATOM     20  C   UNL     1       7.808   2.071  22.442  0.00  0.00    +0.144 C 
BRANCH  20  21
ATOM     21  C   UNL     1       7.108   3.403  22.587  0.00  0.00    -0.029 A 
ATOM     22  C   UNL     1       5.865   3.454  23.232  0.00  0.00    +0.018 A 
ATOM     23  C   UNL     1       5.237   4.665  23.510  0.00  0.00    +0.037 A 
ATOM     24  C   UNL     1       5.836   5.853  23.081  0.00  0.00    +0.013 A 
ATOM     25  C   UNL     1       7.020   5.818  22.343  0.00  0.00    +0.001 A 
ATOM     26  C   UNL     1       7.652   4.597  22.090  0.00  0.00    +0.005 A 
BRANCH  23  27
ATOM     27  C   UNL     1       3.993   4.745  24.325  0.00  0.00    +0.250 C 
ATOM     28  N   UNL     1       3.608   3.595  24.990  0.00  0.00    -0.261 N 
ATOM     29  H   UNL     1       4.081   2.714  24.879  0.00  0.00    +0.157 HD
ATOM     30  C   UNL     1       2.503   3.578  25.792  0.00  0.00    +0.165 A 
ATOM     31  S   UNL     1       2.079   2.032  26.391  0.00  0.00    -0.061 S 
ATOM     32  C   UNL     1       0.697   2.729  27.136  0.00  0.00    +0.068 A 
ATOM     33  C   UNL     1       0.686   4.084  26.921  0.00  0.00    +0.120 A 
ATOM     34  N   UNL     1       1.727   4.569  26.154  0.00  0.00    -0.233 NA
ATOM     35  O   UNL     1       3.374   5.799  24.318  0.00  0.00    -0.270 OA
ENDBRANCH  23  27
ENDBRANCH  20  21
ENDBRANCH   3  20
BRANCH   6  36
ATOM     36  C   UNL     1       5.950  -1.261  25.388  0.00  0.00    +0.144 C 
BRANCH  36  37
ATOM     37  C   UNL     1       5.347  -2.595  25.917  0.00  0.00    -0.029 A 
ATOM     38  C   UNL     1       4.696  -3.623  25.201  0.00  0.00    +0.018 A 
ATOM     39  C   UNL     1       4.382  -4.880  25.814  0.00  0.00    +0.037 A 
ATOM     40  C   UNL     1       4.709  -5.123  27.153  0.00  0.00    +0.013 A 
ATOM     41  C   UNL     1       5.357  -4.140  27.879  0.00  0.00    +0.001 A 
ATOM     42  C   UNL     1       5.671  -2.913  27.270  0.00  0.00    +0.005 A 
BRANCH  39  43
ATOM     43  C   UNL     1       3.738  -6.043  25.114  0.00  0.00    +0.250 C 
ATOM     44  N   UNL     1       2.607  -5.729  24.398  0.00  0.00    -0.261 N 
ATOM     45  H   UNL     1       2.304  -4.773  24.311  0.00  0.00    +0.157 HD
ATOM     46  C   UNL     1       1.969  -6.644  23.599  0.00  0.00    +0.165 A 
ATOM     47  S   UNL     1       0.747  -5.965  22.614  0.00  0.00    -0.061 S 
ATOM     48  C   UNL     1       0.447  -7.517  21.942  0.00  0.00    +0.068 A 
ATOM     49  C   UNL     1       1.288  -8.439  22.530  0.00  0.00    +0.120 A 
ATOM     50  N   UNL     1       2.158  -7.932  23.476  0.00  0.00    -0.233 NA
ATOM     51  O   UNL     1       4.306  -7.129  25.147  0.00  0.00    -0.270 OA
ENDBRANCH  39  43
ENDBRANCH  36  37
ENDBRANCH   6  36
BRANCH   7  52
ATOM     52  C   UNL     1       8.381  -3.148  24.532  0.00  0.00    +0.060 C 
BRANCH  52  53
ATOM     53  C   UNL     1       7.687  -3.877  23.395  0.00  0.00    -0.046 A 
ATOM     54  C   UNL     1       7.719  -5.277  23.294  0.00  0.00    +0.004 A 
ATOM     55  C   UNL     1       7.023  -5.934  22.272  0.00  0.00    +0.000 A 
ATOM     56  C   UNL     1       6.281  -5.201  21.348  0.00  0.00    +0.000 A 
ATOM     57  C   UNL     1       6.254  -3.812  21.428  0.00  0.00    +0.000 A 
ATOM     58  C   UNL     1       6.962  -3.153  22.437  0.00  0.00    +0.004 A 
ENDBRANCH  52  53
ENDBRANCH   7  52
TORSDOF 12
ENDMDL
MODEL 6
REMARK VINA RESULT:      -6.6      1.542      2.142
REMARK  Name = 
REMARK  12 active torsions:
REMARK  status: ('A' for Active; 'I' for Inactive)
REMARK    1  A    between atoms: O_1  and  C_2
REMARK    2  A    between atoms: C_4  and  O_6
REMARK    3  A    between atoms: C_7  and  C_9
REMARK    4  A    between atoms: C_9  and  C_10
REMARK    5  A    between atoms: N_16  and  C_17
REMARK    6  A    between atoms: C_17  and  C_18
REMARK    7  A    between atoms: C_22  and  C_24
REMARK    8  A    between atoms: N_34  and  C_35
REMARK    9  A    between atoms: C_35  and  C_36
REMARK   10  A    between atoms: C_40  and  C_42
REMARK   11  A    between atoms: C_50  and  C_52
REMARK   12  A    between atoms: C_52  and  C_53
REMARK                            x       y       z     vdW  Elec       q    Type
REMARK                         _______ _______ _______ _____ _____    ______ ____
ROOT
ATOM      1  C   UNL     1       9.261   0.400  24.291  0.00  0.00    +0.165 C 
ATOM      2  C   UNL     1       7.913  -0.178  24.762  0.00  0.00    +0.113 C 
ATOM      3  N   UNL     1       7.272   0.778  25.746  0.00  0.00    -0.275 N 
ATOM      4  C   UNL     1       6.708   2.037  25.458  0.00  0.00    +0.306 C 
ATOM      5  O   UNL     1       6.150   2.724  26.314  0.00  0.00    -0.252 OA
ATOM      6  N   UNL     1       6.966   2.607  24.215  0.00  0.00    -0.275 N 
ATOM      7  C   UNL     1       8.412   2.855  23.961  0.00  0.00    +0.113 C 
ATOM      8  C   UNL     1       9.187   1.636  23.367  0.00  0.00    +0.165 C 
ENDROOT
BRANCH   1   9
ATOM      9  O   UNL     1      10.079   0.697  25.441  0.00  0.00    -0.387 OA
ATOM     10  H   UNL     1       9.481   0.925  26.177  0.00  0.00    +0.210 HD
ENDBRANCH   1   9
BRANCH   8  11
ATOM     11  O   UNL     1       8.687   1.286  22.075  0.00  0.00    -0.387 OA
ATOM     12  H   UNL     1       9.361   1.551  21.421  0.00  0.00    +0.210 HD
ENDBRANCH   8  11
BRANCH   2  13
ATOM     13  C   UNL     1       6.957  -0.691  23.651  0.00  0.00    +0.060 C 
BRANCH  13  14
ATOM     14  C   UNL     1       6.697  -2.177  23.398  0.00  0.00    -0.046 A 
ATOM     15  C   UNL     1       7.333  -3.126  24.228  0.00  0.00    +0.004 A 
ATOM     16  C   UNL     1       7.374  -4.487  23.896  0.00  0.00    +0.000 A 
ATOM     17  C   UNL     1       6.770  -4.933  22.727  0.00  0.00    +0.000 A 
ATOM     18  C   UNL     1       6.089  -4.022  21.921  0.00  0.00    +0.000 A 
ATOM     19  C   UNL     1       6.046  -2.656  22.253  0.00  0.00    +0.004 A 
ENDBRANCH  13  14
ENDBRANCH   2  13
BRANCH   3  20
ATOM     20  C   UNL     1       7.347   0.367  27.180  0.00  0.00    +0.144 C 
BRANCH  20  21
ATOM     21  C   UNL     1       6.137  -0.394  27.674  0.00  0.00    -0.029 A 
ATOM     22  C   UNL     1       5.832  -1.636  27.101  0.00  0.00    +0.018 A 
ATOM     23  C   UNL     1       4.811  -2.439  27.602  0.00  0.00    +0.037 A 
ATOM     24  C   UNL     1       4.037  -1.965  28.665  0.00  0.00    +0.013 A 
ATOM     25  C   UNL     1       4.255  -0.687  29.181  0.00  0.00    +0.001 A 
ATOM     26  C   UNL     1       5.297   0.101  28.683  0.00  0.00    +0.005 A 
BRANCH  23  27
ATOM     27  C   UNL     1       4.572  -3.822  27.104  0.00  0.00    +0.250 C 
ATOM     28  N   UNL     1       4.042  -3.943  25.832  0.00  0.00    -0.261 N 
ATOM     29  H   UNL     1       3.748  -3.154  25.283  0.00  0.00    +0.157 HD
ATOM     30  C   UNL     1       3.822  -5.170  25.272  0.00  0.00    +0.165 A 
ATOM     31  S   UNL     1       3.002  -5.132  23.770  0.00  0.00    -0.061 S 
ATOM     32  C   UNL     1       3.001  -6.850  23.758  0.00  0.00    +0.068 A 
ATOM     33  C   UNL     1       3.665  -7.324  24.861  0.00  0.00    +0.120 A 
ATOM     34  N   UNL     1       4.139  -6.356  25.725  0.00  0.00    -0.233 NA
ATOM     35  O   UNL     1       4.814  -4.750  27.861  0.00  0.00    -0.270 OA
ENDBRANCH  23  27
ENDBRANCH  20  21
ENDBRANCH   3  20
BRANCH   6  36
ATOM     36  C   UNL     1       5.921   2.574  23.139  0.00  0.00    +0.144 C 
BRANCH  36  37
ATOM     37  C   UNL     1       4.585   3.366  23.043  0.00  0.00    -0.029 A 
ATOM     38  C   UNL     1       4.141   4.244  22.031  0.00  0.00    +0.018 A 
ATOM     39  C   UNL     1       2.793   4.732  22.000  0.00  0.00    +0.037 A 
ATOM     40  C   UNL     1       1.874   4.353  22.985  0.00  0.00    +0.013 A 
ATOM     41  C   UNL     1       2.274   3.484  23.984  0.00  0.00    +0.001 A 
ATOM     42  C   UNL     1       3.594   3.002  24.004  0.00  0.00    +0.005 A 
BRANCH  39  43
ATOM     43  C   UNL     1       2.225   5.626  20.935  0.00  0.00    +0.250 C 
ATOM     44  N   UNL     1       2.198   5.077  19.675  0.00  0.00    -0.261 N 
ATOM     45  H   UNL     1       2.477   4.120  19.527  0.00  0.00    +0.157 HD
ATOM     46  C   UNL     1       1.598   5.706  18.614  0.00  0.00    +0.165 A 
ATOM     47  S   UNL     1       1.464   4.727  17.218  0.00  0.00    -0.061 S 
ATOM     48  C   UNL     1       0.675   6.019  16.407  0.00  0.00    +0.068 A 
ATOM     49  C   UNL     1       0.587   7.104  17.253  0.00  0.00    +0.120 A 
ATOM     50  N   UNL     1       1.115   6.918  18.516  0.00  0.00    -0.233 NA
ATOM     51  O   UNL     1       1.748   6.704  21.274  0.00  0.00    -0.270 OA
ENDBRANCH  39  43
ENDBRANCH  36  37
ENDBRANCH   6  36
BRANCH   7  52
ATOM     52  C   UNL     1       8.670   4.197  23.241  0.00  0.00    +0.060 C 
BRANCH  52  53
ATOM     53  C   UNL     1       9.455   5.204  24.064  0.00  0.00    -0.046 A 
ATOM     54  C   UNL     1       8.888   5.840  25.180  0.00  0.00    +0.004 A 
ATOM     55  C   UNL     1       9.647   6.721  25.960  0.00  0.00    +0.000 A 
ATOM     56  C   UNL     1      10.979   6.968  25.639  0.00  0.00    +0.000 A 
ATOM     57  C   UNL     1      11.548   6.358  24.526  0.00  0.00    +0.000 A 
ATOM     58  C   UNL     1      10.788   5.491  23.735  0.00  0.00    +0.004 A 
ENDBRANCH  52  53
ENDBRANCH   7  52
TORSDOF 12
ENDMDL
MODEL 7
REMARK VINA RESULT:      -6.3      2.258      9.480
REMARK  Name = 
REMARK  12 active torsions:
REMARK  status: ('A' for Active; 'I' for Inactive)
REMARK    1  A    between atoms: O_1  and  C_2
REMARK    2  A    between atoms: C_4  and  O_6
REMARK    3  A    between atoms: C_7  and  C_9
REMARK    4  A    between atoms: C_9  and  C_10
REMARK    5  A    between atoms: N_16  and  C_17
REMARK    6  A    between atoms: C_17  and  C_18
REMARK    7  A    between atoms: C_22  and  C_24
REMARK    8  A    between atoms: N_34  and  C_35
REMARK    9  A    between atoms: C_35  and  C_36
REMARK   10  A    between atoms: C_40  and  C_42
REMARK   11  A    between atoms: C_50  and  C_52
REMARK   12  A    between atoms: C_52  and  C_53
REMARK                            x       y       z     vdW  Elec       q    Type
REMARK                         _______ _______ _______ _____ _____    ______ ____
ROOT
ATOM      1  C   UNL     1       9.806   0.248  24.961  0.00  0.00    +0.165 C 
ATOM      2  C   UNL     1       8.943   1.521  24.898  0.00  0.00    +0.113 C 
ATOM      3  N   UNL     1       8.321   1.642  23.523  0.00  0.00    -0.275 N 
ATOM      4  C   UNL     1       7.296   0.838  22.984  0.00  0.00    +0.306 C 
ATOM      5  O   UNL     1       6.806   1.046  21.874  0.00  0.00    -0.252 OA
ATOM      6  N   UNL     1       6.969  -0.343  23.642  0.00  0.00    -0.275 N 
ATOM      7  C   UNL     1       8.098  -1.310  23.732  0.00  0.00    +0.113 C 
ATOM      8  C   UNL     1       9.042  -1.095  24.957  0.00  0.00    +0.165 C 
ENDROOT
BRANCH   1   9
ATOM      9  O   UNL     1      10.764   0.270  23.883  0.00  0.00    -0.387 OA
ATOM     10  H   UNL     1      10.339  -0.133  23.103  0.00  0.00    +0.210 HD
ENDBRANCH   1   9
BRANCH   8  11
ATOM     11  O   UNL     1       8.346  -1.297  26.188  0.00  0.00    -0.387 OA
ATOM     12  H   UNL     1       9.017  -1.450  26.880  0.00  0.00    +0.210 HD
ENDBRANCH   8  11
BRANCH   2  13
ATOM     13  C   UNL     1       7.948   1.738  26.072  0.00  0.00    +0.060 C 
BRANCH  13  14
ATOM     14  C   UNL     1       7.013   2.945  26.157  0.00  0.00    -0.046 A 
ATOM     15  C   UNL     1       7.550   4.192  26.548  0.00  0.00    +0.004 A 
ATOM     16  C   UNL     1       6.730   5.266  26.920  0.00  0.00    +0.000 A 
ATOM     17  C   UNL     1       5.348   5.120  26.901  0.00  0.00    +0.000 A 
ATOM     18  C   UNL     1       4.795   3.916  26.467  0.00  0.00    +0.000 A 
ATOM     19  C   UNL     1       5.617   2.838  26.093  0.00  0.00    +0.004 A 
ENDBRANCH  13  14
ENDBRANCH   2  13
BRANCH   3  20
ATOM     20  C   UNL     1       8.945   2.658  22.624  0.00  0.00    +0.144 C 
BRANCH  20  21
ATOM     21  C   UNL     1       8.546   4.085  22.925  0.00  0.00    -0.029 A 
ATOM     22  C   UNL     1       7.209   4.469  22.755  0.00  0.00    +0.018 A 
ATOM     23  C   UNL     1       6.758   5.729  23.139  0.00  0.00    +0.037 A 
ATOM     24  C   UNL     1       7.677   6.650  23.651  0.00  0.00    +0.013 A 
ATOM     25  C   UNL     1       9.032   6.325  23.728  0.00  0.00    +0.001 A 
ATOM     26  C   UNL     1       9.468   5.049  23.360  0.00  0.00    +0.005 A 
BRANCH  23  27
ATOM     27  C   UNL     1       5.316   6.100  23.106  0.00  0.00    +0.250 C 
ATOM     28  N   UNL     1       4.492   5.330  22.304  0.00  0.00    -0.261 N 
ATOM     29  H   UNL     1       4.838   4.603  21.702  0.00  0.00    +0.157 HD
ATOM     30  C   UNL     1       3.149   5.568  22.237  0.00  0.00    +0.165 A 
ATOM     31  S   UNL     1       2.318   4.636  21.067  0.00  0.00    -0.061 S 
ATOM     32  C   UNL     1       0.873   5.478  21.462  0.00  0.00    +0.068 A 
ATOM     33  C   UNL     1       1.114   6.363  22.483  0.00  0.00    +0.120 A 
ATOM     34  N   UNL     1       2.421   6.408  22.928  0.00  0.00    -0.233 NA
ATOM     35  O   UNL     1       4.965   7.080  23.747  0.00  0.00    -0.270 OA
ENDBRANCH  23  27
ENDBRANCH  20  21
ENDBRANCH   3  20
BRANCH   6  36
ATOM     36  C   UNL     1       5.737  -0.414  24.498  0.00  0.00    +0.144 C 
BRANCH  36  37
ATOM     37  C   UNL     1       4.968  -1.665  25.011  0.00  0.00    -0.029 A 
ATOM     38  C   UNL     1       4.407  -2.730  24.274  0.00  0.00    +0.018 A 
ATOM     39  C   UNL     1       3.910  -3.909  24.920  0.00  0.00    +0.037 A 
ATOM     40  C   UNL     1       3.961  -4.036  26.313  0.00  0.00    +0.013 A 
ATOM     41  C   UNL     1       4.516  -3.015  27.064  0.00  0.00    +0.001 A 
ATOM     42  C   UNL     1       5.011  -1.865  26.424  0.00  0.00    +0.005 A 
BRANCH  39  43
ATOM     43  C   UNL     1       3.345  -5.107  24.211  0.00  0.00    +0.250 C 
ATOM     44  N   UNL     1       2.768  -6.044  25.035  0.00  0.00    -0.261 N 
ATOM     45  H   UNL     1       2.683  -5.875  26.024  0.00  0.00    +0.157 HD
ATOM     46  C   UNL     1       2.094  -7.134  24.545  0.00  0.00    +0.165 A 
ATOM     47  S   UNL     1       1.248  -8.017  25.741  0.00  0.00    -0.061 S 
ATOM     48  C   UNL     1       0.682  -9.091  24.526  0.00  0.00    +0.068 A 
ATOM     49  C   UNL     1       1.193  -8.708  23.304  0.00  0.00    +0.120 A 
ATOM     50  N   UNL     1       1.999  -7.586  23.321  0.00  0.00    -0.233 NA
ATOM     51  O   UNL     1       3.347  -5.112  22.985  0.00  0.00    -0.270 OA
ENDBRANCH  39  43
ENDBRANCH  36  37
ENDBRANCH   6  36
BRANCH   7  52
ATOM     52  C   UNL     1       7.652  -2.772  23.509  0.00  0.00    +0.060 C 
BRANCH  52  53
ATOM     53  C   UNL     1       8.263  -3.765  24.481  0.00  0.00    -0.046 A 
ATOM     54  C   UNL     1       9.640  -4.035  24.485  0.00  0.00    +0.004 A 
ATOM     55  C   UNL     1      10.193  -4.909  25.429  0.00  0.00    +0.000 A 
ATOM     56  C   UNL     1       9.378  -5.514  26.383  0.00  0.00    +0.000 A 
ATOM     57  C   UNL     1       8.008  -5.267  26.379  0.00  0.00    +0.000 A 
ATOM     58  C   UNL     1       7.451  -4.408  25.427  0.00  0.00    +0.004 A 
ENDBRANCH  52  53
ENDBRANCH   7  52
TORSDOF 12
ENDMDL
MODEL 8
REMARK VINA RESULT:      -6.3      2.300      8.498
REMARK  Name = 
REMARK  12 active torsions:
REMARK  status: ('A' for Active; 'I' for Inactive)
REMARK    1  A    between atoms: O_1  and  C_2
REMARK    2  A    between atoms: C_4  and  O_6
REMARK    3  A    between atoms: C_7  and  C_9
REMARK    4  A    between atoms: C_9  and  C_10
REMARK    5  A    between atoms: N_16  and  C_17
REMARK    6  A    between atoms: C_17  and  C_18
REMARK    7  A    between atoms: C_22  and  C_24
REMARK    8  A    between atoms: N_34  and  C_35
REMARK    9  A    between atoms: C_35  and  C_36
REMARK   10  A    between atoms: C_40  and  C_42
REMARK   11  A    between atoms: C_50  and  C_52
REMARK   12  A    between atoms: C_52  and  C_53
REMARK                            x       y       z     vdW  Elec       q    Type
REMARK                         _______ _______ _______ _____ _____    ______ ____
ROOT
ATOM      1  C   UNL     1       6.450  -0.412  23.493  0.00  0.00    +0.165 C 
ATOM      2  C   UNL     1       7.767  -1.125  23.130  0.00  0.00    +0.113 C 
ATOM      3  N   UNL     1       8.938  -0.293  23.606  0.00  0.00    -0.275 N 
ATOM      4  C   UNL     1       9.340  -0.083  24.941  0.00  0.00    +0.306 C 
ATOM      5  O   UNL     1      10.347   0.562  25.235  0.00  0.00    -0.252 OA
ATOM      6  N   UNL     1       8.464  -0.446  25.959  0.00  0.00    -0.275 N 
ATOM      7  C   UNL     1       7.165   0.279  25.915  0.00  0.00    +0.113 C 
ATOM      8  C   UNL     1       6.087  -0.374  24.994  0.00  0.00    +0.165 C 
ENDROOT
BRANCH   1   9
ATOM      9  O   UNL     1       6.475   0.929  22.961  0.00  0.00    -0.387 OA
ATOM     10  H   UNL     1       6.055   0.905  22.082  0.00  0.00    +0.210 HD
ENDBRANCH   1   9
BRANCH   8  11
ATOM     11  O   UNL     1       5.718  -1.670  25.468  0.00  0.00    -0.387 OA
ATOM     12  H   UNL     1       6.315  -2.316  25.046  0.00  0.00    +0.210 HD
ENDBRANCH   8  11
BRANCH   2  13
ATOM     13  C   UNL     1       7.858  -2.631  23.499  0.00  0.00    +0.060 C 
BRANCH  13  14
ATOM     14  C   UNL     1       7.016  -3.708  22.814  0.00  0.00    -0.046 A 
ATOM     15  C   UNL     1       5.612  -3.668  22.967  0.00  0.00    +0.004 A 
ATOM     16  C   UNL     1       4.800  -4.756  22.616  0.00  0.00    +0.000 A 
ATOM     17  C   UNL     1       5.374  -5.908  22.095  0.00  0.00    +0.000 A 
ATOM     18  C   UNL     1       6.752  -5.949  21.884  0.00  0.00    +0.000 A 
ATOM     19  C   UNL     1       7.568  -4.858  22.235  0.00  0.00    +0.004 A 
ENDBRANCH  13  14
ENDBRANCH   2  13
BRANCH   3  20
ATOM     20  C   UNL     1       9.668   0.457  22.540  0.00  0.00    +0.144 C 
BRANCH  20  21
ATOM     21  C   UNL     1       9.739   1.950  22.766  0.00  0.00    -0.029 A 
ATOM     22  C   UNL     1       8.566   2.710  22.676  0.00  0.00    +0.018 A 
ATOM     23  C   UNL     1       8.547   4.064  23.000  0.00  0.00    +0.037 A 
ATOM     24  C   UNL     1       9.743   4.689  23.368  0.00  0.00    +0.013 A 
ATOM     25  C   UNL     1      10.942   3.975  23.360  0.00  0.00    +0.001 A 
ATOM     26  C   UNL     1      10.943   2.611  23.053  0.00  0.00    +0.005 A 
BRANCH  23  27
ATOM     27  C   UNL     1       7.283   4.850  23.055  0.00  0.00    +0.250 C 
ATOM     28  N   UNL     1       6.103   4.143  22.911  0.00  0.00    -0.261 N 
ATOM     29  H   UNL     1       6.075   3.161  22.698  0.00  0.00    +0.157 HD
ATOM     30  C   UNL     1       4.891   4.768  22.985  0.00  0.00    +0.165 A 
ATOM     31  S   UNL     1       3.551   3.773  22.610  0.00  0.00    -0.061 S 
ATOM     32  C   UNL     1       2.521   5.136  22.795  0.00  0.00    +0.068 A 
ATOM     33  C   UNL     1       3.258   6.228  23.176  0.00  0.00    +0.120 A 
ATOM     34  N   UNL     1       4.618   6.012  23.289  0.00  0.00    -0.233 NA
ATOM     35  O   UNL     1       7.371   6.063  23.177  0.00  0.00    -0.270 OA
ENDBRANCH  23  27
ENDBRANCH  20  21
ENDBRANCH   3  20
BRANCH   6  36
ATOM     36  C   UNL     1       8.691  -1.711  26.733  0.00  0.00    +0.144 C 
BRANCH  36  37
ATOM     37  C   UNL     1       7.933  -3.068  26.641  0.00  0.00    -0.029 A 
ATOM     38  C   UNL     1       6.559  -3.333  26.820  0.00  0.00    +0.018 A 
ATOM     39  C   UNL     1       5.994  -4.611  26.497  0.00  0.00    +0.037 A 
ATOM     40  C   UNL     1       6.799  -5.642  25.999  0.00  0.00    +0.013 A 
ATOM     41  C   UNL     1       8.148  -5.410  25.802  0.00  0.00    +0.001 A 
ATOM     42  C   UNL     1       8.695  -4.152  26.111  0.00  0.00    +0.005 A 
BRANCH  39  43
ATOM     43  C   UNL     1       4.538  -4.963  26.608  0.00  0.00    +0.250 C 
ATOM     44  N   UNL     1       4.121  -5.965  25.764  0.00  0.00    -0.261 N 
ATOM     45  H   UNL     1       4.783  -6.453  25.183  0.00  0.00    +0.157 HD
ATOM     46  C   UNL     1       2.858  -6.494  25.824  0.00  0.00    +0.165 A 
ATOM     47  S   UNL     1       2.649  -7.892  24.860  0.00  0.00    -0.061 S 
ATOM     48  C   UNL     1       1.023  -8.004  25.401  0.00  0.00    +0.068 A 
ATOM     49  C   UNL     1       0.755  -6.960  26.262  0.00  0.00    +0.120 A 
ATOM     50  N   UNL     1       1.810  -6.101  26.501  0.00  0.00    -0.233 NA
ATOM     51  O   UNL     1       3.874  -4.421  27.485  0.00  0.00    -0.270 OA
ENDBRANCH  39  43
ENDBRANCH  36  37
ENDBRANCH   6  36
BRANCH   7  52
ATOM     52  C   UNL     1       6.658   0.682  27.318  0.00  0.00    +0.060 C 
BRANCH  52  53
ATOM     53  C   UNL     1       6.667   2.178  27.578  0.00  0.00    -0.046 A 
ATOM     54  C   UNL     1       6.276   2.709  28.817  0.00  0.00    +0.004 A 
ATOM     55  C   UNL     1       6.348   4.087  29.057  0.00  0.00    +0.000 A 
ATOM     56  C   UNL     1       6.819   4.945  28.066  0.00  0.00    +0.000 A 
ATOM     57  C   UNL     1       7.193   4.433  26.827  0.00  0.00    +0.000 A 
ATOM     58  C   UNL     1       7.106   3.060  26.580  0.00  0.00    +0.004 A 
ENDBRANCH  52  53
ENDBRANCH   7  52
TORSDOF 12
ENDMDL
MODEL 9
REMARK VINA RESULT:      -6.2      3.858      7.527
REMARK  Name = 
REMARK  12 active torsions:
REMARK  status: ('A' for Active; 'I' for Inactive)
REMARK    1  A    between atoms: O_1  and  C_2
REMARK    2  A    between atoms: C_4  and  O_6
REMARK    3  A    between atoms: C_7  and  C_9
REMARK    4  A    between atoms: C_9  and  C_10
REMARK    5  A    between atoms: N_16  and  C_17
REMARK    6  A    between atoms: C_17  and  C_18
REMARK    7  A    between atoms: C_22  and  C_24
REMARK    8  A    between atoms: N_34  and  C_35
REMARK    9  A    between atoms: C_35  and  C_36
REMARK   10  A    between atoms: C_40  and  C_42
REMARK   11  A    between atoms: C_50  and  C_52
REMARK   12  A    between atoms: C_52  and  C_53
REMARK                            x       y       z     vdW  Elec       q    Type
REMARK                         _______ _______ _______ _____ _____    ______ ____
ROOT
ATOM      1  C   UNL     1       5.384   2.605  23.918  0.00  0.00    +0.165 C 
ATOM      2  C   UNL     1       6.469   1.735  24.581  0.00  0.00    +0.113 C 
ATOM      3  N   UNL     1       7.268   2.578  25.552  0.00  0.00    -0.275 N 
ATOM      4  C   UNL     1       6.826   3.090  26.789  0.00  0.00    +0.306 C 
ATOM      5  O   UNL     1       7.566   3.718  27.547  0.00  0.00    -0.252 OA
ATOM      6  N   UNL     1       5.464   3.057  27.069  0.00  0.00    -0.275 N 
ATOM      7  C   UNL     1       4.637   3.835  26.105  0.00  0.00    +0.113 C 
ATOM      8  C   UNL     1       4.215   3.045  24.826  0.00  0.00    +0.165 C 
ENDROOT
BRANCH   1   9
ATOM      9  O   UNL     1       6.003   3.763  23.321  0.00  0.00    -0.387 OA
ATOM     10  H   UNL     1       6.632   4.129  23.970  0.00  0.00    +0.210 HD
ENDBRANCH   1   9
BRANCH   8  11
ATOM     11  O   UNL     1       3.372   1.939  25.155  0.00  0.00    -0.387 OA
ATOM     12  H   UNL     1       3.132   2.026  26.097  0.00  0.00    +0.210 HD
ENDBRANCH   8  11
BRANCH   2  13
ATOM     13  C   UNL     1       6.002   0.368  25.152  0.00  0.00    +0.060 C 
BRANCH  13  14
ATOM     14  C   UNL     1       5.840  -0.883  24.287  0.00  0.00    -0.046 A 
ATOM     15  C   UNL     1       5.288  -2.043  24.873  0.00  0.00    +0.004 A 
ATOM     16  C   UNL     1       5.364  -3.295  24.246  0.00  0.00    +0.000 A 
ATOM     17  C   UNL     1       5.988  -3.413  23.011  0.00  0.00    +0.000 A 
ATOM     18  C   UNL     1       6.492  -2.271  22.389  0.00  0.00    +0.000 A 
ATOM     19  C   UNL     1       6.416  -1.015  23.017  0.00  0.00    +0.004 A 
ENDBRANCH  13  14
ENDBRANCH   2  13
BRANCH   3  20
ATOM     20  C   UNL     1       8.627   2.983  25.084  0.00  0.00    +0.144 C 
BRANCH  20  21
ATOM     21  C   UNL     1       9.240   2.045  24.069  0.00  0.00    -0.029 A 
ATOM     22  C   UNL     1       9.391   0.690  24.396  0.00  0.00    +0.018 A 
ATOM     23  C   UNL     1       9.828  -0.241  23.458  0.00  0.00    +0.037 A 
ATOM     24  C   UNL     1      10.179   0.199  22.179  0.00  0.00    +0.013 A 
ATOM     25  C   UNL     1      10.139   1.558  21.866  0.00  0.00    +0.001 A 
ATOM     26  C   UNL     1       9.678   2.481  22.810  0.00  0.00    +0.005 A 
BRANCH  23  27
ATOM     27  C   UNL     1       9.849  -1.704  23.742  0.00  0.00    +0.250 C 
ATOM     28  N   UNL     1       9.114  -2.137  24.831  0.00  0.00    -0.261 N 
ATOM     29  H   UNL     1       8.648  -1.509  25.463  0.00  0.00    +0.157 HD
ATOM     30  C   UNL     1       9.041  -3.463  25.151  0.00  0.00    +0.165 A 
ATOM     31  S   UNL     1       8.237  -3.798  26.624  0.00  0.00    -0.061 S 
ATOM     32  C   UNL     1       8.604  -5.464  26.414  0.00  0.00    +0.068 A 
ATOM     33  C   UNL     1       9.259  -5.650  25.223  0.00  0.00    +0.120 A 
ATOM     34  N   UNL     1       9.504  -4.499  24.499  0.00  0.00    -0.233 NA
ATOM     35  O   UNL     1      10.544  -2.412  23.029  0.00  0.00    -0.270 OA
ENDBRANCH  23  27
ENDBRANCH  20  21
ENDBRANCH   3  20
BRANCH   6  36
ATOM     36  C   UNL     1       4.910   2.015  27.996  0.00  0.00    +0.144 C 
BRANCH  36  37
ATOM     37  C   UNL     1       3.620   1.157  27.851  0.00  0.00    -0.029 A 
ATOM     38  C   UNL     1       3.494  -0.221  27.571  0.00  0.00    +0.018 A 
ATOM     39  C   UNL     1       2.233  -0.895  27.675  0.00  0.00    +0.037 A 
ATOM     40  C   UNL     1       1.080  -0.198  28.053  0.00  0.00    +0.013 A 
ATOM     41  C   UNL     1       1.171   1.150  28.346  0.00  0.00    +0.001 A 
ATOM     42  C   UNL     1       2.412   1.804  28.252  0.00  0.00    +0.005 A 
BRANCH  39  43
ATOM     43  C   UNL     1       2.020  -2.364  27.445  0.00  0.00    +0.250 C 
ATOM     44  N   UNL     1       3.173  -3.111  27.385  0.00  0.00    -0.261 N 
ATOM     45  H   UNL     1       4.069  -2.685  27.559  0.00  0.00    +0.157 HD
ATOM     46  C   UNL     1       3.155  -4.480  27.307  0.00  0.00    +0.165 A 
ATOM     47  S   UNL     1       4.694  -5.202  27.502  0.00  0.00    -0.061 S 
ATOM     48  C   UNL     1       3.971  -6.751  27.340  0.00  0.00    +0.068 A 
ATOM     49  C   UNL     1       2.615  -6.604  27.132  0.00  0.00    +0.120 A 
ATOM     50  N   UNL     1       2.154  -5.301  27.117  0.00  0.00    -0.233 NA
ATOM     51  O   UNL     1       0.870  -2.790  27.431  0.00  0.00    -0.270 OA
ENDBRANCH  39  43
ENDBRANCH  36  37
ENDBRANCH   6  36
BRANCH   7  52
ATOM     52  C   UNL     1       3.492   4.612  26.792  0.00  0.00    +0.060 C 
BRANCH  52  53
ATOM     53  C   UNL     1       3.926   5.422  28.000  0.00  0.00    -0.046 A 
ATOM     54  C   UNL     1       3.379   5.192  29.272  0.00  0.00    +0.004 A 
ATOM     55  C   UNL     1       3.835   5.909  30.385  0.00  0.00    +0.000 A 
ATOM     56  C   UNL     1       4.848   6.855  30.240  0.00  0.00    +0.000 A 
ATOM     57  C   UNL     1       5.387   7.104  28.982  0.00  0.00    +0.000 A 
ATOM     58  C   UNL     1       4.921   6.401  27.866  0.00  0.00    +0.004 A 
ENDBRANCH  52  53
ENDBRANCH   7  52
TORSDOF 12
ENDMDL
