MODEL 1
REMARK VINA RESULT:      -7.8      0.000      0.000
REMARK  Name = 
REMARK  4 active torsions:
REMARK  status: ('A' for Active; 'I' for Inactive)
REMARK    1  A    between atoms: C_4  and  C_5
REMARK    2  A    between atoms: C_5  and  C_6
REMARK    3  A    between atoms: N_18  and  C_19
REMARK    4  A    between atoms: C_22  and  C_25
REMARK                            x       y       z     vdW  Elec       q    Type
REMARK                         _______ _______ _______ _____ _____    ______ ____
ROOT
ATOM      1  N   UNL     1       8.653  -0.395  27.545  0.00  0.00    -0.327 N 
ATOM      2  H   UNL     1       8.964   0.560  27.452  0.00  0.00    +0.145 HD
ATOM      3  H   UNL     1       9.065  -0.962  28.272  0.00  0.00    +0.145 HD
ATOM      4  C   UNL     1       8.688  -1.044  26.329  0.00  0.00    +0.217 A 
ATOM      5  N   UNL     1       8.680  -0.294  25.244  0.00  0.00    -0.181 NA
ATOM      6  C   UNL     1       8.668  -0.944  24.084  0.00  0.00    +0.224 A 
ATOM      7  N   UNL     1       8.522  -0.249  22.878  0.00  0.00    -0.284 N 
ATOM      8  H   UNL     1       8.261  -0.905  22.156  0.00  0.00    +0.155 HD
ATOM      9  N   UNL     1       8.689  -2.270  23.979  0.00  0.00    -0.199 NA
ATOM     10  C   UNL     1       8.690  -2.937  25.139  0.00  0.00    +0.141 A 
ATOM     11  N   UNL     1       8.711  -2.365  26.341  0.00  0.00    -0.199 NA
ENDROOT
BRANCH   7  12
ATOM     12  C   UNL     1       8.208   1.100  22.659  0.00  0.00    +0.034 A 
ATOM     13  C   UNL     1       6.880   1.464  22.394  0.00  0.00    +0.024 A 
ATOM     14  C   UNL     1       6.513   2.808  22.243  0.00  0.00    +0.020 A 
ATOM     15  C   UNL     1       7.474   3.813  22.356  0.00  0.00    +0.052 A 
ATOM     16  C   UNL     1       8.803   3.465  22.603  0.00  0.00    +0.020 A 
ATOM     17  C   UNL     1       9.159   2.121  22.755  0.00  0.00    +0.024 A 
BRANCH  15  18
ATOM     18  C   UNL     1       7.101   5.192  22.239  0.00  0.00    +0.099 C 
ATOM     19  N   UNL     1       6.806   6.310  22.143  0.00  0.00    -0.191 NA
ENDBRANCH  15  18
ENDBRANCH   7  12
BRANCH  10  20
ATOM     20  C   UNL     1       8.568  -4.443  25.090  0.00  0.00    +0.113 C 
BRANCH  20  21
ATOM     21  C   UNL     1       7.206  -5.044  24.739  0.00  0.00    -0.013 A 
ATOM     22  C   UNL     1       6.354  -5.443  25.805  0.00  0.00    +0.045 A 
ATOM     23 CL   UNL     1       6.774  -5.135  27.462  0.00  0.00    -0.083 Cl
ATOM     24  C   UNL     1       5.147  -6.114  25.592  0.00  0.00    +0.022 A 
ATOM     25  C   UNL     1       4.744  -6.466  24.308  0.00  0.00    +0.027 A 
ATOM     26  C   UNL     1       5.558  -6.060  23.251  0.00  0.00    +0.047 A 
ATOM     27  N   UNL     1       5.413  -6.312  21.903  0.00  0.00    -0.361 N 
ATOM     28  H   UNL     1       4.691  -6.894  21.503  0.00  0.00    +0.165 HD
ATOM     29  C   UNL     1       6.376  -5.657  21.196  0.00  0.00    +0.083 A 
ATOM     30  C   UNL     1       7.160  -4.982  22.099  0.00  0.00    +0.028 A 
ATOM     31  C   UNL     1       6.728  -5.310  23.422  0.00  0.00    +0.005 A 
ENDBRANCH  20  21
ENDBRANCH  10  20
TORSDOF 4
ENDMDL
MODEL 2
REMARK VINA RESULT:      -7.4      2.465      3.402
REMARK  Name = 
REMARK  4 active torsions:
REMARK  status: ('A' for Active; 'I' for Inactive)
REMARK    1  A    between atoms: C_4  and  C_5
REMARK    2  A    between atoms: C_5  and  C_6
REMARK    3  A    between atoms: N_18  and  C_19
REMARK    4  A    between atoms: C_22  and  C_25
REMARK                            x       y       z     vdW  Elec       q    Type
REMARK                         _______ _______ _______ _____ _____    ______ ____
ROOT
ATOM      1  N   UNL     1      10.100  -1.447  21.576  0.00  0.00    -0.327 N 
ATOM      2  H   UNL     1      10.353  -0.541  21.213  0.00  0.00    +0.145 HD
ATOM      3  H   UNL     1      10.272  -2.258  21.000  0.00  0.00    +0.145 HD
ATOM      4  C   UNL     1       8.805  -1.443  22.050  0.00  0.00    +0.217 A 
ATOM      5  N   UNL     1       8.280  -0.272  22.359  0.00  0.00    -0.181 NA
ATOM      6  C   UNL     1       7.047  -0.298  22.856  0.00  0.00    +0.224 A 
ATOM      7  N   UNL     1       6.450   0.870  23.343  0.00  0.00    -0.284 N 
ATOM      8  H   UNL     1       5.658   0.615  23.916  0.00  0.00    +0.155 HD
ATOM      9  N   UNL     1       6.340  -1.413  23.024  0.00  0.00    -0.199 NA
ATOM     10  C   UNL     1       6.968  -2.546  22.687  0.00  0.00    +0.141 A 
ATOM     11  N   UNL     1       8.195  -2.608  22.174  0.00  0.00    -0.199 NA
ENDROOT
BRANCH   7  12
ATOM     12  C   UNL     1       7.012   2.136  23.559  0.00  0.00    +0.034 A 
ATOM     13  C   UNL     1       7.789   2.358  24.705  0.00  0.00    +0.024 A 
ATOM     14  C   UNL     1       8.429   3.586  24.921  0.00  0.00    +0.020 A 
ATOM     15  C   UNL     1       8.302   4.614  23.987  0.00  0.00    +0.052 A 
ATOM     16  C   UNL     1       7.518   4.414  22.849  0.00  0.00    +0.020 A 
ATOM     17  C   UNL     1       6.885   3.184  22.642  0.00  0.00    +0.024 A 
BRANCH  15  18
ATOM     18  C   UNL     1       8.983   5.861  24.182  0.00  0.00    +0.099 C 
ATOM     19  N   UNL     1       9.540   6.866  24.339  0.00  0.00    -0.191 NA
ENDBRANCH  15  18
ENDBRANCH   7  12
BRANCH  10  20
ATOM     20  C   UNL     1       6.275  -3.856  22.988  0.00  0.00    +0.113 C 
BRANCH  20  21
ATOM     21  C   UNL     1       6.375  -4.412  24.408  0.00  0.00    -0.013 A 
ATOM     22  C   UNL     1       5.182  -4.504  25.178  0.00  0.00    +0.045 A 
ATOM     23 CL   UNL     1       3.632  -4.131  24.490  0.00  0.00    -0.083 Cl
ATOM     24  C   UNL     1       5.183  -4.881  26.523  0.00  0.00    +0.022 A 
ATOM     25  C   UNL     1       6.375  -5.142  27.190  0.00  0.00    +0.027 A 
ATOM     26  C   UNL     1       7.551  -5.079  26.442  0.00  0.00    +0.047 A 
ATOM     27  N   UNL     1       8.853  -5.248  26.863  0.00  0.00    -0.361 N 
ATOM     28  H   UNL     1       9.130  -5.396  27.824  0.00  0.00    +0.165 HD
ATOM     29  C   UNL     1       9.702  -5.196  25.799  0.00  0.00    +0.083 A 
ATOM     30  C   UNL     1       8.940  -4.980  24.677  0.00  0.00    +0.028 A 
ATOM     31  C   UNL     1       7.579  -4.791  25.072  0.00  0.00    +0.005 A 
ENDBRANCH  20  21
ENDBRANCH  10  20
TORSDOF 4
ENDMDL
MODEL 3
REMARK VINA RESULT:      -7.3      1.365      2.058
REMARK  Name = 
REMARK  4 active torsions:
REMARK  status: ('A' for Active; 'I' for Inactive)
REMARK    1  A    between atoms: C_4  and  C_5
REMARK    2  A    between atoms: C_5  and  C_6
REMARK    3  A    between atoms: N_18  and  C_19
REMARK    4  A    between atoms: C_22  and  C_25
REMARK                            x       y       z     vdW  Elec       q    Type
REMARK                         _______ _______ _______ _____ _____    ______ ____
ROOT
ATOM      1  N   UNL     1      10.922  -1.504  22.224  0.00  0.00    -0.327 N 
ATOM      2  H   UNL     1      10.840  -0.691  21.632  0.00  0.00    +0.145 HD
ATOM      3  H   UNL     1      11.177  -2.382  21.795  0.00  0.00    +0.145 HD
ATOM      4  C   UNL     1       9.805  -1.647  23.020  0.00  0.00    +0.217 A 
ATOM      5  N   UNL     1       9.065  -0.573  23.220  0.00  0.00    -0.181 NA
ATOM      6  C   UNL     1       8.020  -0.725  24.027  0.00  0.00    +0.224 A 
ATOM      7  N   UNL     1       7.251   0.378  24.414  0.00  0.00    -0.284 N 
ATOM      8  H   UNL     1       6.698   0.120  25.219  0.00  0.00    +0.155 HD
ATOM      9  N   UNL     1       7.690  -1.880  24.599  0.00  0.00    -0.199 NA
ATOM     10  C   UNL     1       8.510  -2.905  24.337  0.00  0.00    +0.141 A 
ATOM     11  N   UNL     1       9.570  -2.840  23.535  0.00  0.00    -0.199 NA
ENDROOT
BRANCH   7  12
ATOM     12  C   UNL     1       7.487   1.745  24.213  0.00  0.00    +0.034 A 
ATOM     13  C   UNL     1       8.264   2.453  25.140  0.00  0.00    +0.024 A 
ATOM     14  C   UNL     1       8.585   3.802  24.937  0.00  0.00    +0.020 A 
ATOM     15  C   UNL     1       8.132   4.465  23.796  0.00  0.00    +0.052 A 
ATOM     16  C   UNL     1       7.344   3.778  22.872  0.00  0.00    +0.020 A 
ATOM     17  C   UNL     1       7.031   2.430  23.082  0.00  0.00    +0.024 A 
BRANCH  15  18
ATOM     18  C   UNL     1       8.487   5.834  23.562  0.00  0.00    +0.099 C 
ATOM     19  N   UNL     1       8.780   6.942  23.375  0.00  0.00    -0.191 NA
ENDBRANCH  15  18
ENDBRANCH   7  12
BRANCH  10  20
ATOM     20  C   UNL     1       8.274  -4.206  25.070  0.00  0.00    +0.113 C 
BRANCH  20  21
ATOM     21  C   UNL     1       6.990  -4.980  24.767  0.00  0.00    -0.013 A 
ATOM     22  C   UNL     1       6.249  -5.505  25.861  0.00  0.00    +0.045 A 
ATOM     23 CL   UNL     1       6.700  -5.165  27.503  0.00  0.00    -0.083 Cl
ATOM     24  C   UNL     1       5.134  -6.329  25.688  0.00  0.00    +0.022 A 
ATOM     25  C   UNL     1       4.723  -6.715  24.416  0.00  0.00    +0.027 A 
ATOM     26  C   UNL     1       5.426  -6.189  23.333  0.00  0.00    +0.047 A 
ATOM     27  N   UNL     1       5.254  -6.440  21.987  0.00  0.00    -0.361 N 
ATOM     28  H   UNL     1       4.599  -7.108  21.609  0.00  0.00    +0.165 HD
ATOM     29  C   UNL     1       6.088  -5.652  21.252  0.00  0.00    +0.083 A 
ATOM     30  C   UNL     1       6.814  -4.889  22.133  0.00  0.00    +0.028 A 
ATOM     31  C   UNL     1       6.492  -5.291  23.466  0.00  0.00    +0.005 A 
ENDBRANCH  20  21
ENDBRANCH  10  20
TORSDOF 4
ENDMDL
MODEL 4
REMARK VINA RESULT:      -7.2      1.643      2.617
REMARK  Name = 
REMARK  4 active torsions:
REMARK  status: ('A' for Active; 'I' for Inactive)
REMARK    1  A    between atoms: C_4  and  C_5
REMARK    2  A    between atoms: C_5  and  C_6
REMARK    3  A    between atoms: N_18  and  C_19
REMARK    4  A    between atoms: C_22  and  C_25
REMARK                            x       y       z     vdW  Elec       q    Type
REMARK                         _______ _______ _______ _____ _____    ______ ____
ROOT
ATOM      1  N   UNL     1       8.633  -0.504  27.394  0.00  0.00    -0.327 N 
ATOM      2  H   UNL     1       8.889   0.472  27.406  0.00  0.00    +0.145 HD
ATOM      3  H   UNL     1       9.073  -1.122  28.060  0.00  0.00    +0.145 HD
ATOM      4  C   UNL     1       8.713  -1.016  26.116  0.00  0.00    +0.217 A 
ATOM      5  N   UNL     1       8.668  -0.155  25.117  0.00  0.00    -0.181 NA
ATOM      6  C   UNL     1       8.701  -0.677  23.894  0.00  0.00    +0.224 A 
ATOM      7  N   UNL     1       8.522   0.134  22.768  0.00  0.00    -0.284 N 
ATOM      8  H   UNL     1       8.304  -0.455  21.976  0.00  0.00    +0.155 HD
ATOM      9  N   UNL     1       8.799  -1.981  23.649  0.00  0.00    -0.199 NA
ATOM     10  C   UNL     1       8.832  -2.767  24.731  0.00  0.00    +0.141 A 
ATOM     11  N   UNL     1       8.812  -2.327  25.987  0.00  0.00    -0.199 NA
ENDROOT
BRANCH   7  12
ATOM     12  C   UNL     1       8.131   1.478  22.690  0.00  0.00    +0.034 A 
ATOM     13  C   UNL     1       9.035   2.481  23.066  0.00  0.00    +0.024 A 
ATOM     14  C   UNL     1       8.710   3.838  22.934  0.00  0.00    +0.020 A 
ATOM     15  C   UNL     1       7.469   4.212  22.418  0.00  0.00    +0.052 A 
ATOM     16  C   UNL     1       6.552   3.226  22.054  0.00  0.00    +0.020 A 
ATOM     17  C   UNL     1       6.887   1.874  22.189  0.00  0.00    +0.024 A 
BRANCH  15  18
ATOM     18  C   UNL     1       7.143   5.598  22.244  0.00  0.00    +0.099 C 
ATOM     19  N   UNL     1       6.878   6.720  22.111  0.00  0.00    -0.191 NA
ENDBRANCH  15  18
ENDBRANCH   7  12
BRANCH  10  20
ATOM     20  C   UNL     1       8.798  -4.264  24.520  0.00  0.00    +0.113 C 
BRANCH  20  21
ATOM     21  C   UNL     1       7.463  -4.987  24.707  0.00  0.00    -0.013 A 
ATOM     22  C   UNL     1       6.672  -5.245  23.554  0.00  0.00    +0.045 A 
ATOM     23 CL   UNL     1       7.256  -4.881  21.959  0.00  0.00    -0.083 Cl
ATOM     24  C   UNL     1       5.386  -5.786  23.629  0.00  0.00    +0.022 A 
ATOM     25  C   UNL     1       4.798  -6.057  24.860  0.00  0.00    +0.027 A 
ATOM     26  C   UNL     1       5.571  -5.831  25.999  0.00  0.00    +0.047 A 
ATOM     27  N   UNL     1       5.218  -5.975  27.325  0.00  0.00    -0.361 N 
ATOM     28  H   UNL     1       4.294  -6.224  27.648  0.00  0.00    +0.165 HD
ATOM     29  C   UNL     1       6.294  -5.740  28.126  0.00  0.00    +0.083 A 
ATOM     30  C   UNL     1       7.354  -5.431  27.309  0.00  0.00    +0.028 A 
ATOM     31  C   UNL     1       6.893  -5.374  25.957  0.00  0.00    +0.005 A 
ENDBRANCH  20  21
ENDBRANCH  10  20
TORSDOF 4
ENDMDL
MODEL 5
REMARK VINA RESULT:      -7.2      3.478      9.149
REMARK  Name = 
REMARK  4 active torsions:
REMARK  status: ('A' for Active; 'I' for Inactive)
REMARK    1  A    between atoms: C_4  and  C_5
REMARK    2  A    between atoms: C_5  and  C_6
REMARK    3  A    between atoms: N_18  and  C_19
REMARK    4  A    between atoms: C_22  and  C_25
REMARK                            x       y       z     vdW  Elec       q    Type
REMARK                         _______ _______ _______ _____ _____    ______ ____
ROOT
ATOM      1  N   UNL     1      10.261  -0.010  25.695  0.00  0.00    -0.327 N 
ATOM      2  H   UNL     1       9.932  -0.789  26.245  0.00  0.00    +0.145 HD
ATOM      3  H   UNL     1      10.798   0.709  26.159  0.00  0.00    +0.145 HD
ATOM      4  C   UNL     1       9.235   0.538  24.954  0.00  0.00    +0.217 A 
ATOM      5  N   UNL     1       8.182  -0.223  24.727  0.00  0.00    -0.181 NA
ATOM      6  C   UNL     1       7.226   0.311  23.973  0.00  0.00    +0.224 A 
ATOM      7  N   UNL     1       6.132  -0.456  23.559  0.00  0.00    -0.284 N 
ATOM      8  H   UNL     1       5.675   0.018  22.792  0.00  0.00    +0.155 HD
ATOM      9  N   UNL     1       7.278   1.545  23.478  0.00  0.00    -0.199 NA
ATOM     10  C   UNL     1       8.392   2.230  23.761  0.00  0.00    +0.141 A 
ATOM     11  N   UNL     1       9.390   1.774  24.515  0.00  0.00    -0.199 NA
ENDROOT
BRANCH   7  12
ATOM     12  C   UNL     1       5.915  -1.836  23.676  0.00  0.00    +0.034 A 
ATOM     13  C   UNL     1       5.349  -2.347  24.853  0.00  0.00    +0.024 A 
ATOM     14  C   UNL     1       5.049  -3.710  24.980  0.00  0.00    +0.020 A 
ATOM     15  C   UNL     1       5.309  -4.586  23.926  0.00  0.00    +0.052 A 
ATOM     16  C   UNL     1       5.887  -4.094  22.754  0.00  0.00    +0.020 A 
ATOM     17  C   UNL     1       6.181  -2.732  22.636  0.00  0.00    +0.024 A 
BRANCH  15  18
ATOM     18  C   UNL     1       4.971  -5.975  24.034  0.00  0.00    +0.099 C 
ATOM     19  N   UNL     1       4.697  -7.098  24.128  0.00  0.00    -0.191 NA
ENDBRANCH  15  18
ENDBRANCH   7  12
BRANCH  10  20
ATOM     20  C   UNL     1       8.577   3.582  23.110  0.00  0.00    +0.113 C 
BRANCH  20  21
ATOM     21  C   UNL     1       9.341   4.656  23.886  0.00  0.00    -0.013 A 
ATOM     22  C   UNL     1       8.601   5.522  24.738  0.00  0.00    +0.045 A 
ATOM     23 CL   UNL     1       6.902   5.288  25.008  0.00  0.00    -0.083 Cl
ATOM     24  C   UNL     1       9.184   6.610  25.393  0.00  0.00    +0.022 A 
ATOM     25  C   UNL     1      10.524   6.925  25.198  0.00  0.00    +0.027 A 
ATOM     26  C   UNL     1      11.268   6.071  24.384  0.00  0.00    +0.047 A 
ATOM     27  N   UNL     1      12.588   6.177  23.997  0.00  0.00    -0.361 N 
ATOM     28  H   UNL     1      13.191   6.954  24.228  0.00  0.00    +0.165 HD
ATOM     29  C   UNL     1      12.955   5.084  23.272  0.00  0.00    +0.083 A 
ATOM     30  C   UNL     1      11.856   4.266  23.179  0.00  0.00    +0.028 A 
ATOM     31  C   UNL     1      10.739   4.922  23.784  0.00  0.00    +0.005 A 
ENDBRANCH  20  21
ENDBRANCH  10  20
TORSDOF 4
ENDMDL
MODEL 6
REMARK VINA RESULT:      -7.1      2.593      7.918
REMARK  Name = 
REMARK  4 active torsions:
REMARK  status: ('A' for Active; 'I' for Inactive)
REMARK    1  A    between atoms: C_4  and  C_5
REMARK    2  A    between atoms: C_5  and  C_6
REMARK    3  A    between atoms: N_18  and  C_19
REMARK    4  A    between atoms: C_22  and  C_25
REMARK                            x       y       z     vdW  Elec       q    Type
REMARK                         _______ _______ _______ _____ _____    ______ ____
ROOT
ATOM      1  N   UNL     1       8.516  -5.081  26.812  0.00  0.00    -0.327 N 
ATOM      2  H   UNL     1       7.758  -5.709  27.031  0.00  0.00    +0.145 HD
ATOM      3  H   UNL     1       9.222  -4.922  27.516  0.00  0.00    +0.145 HD
ATOM      4  C   UNL     1       8.037  -3.888  26.312  0.00  0.00    +0.217 A 
ATOM      5  N   UNL     1       6.819  -3.892  25.806  0.00  0.00    -0.181 NA
ATOM      6  C   UNL     1       6.397  -2.741  25.289  0.00  0.00    +0.224 A 
ATOM      7  N   UNL     1       5.178  -2.670  24.606  0.00  0.00    -0.284 N 
ATOM      8  H   UNL     1       5.160  -1.819  24.063  0.00  0.00    +0.155 HD
ATOM      9  N   UNL     1       7.119  -1.623  25.286  0.00  0.00    -0.199 NA
ATOM     10  C   UNL     1       8.343  -1.729  25.818  0.00  0.00    +0.141 A 
ATOM     11  N   UNL     1       8.838  -2.838  26.363  0.00  0.00    -0.199 NA
ENDROOT
BRANCH   7  12
ATOM     12  C   UNL     1       4.321  -3.704  24.202  0.00  0.00    +0.034 A 
ATOM     13  C   UNL     1       4.756  -4.621  23.235  0.00  0.00    +0.024 A 
ATOM     14  C   UNL     1       3.959  -5.710  22.858  0.00  0.00    +0.020 A 
ATOM     15  C   UNL     1       2.709  -5.899  23.448  0.00  0.00    +0.052 A 
ATOM     16  C   UNL     1       2.255  -4.985  24.400  0.00  0.00    +0.020 A 
ATOM     17  C   UNL     1       3.059  -3.902  24.771  0.00  0.00    +0.024 A 
BRANCH  15  18
ATOM     18  C   UNL     1       1.902  -7.031  23.095  0.00  0.00    +0.099 C 
ATOM     19  N   UNL     1       1.248  -7.944  22.804  0.00  0.00    -0.191 NA
ENDBRANCH  15  18
ENDBRANCH   7  12
BRANCH  10  20
ATOM     20  C   UNL     1       9.265  -0.536  25.715  0.00  0.00    +0.113 C 
BRANCH  20  21
ATOM     21  C   UNL     1       9.316   0.222  24.388  0.00  0.00    -0.013 A 
ATOM     22  C   UNL     1       9.776  -0.472  23.235  0.00  0.00    +0.045 A 
ATOM     23 CL   UNL     1      10.138  -2.170  23.289  0.00  0.00    -0.083 Cl
ATOM     24  C   UNL     1       9.977   0.161  22.006  0.00  0.00    +0.022 A 
ATOM     25  C   UNL     1       9.776   1.530  21.868  0.00  0.00    +0.027 A 
ATOM     26  C   UNL     1       9.303   2.221  22.984  0.00  0.00    +0.047 A 
ATOM     27  N   UNL     1       9.064   3.571  23.128  0.00  0.00    -0.361 N 
ATOM     28  H   UNL     1       9.262   4.266  22.421  0.00  0.00    +0.165 HD
ATOM     29  C   UNL     1       8.518   3.826  24.350  0.00  0.00    +0.083 A 
ATOM     30  C   UNL     1       8.412   2.626  25.008  0.00  0.00    +0.028 A 
ATOM     31  C   UNL     1       9.006   1.603  24.205  0.00  0.00    +0.005 A 
ENDBRANCH  20  21
ENDBRANCH  10  20
TORSDOF 4
ENDMDL
MODEL 7
REMARK VINA RESULT:      -7.0      3.337      8.694
REMARK  Name = 
REMARK  4 active torsions:
REMARK  status: ('A' for Active; 'I' for Inactive)
REMARK    1  A    between atoms: C_4  and  C_5
REMARK    2  A    between atoms: C_5  and  C_6
REMARK    3  A    between atoms: N_18  and  C_19
REMARK    4  A    between atoms: C_22  and  C_25
REMARK                            x       y       z     vdW  Elec       q    Type
REMARK                         _______ _______ _______ _____ _____    ______ ____
ROOT
ATOM      1  N   UNL     1       9.484  -0.889  21.119  0.00  0.00    -0.327 N 
ATOM      2  H   UNL     1       9.415  -1.894  21.166  0.00  0.00    +0.145 HD
ATOM      3  H   UNL     1      10.112  -0.485  20.439  0.00  0.00    +0.145 HD
ATOM      4  C   UNL     1       9.699  -0.352  22.371  0.00  0.00    +0.217 A 
ATOM      5  N   UNL     1       9.361  -1.092  23.410  0.00  0.00    -0.181 NA
ATOM      6  C   UNL     1       9.535  -0.535  24.605  0.00  0.00    +0.224 A 
ATOM      7  N   UNL     1       9.084  -1.177  25.764  0.00  0.00    -0.284 N 
ATOM      8  H   UNL     1       9.050  -0.503  26.515  0.00  0.00    +0.155 HD
ATOM      9  N   UNL     1      10.041   0.682  24.787  0.00  0.00    -0.199 NA
ATOM     10  C   UNL     1      10.344   1.350  23.668  0.00  0.00    +0.141 A 
ATOM     11  N   UNL     1      10.210   0.864  22.436  0.00  0.00    -0.199 NA
ENDROOT
BRANCH   7  12
ATOM     12  C   UNL     1       8.282  -2.320  25.895  0.00  0.00    +0.034 A 
ATOM     13  C   UNL     1       8.888  -3.565  26.114  0.00  0.00    +0.024 A 
ATOM     14  C   UNL     1       8.120  -4.719  26.324  0.00  0.00    +0.020 A 
ATOM     15  C   UNL     1       6.727  -4.642  26.320  0.00  0.00    +0.052 A 
ATOM     16  C   UNL     1       6.109  -3.413  26.086  0.00  0.00    +0.020 A 
ATOM     17  C   UNL     1       6.885  -2.267  25.880  0.00  0.00    +0.024 A 
BRANCH  15  18
ATOM     18  C   UNL     1       5.935  -5.810  26.570  0.00  0.00    +0.099 C 
ATOM     19  N   UNL     1       5.298  -6.759  26.776  0.00  0.00    -0.191 NA
ENDBRANCH  15  18
ENDBRANCH   7  12
BRANCH  10  20
ATOM     20  C   UNL     1      10.786   2.790  23.801  0.00  0.00    +0.113 C 
BRANCH  20  21
ATOM     21  C   UNL     1       9.724   3.883  23.681  0.00  0.00    -0.013 A 
ATOM     22  C   UNL     1      10.155   5.238  23.670  0.00  0.00    +0.045 A 
ATOM     23 CL   UNL     1      11.842   5.650  23.651  0.00  0.00    -0.083 Cl
ATOM     24  C   UNL     1       9.260   6.312  23.689  0.00  0.00    +0.022 A 
ATOM     25  C   UNL     1       7.889   6.096  23.767  0.00  0.00    +0.027 A 
ATOM     26  C   UNL     1       7.450   4.771  23.755  0.00  0.00    +0.047 A 
ATOM     27  N   UNL     1       6.164   4.286  23.864  0.00  0.00    -0.361 N 
ATOM     28  H   UNL     1       5.348   4.858  24.026  0.00  0.00    +0.165 HD
ATOM     29  C   UNL     1       6.158   2.931  23.714  0.00  0.00    +0.083 A 
ATOM     30  C   UNL     1       7.458   2.536  23.516  0.00  0.00    +0.028 A 
ATOM     31  C   UNL     1       8.313   3.674  23.648  0.00  0.00    +0.005 A 
ENDBRANCH  20  21
ENDBRANCH  10  20
TORSDOF 4
ENDMDL
MODEL 8
REMARK VINA RESULT:      -6.8      2.465      3.358
REMARK  Name = 
REMARK  4 active torsions:
REMARK  status: ('A' for Active; 'I' for Inactive)
REMARK    1  A    between atoms: C_4  and  C_5
REMARK    2  A    between atoms: C_5  and  C_6
REMARK    3  A    between atoms: N_18  and  C_19
REMARK    4  A    between atoms: C_22  and  C_25
REMARK                            x       y       z     vdW  Elec       q    Type
REMARK                         _______ _______ _______ _____ _____    ______ ____
ROOT
ATOM      1  N   UNL     1      10.370  -1.438  21.929  0.00  0.00    -0.327 N 
ATOM      2  H   UNL     1      10.557  -0.562  21.465  0.00  0.00    +0.145 HD
ATOM      3  H   UNL     1      10.664  -2.291  21.474  0.00  0.00    +0.145 HD
ATOM      4  C   UNL     1       9.050  -1.515  22.321  0.00  0.00    +0.217 A 
ATOM      5  N   UNL     1       8.390  -0.379  22.442  0.00  0.00    -0.181 NA
ATOM      6  C   UNL     1       7.133  -0.477  22.865  0.00  0.00    +0.224 A 
ATOM      7  N   UNL     1       6.389   0.672  23.159  0.00  0.00    -0.284 N 
ATOM      8  H   UNL     1       5.587   0.405  23.713  0.00  0.00    +0.155 HD
ATOM      9  N   UNL     1       6.531  -1.632  23.135  0.00  0.00    -0.199 NA
ATOM     10  C   UNL     1       7.291  -2.723  22.986  0.00  0.00    +0.141 A 
ATOM     11  N   UNL     1       8.552  -2.715  22.560  0.00  0.00    -0.199 NA
ENDROOT
BRANCH   7  12
ATOM     12  C   UNL     1       6.805   2.008  23.241  0.00  0.00    +0.034 A 
ATOM     13  C   UNL     1       7.415   2.468  24.416  0.00  0.00    +0.024 A 
ATOM     14  C   UNL     1       7.911   3.775  24.512  0.00  0.00    +0.020 A 
ATOM     15  C   UNL     1       7.806   4.644  23.426  0.00  0.00    +0.052 A 
ATOM     16  C   UNL     1       7.187   4.206  22.254  0.00  0.00    +0.020 A 
ATOM     17  C   UNL     1       6.697   2.899  22.168  0.00  0.00    +0.024 A 
BRANCH  15  18
ATOM     18  C   UNL     1       8.344   5.971  23.502  0.00  0.00    +0.099 C 
ATOM     19  N   UNL     1       8.785   7.043  23.559  0.00  0.00    -0.191 NA
ENDBRANCH  15  18
ENDBRANCH   7  12
BRANCH  10  20
ATOM     20  C   UNL     1       6.713  -4.053  23.414  0.00  0.00    +0.113 C 
BRANCH  20  21
ATOM     21  C   UNL     1       6.472  -4.286  24.906  0.00  0.00    -0.013 A 
ATOM     22  C   UNL     1       7.492  -4.934  25.657  0.00  0.00    +0.045 A 
ATOM     23 CL   UNL     1       9.026  -5.328  24.944  0.00  0.00    -0.083 Cl
ATOM     24  C   UNL     1       7.322  -5.304  26.993  0.00  0.00    +0.022 A 
ATOM     25  C   UNL     1       6.110  -5.092  27.643  0.00  0.00    +0.027 A 
ATOM     26  C   UNL     1       5.109  -4.436  26.927  0.00  0.00    +0.047 A 
ATOM     27  N   UNL     1       3.819  -4.143  27.316  0.00  0.00    -0.361 N 
ATOM     28  H   UNL     1       3.406  -4.429  28.193  0.00  0.00    +0.165 HD
ATOM     29  C   UNL     1       3.192  -3.411  26.353  0.00  0.00    +0.083 A 
ATOM     30  C   UNL     1       4.085  -3.236  25.325  0.00  0.00    +0.028 A 
ATOM     31  C   UNL     1       5.275  -3.972  25.616  0.00  0.00    +0.005 A 
ENDBRANCH  20  21
ENDBRANCH  10  20
TORSDOF 4
ENDMDL
MODEL 9
REMARK VINA RESULT:      -6.8      2.966      8.625
REMARK  Name = 
REMARK  4 active torsions:
REMARK  status: ('A' for Active; 'I' for Inactive)
REMARK    1  A    between atoms: C_4  and  C_5
REMARK    2  A    between atoms: C_5  and  C_6
REMARK    3  A    between atoms: N_18  and  C_19
REMARK    4  A    between atoms: C_22  and  C_25
REMARK                            x       y       z     vdW  Elec       q    Type
REMARK                         _______ _______ _______ _____ _____    ______ ____
ROOT
ATOM      1  N   UNL     1      10.513  -1.873  22.698  0.00  0.00    -0.327 N 
ATOM      2  H   UNL     1      10.434  -2.681  23.297  0.00  0.00    +0.145 HD
ATOM      3  H   UNL     1      11.356  -1.320  22.752  0.00  0.00    +0.145 HD
ATOM      4  C   UNL     1       9.391  -1.077  22.795  0.00  0.00    +0.217 A 
ATOM      5  N   UNL     1       8.288  -1.642  23.249  0.00  0.00    -0.181 NA
ATOM      6  C   UNL     1       7.209  -0.866  23.291  0.00  0.00    +0.224 A 
ATOM      7  N   UNL     1       5.960  -1.401  23.626  0.00  0.00    -0.284 N 
ATOM      8  H   UNL     1       5.242  -0.749  23.341  0.00  0.00    +0.155 HD
ATOM      9  N   UNL     1       7.204   0.414  22.931  0.00  0.00    -0.199 NA
ATOM     10  C   UNL     1       8.372   0.887  22.479  0.00  0.00    +0.141 A 
ATOM     11  N   UNL     1       9.499   0.183  22.413  0.00  0.00    -0.199 NA
ENDROOT
BRANCH   7  12
ATOM     12  C   UNL     1       5.577  -2.739  23.791  0.00  0.00    +0.034 A 
ATOM     13  C   UNL     1       5.434  -3.261  25.084  0.00  0.00    +0.024 A 
ATOM     14  C   UNL     1       4.983  -4.571  25.292  0.00  0.00    +0.020 A 
ATOM     15  C   UNL     1       4.665  -5.383  24.203  0.00  0.00    +0.052 A 
ATOM     16  C   UNL     1       4.819  -4.884  22.908  0.00  0.00    +0.020 A 
ATOM     17  C   UNL     1       5.268  -3.573  22.711  0.00  0.00    +0.024 A 
BRANCH  15  18
ATOM     18  C   UNL     1       4.168  -6.712  24.407  0.00  0.00    +0.099 C 
ATOM     19  N   UNL     1       3.764  -7.788  24.566  0.00  0.00    -0.191 NA
ENDBRANCH  15  18
ENDBRANCH   7  12
BRANCH  10  20
ATOM     20  C   UNL     1       8.398   2.291  21.920  0.00  0.00    +0.113 C 
BRANCH  20  21
ATOM     21  C   UNL     1       8.139   3.453  22.879  0.00  0.00    -0.013 A 
ATOM     22  C   UNL     1       9.232   3.952  23.640  0.00  0.00    +0.045 A 
ATOM     23 CL   UNL     1      10.847   3.363  23.394  0.00  0.00    -0.083 Cl
ATOM     24  C   UNL     1       9.076   4.925  24.631  0.00  0.00    +0.022 A 
ATOM     25  C   UNL     1       7.817   5.421  24.952  0.00  0.00    +0.027 A 
ATOM     26  C   UNL     1       6.739   4.958  24.198  0.00  0.00    +0.047 A 
ATOM     27  N   UNL     1       5.399   5.252  24.336  0.00  0.00    -0.361 N 
ATOM     28  H   UNL     1       5.011   5.827  25.071  0.00  0.00    +0.165 HD
ATOM     29  C   UNL     1       4.682   4.662  23.339  0.00  0.00    +0.083 A 
ATOM     30  C   UNL     1       5.569   3.970  22.551  0.00  0.00    +0.028 A 
ATOM     31  C   UNL     1       6.870   4.051  23.140  0.00  0.00    +0.005 A 
ENDBRANCH  20  21
ENDBRANCH  10  20
TORSDOF 4
ENDMDL
