MODEL 1
REMARK VINA RESULT:      -6.3      0.000      0.000
REMARK  Name = 
REMARK  12 active torsions:
REMARK  status: ('A' for Active; 'I' for Inactive)
REMARK    1  A    between atoms: C_1  and  N_2
REMARK    2  A    between atoms: N_2  and  C_6
REMARK    3  A    between atoms: C_3  and  C_4
REMARK    4  A    between atoms: C_9  and  C_10
REMARK    5  A    between atoms: N_12  and  C_13
REMARK    6  A    between atoms: C_15  and  O_16
REMARK    7  A    between atoms: C_18  and  C_20
REMARK    8  A    between atoms: C_20  and  O_21
REMARK    9  A    between atoms: C_22  and  O_24
REMARK   10  A    between atoms: C_25  and  O_27
REMARK   11  A    between atoms: C_30  and  N_31
REMARK   12  A    between atoms: C_32  and  C_33
REMARK                            x       y       z     vdW  Elec       q    Type
REMARK                         _______ _______ _______ _____ _____    ______ ____
ROOT
ATOM      1  C   UNL     1       5.149  -4.486  26.318  0.00  0.00    +0.065 A 
ATOM      2  C   UNL     1       4.056  -3.639  26.636  0.00  0.00    +0.058 A 
ATOM      3  I   UNL     1       2.275  -4.543  27.507  0.00  0.00    -0.040 I 
ATOM      4  C   UNL     1       4.198  -2.232  26.726  0.00  0.00    +0.062 A 
ATOM      5  C   UNL     1       5.480  -1.642  26.604  0.00  0.00    +0.049 A 
ATOM      6  I   UNL     1       5.567   0.520  26.599  0.00  0.00    -0.041 I 
ATOM      7  C   UNL     1       6.623  -2.442  26.416  0.00  0.00    +0.066 A 
ATOM      8  C   UNL     1       6.449  -3.870  26.309  0.00  0.00    +0.049 A 
ATOM      9  I   UNL     1       8.242  -5.095  26.294  0.00  0.00    -0.041 I 
ENDROOT
BRANCH   1  11
ATOM     10  C   UNL     1       4.855  -6.890  27.034  0.00  0.00    +0.138 C 
ATOM     11  N   UNL     1       4.906  -5.884  25.979  0.00  0.00    -0.273 N 
ATOM     12  C   UNL     1       4.565  -6.365  24.702  0.00  0.00    +0.216 C 
ATOM     13  O   UNL     1       4.270  -7.551  24.506  0.00  0.00    -0.276 OA
ATOM     14  C   UNL     1       4.587  -5.453  23.500  0.00  0.00    +0.109 C 
ENDBRANCH   1  11
BRANCH   4  15
ATOM     15  N   UNL     1       3.099  -1.380  27.029  0.00  0.00    -0.284 N 
ATOM     16  H   UNL     1       2.306  -1.432  26.394  0.00  0.00    +0.155 HD
ATOM     17  C   UNL     1       2.651  -0.956  28.254  0.00  0.00    +0.214 C 
ATOM     18  O   UNL     1       1.588  -0.338  28.292  0.00  0.00    -0.276 OA
ATOM     19  C   UNL     1       3.398  -1.280  29.515  0.00  0.00    +0.109 C 
ENDBRANCH   4  15
BRANCH   7  20
ATOM     20  C   UNL     1       7.962  -1.806  26.124  0.00  0.00    +0.247 C 
ATOM     21  N   UNL     1       8.403  -1.679  24.807  0.00  0.00    -0.301 N 
ATOM     22  H   UNL     1       7.734  -1.845  24.059  0.00  0.00    +0.150 HD
ATOM     23  O   UNL     1       8.644  -1.423  27.069  0.00  0.00    -0.270 OA
BRANCH  21  24
ATOM     24  C   UNL     1       9.518  -0.747  24.485  0.00  0.00    +0.160 C 
ATOM     25  C   UNL     1       8.986   0.693  24.581  0.00  0.00    +0.171 C 
ATOM     26  C   UNL     1       8.222   1.062  23.293  0.00  0.00    +0.176 C 
ATOM     27  C   UNL     1       9.116   0.925  22.052  0.00  0.00    +0.178 C 
ATOM     28  O   UNL     1       9.534  -0.452  21.966  0.00  0.00    -0.341 OA
ATOM     29  C   UNL     1      10.242  -0.934  23.109  0.00  0.00    +0.270 C 
BRANCH  25  30
ATOM     30  O   UNL     1      10.070   1.592  24.810  0.00  0.00    -0.387 OA
ATOM     31  H   UNL     1      10.677   1.516  24.051  0.00  0.00    +0.210 HD
ENDBRANCH  25  30
BRANCH  26  32
ATOM     32  O   UNL     1       7.099   0.163  23.147  0.00  0.00    -0.387 OA
ATOM     33  H   UNL     1       6.420   0.644  22.629  0.00  0.00    +0.210 HD
ENDBRANCH  26  32
BRANCH  29  34
ATOM     34  O   UNL     1      10.582  -2.289  22.859  0.00  0.00    -0.365 OA
ATOM     35  H   UNL     1      11.131  -2.572  23.606  0.00  0.00    +0.213 HD
ENDBRANCH  29  34
BRANCH  27  36
ATOM     36  C   UNL     1      10.259   1.953  21.965  0.00  0.00    +0.190 C 
BRANCH  36  37
ATOM     37  O   UNL     1       9.840   3.211  22.494  0.00  0.00    -0.392 OA
ATOM     38  H   UNL     1       9.298   3.638  21.807  0.00  0.00    +0.210 HD
ENDBRANCH  36  37
ENDBRANCH  27  36
ENDBRANCH  21  24
ENDBRANCH   7  20
TORSDOF 9
ENDMDL
MODEL 2
REMARK VINA RESULT:      -6.3      1.973      3.986
REMARK  Name = 
REMARK  12 active torsions:
REMARK  status: ('A' for Active; 'I' for Inactive)
REMARK    1  A    between atoms: C_1  and  N_2
REMARK    2  A    between atoms: N_2  and  C_6
REMARK    3  A    between atoms: C_3  and  C_4
REMARK    4  A    between atoms: C_9  and  C_10
REMARK    5  A    between atoms: N_12  and  C_13
REMARK    6  A    between atoms: C_15  and  O_16
REMARK    7  A    between atoms: C_18  and  C_20
REMARK    8  A    between atoms: C_20  and  O_21
REMARK    9  A    between atoms: C_22  and  O_24
REMARK   10  A    between atoms: C_25  and  O_27
REMARK   11  A    between atoms: C_30  and  N_31
REMARK   12  A    between atoms: C_32  and  C_33
REMARK                            x       y       z     vdW  Elec       q    Type
REMARK                         _______ _______ _______ _____ _____    ______ ____
ROOT
ATOM      1  C   UNL     1       4.478  -2.510  26.509  0.00  0.00    +0.065 A 
ATOM      2  C   UNL     1       3.737  -3.299  25.590  0.00  0.00    +0.058 A 
ATOM      3  I   UNL     1       1.575  -3.409  25.840  0.00  0.00    -0.040 I 
ATOM      4  C   UNL     1       4.286  -3.726  24.355  0.00  0.00    +0.062 A 
ATOM      5  C   UNL     1       5.568  -3.276  23.959  0.00  0.00    +0.049 A 
ATOM      6  I   UNL     1       6.378  -4.110  22.133  0.00  0.00    -0.041 I 
ATOM      7  C   UNL     1       6.300  -2.388  24.770  0.00  0.00    +0.066 A 
ATOM      8  C   UNL     1       5.728  -1.983  26.031  0.00  0.00    +0.049 A 
ATOM      9  I   UNL     1       6.746  -0.411  27.130  0.00  0.00    -0.041 I 
ENDROOT
BRANCH   1  11
ATOM     10  C   UNL     1       3.144  -1.163  28.177  0.00  0.00    +0.138 C 
ATOM     11  N   UNL     1       3.977  -2.319  27.865  0.00  0.00    -0.273 N 
ATOM     12  C   UNL     1       4.104  -3.242  28.918  0.00  0.00    +0.216 C 
ATOM     13  O   UNL     1       3.564  -3.061  30.018  0.00  0.00    -0.276 OA
ATOM     14  C   UNL     1       4.948  -4.483  28.763  0.00  0.00    +0.109 C 
ENDBRANCH   1  11
BRANCH   4  15
ATOM     15  N   UNL     1       3.549  -4.529  23.440  0.00  0.00    -0.284 N 
ATOM     16  H   UNL     1       3.492  -4.180  22.487  0.00  0.00    +0.155 HD
ATOM     17  C   UNL     1       3.403  -5.893  23.417  0.00  0.00    +0.214 C 
ATOM     18  O   UNL     1       2.838  -6.391  22.444  0.00  0.00    -0.276 OA
ATOM     19  C   UNL     1       3.960  -6.758  24.510  0.00  0.00    +0.109 C 
ENDBRANCH   4  15
BRANCH   7  20
ATOM     20  C   UNL     1       7.729  -2.039  24.426  0.00  0.00    +0.247 C 
ATOM     21  N   UNL     1       8.006  -0.926  23.634  0.00  0.00    -0.301 N 
ATOM     22  H   UNL     1       7.255  -0.263  23.458  0.00  0.00    +0.150 HD
ATOM     23  O   UNL     1       8.624  -2.763  24.849  0.00  0.00    -0.270 OA
BRANCH  21  24
ATOM     24  C   UNL     1       9.386  -0.367  23.594  0.00  0.00    +0.160 C 
ATOM     25  C   UNL     1       9.537   0.627  24.759  0.00  0.00    +0.171 C 
ATOM     26  C   UNL     1       8.910   1.984  24.380  0.00  0.00    +0.176 C 
ATOM     27  C   UNL     1       9.557   2.568  23.116  0.00  0.00    +0.178 C 
ATOM     28  O   UNL     1       9.331   1.636  22.040  0.00  0.00    -0.341 OA
ATOM     29  C   UNL     1       9.848   0.324  22.267  0.00  0.00    +0.270 C 
BRANCH  25  30
ATOM     30  O   UNL     1      10.917   0.774  25.089  0.00  0.00    -0.387 OA
ATOM     31  H   UNL     1      11.349  -0.085  24.925  0.00  0.00    +0.210 HD
ENDBRANCH  25  30
BRANCH  26  32
ATOM     32  O   UNL     1       7.501   1.788  24.121  0.00  0.00    -0.387 OA
ATOM     33  H   UNL     1       7.282   2.327  23.332  0.00  0.00    +0.210 HD
ENDBRANCH  26  32
BRANCH  29  34
ATOM     34  O   UNL     1       9.549  -0.456  21.121  0.00  0.00    -0.365 OA
ATOM     35  H   UNL     1       8.592  -0.617  21.146  0.00  0.00    +0.213 HD
ENDBRANCH  29  34
BRANCH  27  36
ATOM     36  C   UNL     1      11.022   3.012  23.288  0.00  0.00    +0.190 C 
BRANCH  36  37
ATOM     37  O   UNL     1      11.177   4.378  22.905  0.00  0.00    -0.392 OA
ATOM     38  H   UNL     1      12.114   4.604  23.046  0.00  0.00    +0.210 HD
ENDBRANCH  36  37
ENDBRANCH  27  36
ENDBRANCH  21  24
ENDBRANCH   7  20
TORSDOF 9
ENDMDL
MODEL 3
REMARK VINA RESULT:      -6.0      2.728      3.525
REMARK  Name = 
REMARK  12 active torsions:
REMARK  status: ('A' for Active; 'I' for Inactive)
REMARK    1  A    between atoms: C_1  and  N_2
REMARK    2  A    between atoms: N_2  and  C_6
REMARK    3  A    between atoms: C_3  and  C_4
REMARK    4  A    between atoms: C_9  and  C_10
REMARK    5  A    between atoms: N_12  and  C_13
REMARK    6  A    between atoms: C_15  and  O_16
REMARK    7  A    between atoms: C_18  and  C_20
REMARK    8  A    between atoms: C_20  and  O_21
REMARK    9  A    between atoms: C_22  and  O_24
REMARK   10  A    between atoms: C_25  and  O_27
REMARK   11  A    between atoms: C_30  and  N_31
REMARK   12  A    between atoms: C_32  and  C_33
REMARK                            x       y       z     vdW  Elec       q    Type
REMARK                         _______ _______ _______ _____ _____    ______ ____
ROOT
ATOM      1  C   UNL     1       7.371  -3.427  24.409  0.00  0.00    +0.065 A 
ATOM      2  C   UNL     1       6.495  -3.558  25.519  0.00  0.00    +0.058 A 
ATOM      3  I   UNL     1       6.025  -5.565  26.226  0.00  0.00    -0.040 I 
ATOM      4  C   UNL     1       6.198  -2.467  26.372  0.00  0.00    +0.062 A 
ATOM      5  C   UNL     1       6.862  -1.229  26.194  0.00  0.00    +0.049 A 
ATOM      6  I   UNL     1       6.222   0.416  27.446  0.00  0.00    -0.041 I 
ATOM      7  C   UNL     1       7.837  -1.076  25.190  0.00  0.00    +0.066 A 
ATOM      8  C   UNL     1       8.109  -2.196  24.322  0.00  0.00    +0.049 A 
ATOM      9  I   UNL     1       9.797  -2.022  22.968  0.00  0.00    -0.041 I 
ENDROOT
BRANCH   1  11
ATOM     10  C   UNL     1       8.307  -5.644  23.642  0.00  0.00    +0.138 C 
ATOM     11  N   UNL     1       7.440  -4.492  23.414  0.00  0.00    -0.273 N 
ATOM     12  C   UNL     1       6.626  -4.597  22.274  0.00  0.00    +0.216 C 
ATOM     13  O   UNL     1       6.667  -5.583  21.526  0.00  0.00    -0.276 OA
ATOM     14  C   UNL     1       5.686  -3.481  21.888  0.00  0.00    +0.109 C 
ENDBRANCH   1  11
BRANCH   4  15
ATOM     15  N   UNL     1       5.309  -2.593  27.475  0.00  0.00    -0.284 N 
ATOM     16  H   UNL     1       5.623  -2.182  28.351  0.00  0.00    +0.155 HD
ATOM     17  C   UNL     1       3.937  -2.628  27.477  0.00  0.00    +0.214 C 
ATOM     18  O   UNL     1       3.365  -2.594  28.565  0.00  0.00    -0.276 OA
ATOM     19  C   UNL     1       3.155  -2.648  26.196  0.00  0.00    +0.109 C 
ENDBRANCH   4  15
BRANCH   7  20
ATOM     20  C   UNL     1       8.425   0.285  24.896  0.00  0.00    +0.247 C 
ATOM     21  N   UNL     1       7.837   1.108  23.936  0.00  0.00    -0.301 N 
ATOM     22  H   UNL     1       6.916   0.856  23.587  0.00  0.00    +0.150 HD
ATOM     23  O   UNL     1       9.429   0.631  25.510  0.00  0.00    -0.270 OA
BRANCH  21  24
ATOM     24  C   UNL     1       8.170   2.559  23.899  0.00  0.00    +0.160 C 
ATOM     25  C   UNL     1       7.000   3.338  24.523  0.00  0.00    +0.171 C 
ATOM     26  C   UNL     1       5.867   3.508  23.491  0.00  0.00    +0.176 C 
ATOM     27  C   UNL     1       6.358   4.237  22.233  0.00  0.00    +0.178 C 
ATOM     28  O   UNL     1       7.404   3.437  21.646  0.00  0.00    -0.341 OA
ATOM     29  C   UNL     1       8.517   3.185  22.506  0.00  0.00    +0.270 C 
BRANCH  25  30
ATOM     30  O   UNL     1       7.462   4.605  24.991  0.00  0.00    -0.387 OA
ATOM     31  H   UNL     1       7.272   5.260  24.294  0.00  0.00    +0.210 HD
ENDBRANCH  25  30
BRANCH  26  32
ATOM     32  O   UNL     1       5.393   2.198  23.103  0.00  0.00    -0.387 OA
ATOM     33  H   UNL     1       5.645   1.583  23.824  0.00  0.00    +0.210 HD
ENDBRANCH  26  32
BRANCH  29  34
ATOM     34  O   UNL     1       9.447   2.399  21.778  0.00  0.00    -0.365 OA
ATOM     35  H   UNL     1       9.241   1.474  21.987  0.00  0.00    +0.213 HD
ENDBRANCH  29  34
BRANCH  27  36
ATOM     36  C   UNL     1       6.721   5.718  22.447  0.00  0.00    +0.190 C 
BRANCH  36  37
ATOM     37  O   UNL     1       7.464   6.215  21.334  0.00  0.00    -0.392 OA
ATOM     38  H   UNL     1       6.824   6.367  20.615  0.00  0.00    +0.210 HD
ENDBRANCH  36  37
ENDBRANCH  27  36
ENDBRANCH  21  24
ENDBRANCH   7  20
TORSDOF 9
ENDMDL
MODEL 4
REMARK VINA RESULT:      -5.9      2.624      4.460
REMARK  Name = 
REMARK  12 active torsions:
REMARK  status: ('A' for Active; 'I' for Inactive)
REMARK    1  A    between atoms: C_1  and  N_2
REMARK    2  A    between atoms: N_2  and  C_6
REMARK    3  A    between atoms: C_3  and  C_4
REMARK    4  A    between atoms: C_9  and  C_10
REMARK    5  A    between atoms: N_12  and  C_13
REMARK    6  A    between atoms: C_15  and  O_16
REMARK    7  A    between atoms: C_18  and  C_20
REMARK    8  A    between atoms: C_20  and  O_21
REMARK    9  A    between atoms: C_22  and  O_24
REMARK   10  A    between atoms: C_25  and  O_27
REMARK   11  A    between atoms: C_30  and  N_31
REMARK   12  A    between atoms: C_32  and  C_33
REMARK                            x       y       z     vdW  Elec       q    Type
REMARK                         _______ _______ _______ _____ _____    ______ ____
ROOT
ATOM      1  C   UNL     1       5.174  -3.692  26.561  0.00  0.00    +0.065 A 
ATOM      2  C   UNL     1       5.728  -4.617  25.637  0.00  0.00    +0.058 A 
ATOM      3  I   UNL     1       4.568  -6.395  25.144  0.00  0.00    -0.040 I 
ATOM      4  C   UNL     1       6.811  -4.274  24.791  0.00  0.00    +0.062 A 
ATOM      5  C   UNL     1       7.302  -2.946  24.774  0.00  0.00    +0.049 A 
ATOM      6  I   UNL     1       9.056  -2.566  23.565  0.00  0.00    -0.041 I 
ATOM      7  C   UNL     1       6.709  -1.952  25.575  0.00  0.00    +0.066 A 
ATOM      8  C   UNL     1       5.620  -2.330  26.442  0.00  0.00    +0.049 A 
ATOM      9  I   UNL     1       4.552  -0.735  27.457  0.00  0.00    -0.041 I 
ENDROOT
BRANCH   1  11
ATOM     10  C   UNL     1       4.763  -4.648  28.862  0.00  0.00    +0.138 C 
ATOM     11  N   UNL     1       4.248  -4.162  27.586  0.00  0.00    -0.273 N 
ATOM     12  C   UNL     1       2.848  -4.066  27.525  0.00  0.00    +0.216 C 
ATOM     13  O   UNL     1       2.125  -4.390  28.477  0.00  0.00    -0.276 OA
ATOM     14  C   UNL     1       2.157  -3.597  26.267  0.00  0.00    +0.109 C 
ENDBRANCH   1  11
BRANCH   4  15
ATOM     15  N   UNL     1       7.376  -5.205  23.875  0.00  0.00    -0.284 N 
ATOM     16  H   UNL     1       7.721  -6.074  24.277  0.00  0.00    +0.155 HD
ATOM     17  C   UNL     1       7.045  -5.432  22.563  0.00  0.00    +0.214 C 
ATOM     18  O   UNL     1       7.568  -6.392  21.999  0.00  0.00    -0.276 OA
ATOM     19  C   UNL     1       6.038  -4.576  21.852  0.00  0.00    +0.109 C 
ENDBRANCH   4  15
BRANCH   7  20
ATOM     20  C   UNL     1       7.334  -0.580  25.678  0.00  0.00    +0.247 C 
ATOM     21  N   UNL     1       7.063   0.387  24.711  0.00  0.00    -0.301 N 
ATOM     22  H   UNL     1       6.303   0.212  24.057  0.00  0.00    +0.150 HD
ATOM     23  O   UNL     1       8.087  -0.352  26.619  0.00  0.00    -0.270 OA
BRANCH  21  24
ATOM     24  C   UNL     1       7.363   1.819  24.988  0.00  0.00    +0.160 C 
ATOM     25  C   UNL     1       6.240   2.674  24.378  0.00  0.00    +0.171 C 
ATOM     26  C   UNL     1       6.473   2.853  22.864  0.00  0.00    +0.176 C 
ATOM     27  C   UNL     1       7.832   3.509  22.580  0.00  0.00    +0.178 C 
ATOM     28  O   UNL     1       8.854   2.640  23.108  0.00  0.00    -0.341 OA
ATOM     29  C   UNL     1       8.747   2.373  24.507  0.00  0.00    +0.270 C 
BRANCH  25  30
ATOM     30  O   UNL     1       6.183   3.936  25.041  0.00  0.00    -0.387 OA
ATOM     31  H   UNL     1       7.044   4.076  25.476  0.00  0.00    +0.210 HD
ENDBRANCH  25  30
BRANCH  26  32
ATOM     32  O   UNL     1       6.456   1.551  22.235  0.00  0.00    -0.387 OA
ATOM     33  H   UNL     1       7.179   1.548  21.574  0.00  0.00    +0.210 HD
ENDBRANCH  26  32
BRANCH  29  34
ATOM     34  O   UNL     1       9.822   1.517  24.860  0.00  0.00    -0.365 OA
ATOM     35  H   UNL     1       9.672   1.262  25.784  0.00  0.00    +0.213 HD
ENDBRANCH  29  34
BRANCH  27  36
ATOM     36  C   UNL     1       7.943   4.979  23.022  0.00  0.00    +0.190 C 
BRANCH  36  37
ATOM     37  O   UNL     1       7.943   5.843  21.887  0.00  0.00    -0.392 OA
ATOM     38  H   UNL     1       7.374   6.601  22.110  0.00  0.00    +0.210 HD
ENDBRANCH  36  37
ENDBRANCH  27  36
ENDBRANCH  21  24
ENDBRANCH   7  20
TORSDOF 9
ENDMDL
MODEL 5
REMARK VINA RESULT:      -5.9      2.723      7.398
REMARK  Name = 
REMARK  12 active torsions:
REMARK  status: ('A' for Active; 'I' for Inactive)
REMARK    1  A    between atoms: C_1  and  N_2
REMARK    2  A    between atoms: N_2  and  C_6
REMARK    3  A    between atoms: C_3  and  C_4
REMARK    4  A    between atoms: C_9  and  C_10
REMARK    5  A    between atoms: N_12  and  C_13
REMARK    6  A    between atoms: C_15  and  O_16
REMARK    7  A    between atoms: C_18  and  C_20
REMARK    8  A    between atoms: C_20  and  O_21
REMARK    9  A    between atoms: C_22  and  O_24
REMARK   10  A    between atoms: C_25  and  O_27
REMARK   11  A    between atoms: C_30  and  N_31
REMARK   12  A    between atoms: C_32  and  C_33
REMARK                            x       y       z     vdW  Elec       q    Type
REMARK                         _______ _______ _______ _____ _____    ______ ____
ROOT
ATOM      1  C   UNL     1       8.334   0.268  24.492  0.00  0.00    +0.065 A 
ATOM      2  C   UNL     1       7.582   1.017  25.435  0.00  0.00    +0.058 A 
ATOM      3  I   UNL     1       7.554   3.187  25.235  0.00  0.00    -0.040 I 
ATOM      4  C   UNL     1       6.604   0.414  26.264  0.00  0.00    +0.062 A 
ATOM      5  C   UNL     1       6.277  -0.953  26.091  0.00  0.00    +0.049 A 
ATOM      6  I   UNL     1       4.889  -1.815  27.510  0.00  0.00    -0.041 I 
ATOM      7  C   UNL     1       6.898  -1.718  25.086  0.00  0.00    +0.066 A 
ATOM      8  C   UNL     1       7.903  -1.086  24.267  0.00  0.00    +0.049 A 
ATOM      9  I   UNL     1       8.643  -2.201  22.557  0.00  0.00    -0.041 I 
ENDROOT
BRANCH   1  11
ATOM     10  C   UNL     1      10.812   0.756  24.485  0.00  0.00    +0.138 C 
ATOM     11  N   UNL     1       9.500   0.870  23.856  0.00  0.00    -0.273 N 
ATOM     12  C   UNL     1       9.519   1.458  22.579  0.00  0.00    +0.216 C 
ATOM     13  O   UNL     1      10.568   1.858  22.056  0.00  0.00    -0.276 OA
ATOM     14  C   UNL     1       8.242   1.665  21.802  0.00  0.00    +0.109 C 
ENDBRANCH   1  11
BRANCH   4  15
ATOM     15  N   UNL     1       5.861   1.161  27.220  0.00  0.00    -0.284 N 
ATOM     16  H   UNL     1       4.849   1.097  27.147  0.00  0.00    +0.155 HD
ATOM     17  C   UNL     1       6.187   1.466  28.517  0.00  0.00    +0.214 C 
ATOM     18  O   UNL     1       5.325   2.002  29.213  0.00  0.00    -0.276 OA
ATOM     19  C   UNL     1       7.527   1.108  29.091  0.00  0.00    +0.109 C 
ENDBRANCH   4  15
BRANCH   7  20
ATOM     20  C   UNL     1       6.669  -3.209  25.008  0.00  0.00    +0.247 C 
ATOM     21  N   UNL     1       5.441  -3.707  24.575  0.00  0.00    -0.301 N 
ATOM     22  H   UNL     1       4.787  -3.060  24.141  0.00  0.00    +0.150 HD
ATOM     23  O   UNL     1       7.580  -3.957  25.347  0.00  0.00    -0.270 OA
BRANCH  21  24
ATOM     24  C   UNL     1       5.325  -5.129  24.149  0.00  0.00    +0.160 C 
ATOM     25  C   UNL     1       4.206  -5.228  23.098  0.00  0.00    +0.171 C 
ATOM     26  C   UNL     1       2.829  -5.258  23.792  0.00  0.00    +0.176 C 
ATOM     27  C   UNL     1       2.720  -6.435  24.772  0.00  0.00    +0.178 C 
ATOM     28  O   UNL     1       3.741  -6.262  25.775  0.00  0.00    -0.341 OA
ATOM     29  C   UNL     1       5.074  -6.200  25.265  0.00  0.00    +0.270 C 
BRANCH  25  30
ATOM     30  O   UNL     1       4.402  -6.392  22.296  0.00  0.00    -0.387 OA
ATOM     31  H   UNL     1       4.481  -6.098  21.370  0.00  0.00    +0.210 HD
ENDBRANCH  25  30
BRANCH  26  32
ATOM     32  O   UNL     1       2.657  -4.029  24.535  0.00  0.00    -0.387 OA
ATOM     33  H   UNL     1       3.511  -3.849  24.981  0.00  0.00    +0.210 HD
ENDBRANCH  26  32
BRANCH  29  34
ATOM     34  O   UNL     1       5.945  -6.037  26.373  0.00  0.00    -0.365 OA
ATOM     35  H   UNL     1       5.624  -6.641  27.061  0.00  0.00    +0.213 HD
ENDBRANCH  29  34
BRANCH  27  36
ATOM     36  C   UNL     1       2.693  -7.824  24.110  0.00  0.00    +0.190 C 
BRANCH  36  37
ATOM     37  O   UNL     1       2.693  -8.850  25.103  0.00  0.00    -0.392 OA
ATOM     38  H   UNL     1       2.874  -8.415  25.956  0.00  0.00    +0.210 HD
ENDBRANCH  36  37
ENDBRANCH  27  36
ENDBRANCH  21  24
ENDBRANCH   7  20
TORSDOF 9
ENDMDL
MODEL 6
REMARK VINA RESULT:      -5.8      3.386      7.340
REMARK  Name = 
REMARK  12 active torsions:
REMARK  status: ('A' for Active; 'I' for Inactive)
REMARK    1  A    between atoms: C_1  and  N_2
REMARK    2  A    between atoms: N_2  and  C_6
REMARK    3  A    between atoms: C_3  and  C_4
REMARK    4  A    between atoms: C_9  and  C_10
REMARK    5  A    between atoms: N_12  and  C_13
REMARK    6  A    between atoms: C_15  and  O_16
REMARK    7  A    between atoms: C_18  and  C_20
REMARK    8  A    between atoms: C_20  and  O_21
REMARK    9  A    between atoms: C_22  and  O_24
REMARK   10  A    between atoms: C_25  and  O_27
REMARK   11  A    between atoms: C_30  and  N_31
REMARK   12  A    between atoms: C_32  and  C_33
REMARK                            x       y       z     vdW  Elec       q    Type
REMARK                         _______ _______ _______ _____ _____    ______ ____
ROOT
ATOM      1  C   UNL     1       5.857   2.265  26.035  0.00  0.00    +0.065 A 
ATOM      2  C   UNL     1       7.096   2.814  25.612  0.00  0.00    +0.058 A 
ATOM      3  I   UNL     1       7.513   4.899  26.091  0.00  0.00    -0.040 I 
ATOM      4  C   UNL     1       8.179   1.996  25.206  0.00  0.00    +0.062 A 
ATOM      5  C   UNL     1       8.082   0.588  25.318  0.00  0.00    +0.049 A 
ATOM      6  I   UNL     1       9.727  -0.573  24.525  0.00  0.00    -0.041 I 
ATOM      7  C   UNL     1       6.926  -0.011  25.852  0.00  0.00    +0.066 A 
ATOM      8  C   UNL     1       5.830   0.842  26.241  0.00  0.00    +0.049 A 
ATOM      9  I   UNL     1       4.177  -0.080  27.307  0.00  0.00    -0.041 I 
ENDROOT
BRANCH   1  11
ATOM     10  C   UNL     1       4.398   3.727  27.488  0.00  0.00    +0.138 C 
ATOM     11  N   UNL     1       4.696   3.135  26.188  0.00  0.00    -0.273 N 
ATOM     12  C   UNL     1       3.875   3.590  25.142  0.00  0.00    +0.216 C 
ATOM     13  O   UNL     1       2.967   4.411  25.330  0.00  0.00    -0.276 OA
ATOM     14  C   UNL     1       4.042   3.060  23.739  0.00  0.00    +0.109 C 
ENDBRANCH   1  11
BRANCH   4  15
ATOM     15  N   UNL     1       9.416   2.546  24.767  0.00  0.00    -0.284 N 
ATOM     16  H   UNL     1      10.236   2.289  25.311  0.00  0.00    +0.155 HD
ATOM     17  C   UNL     1       9.816   2.856  23.492  0.00  0.00    +0.214 C 
ATOM     18  O   UNL     1      10.989   3.186  23.325  0.00  0.00    -0.276 OA
ATOM     19  C   UNL     1       8.875   2.744  22.328  0.00  0.00    +0.109 C 
ENDBRANCH   4  15
BRANCH   7  20
ATOM     20  C   UNL     1       6.758  -1.513  25.820  0.00  0.00    +0.247 C 
ATOM     21  N   UNL     1       6.044  -2.115  24.785  0.00  0.00    -0.301 N 
ATOM     22  H   UNL     1       5.811  -1.550  23.971  0.00  0.00    +0.150 HD
ATOM     23  O   UNL     1       7.252  -2.174  26.728  0.00  0.00    -0.270 OA
BRANCH  21  24
ATOM     24  C   UNL     1       6.181  -3.577  24.542  0.00  0.00    +0.160 C 
ATOM     25  C   UNL     1       7.551  -3.831  23.890  0.00  0.00    +0.171 C 
ATOM     26  C   UNL     1       7.485  -3.523  22.380  0.00  0.00    +0.176 C 
ATOM     27  C   UNL     1       6.415  -4.374  21.680  0.00  0.00    +0.178 C 
ATOM     28  O   UNL     1       5.143  -4.052  22.277  0.00  0.00    -0.341 OA
ATOM     29  C   UNL     1       5.070  -4.275  23.686  0.00  0.00    +0.270 C 
BRANCH  25  30
ATOM     30  O   UNL     1       7.950  -5.182  24.121  0.00  0.00    -0.387 OA
ATOM     31  H   UNL     1       8.610  -5.172  24.838  0.00  0.00    +0.210 HD
ENDBRANCH  25  30
BRANCH  26  32
ATOM     32  O   UNL     1       7.142  -2.129  22.206  0.00  0.00    -0.387 OA
ATOM     33  H   UNL     1       6.408  -2.099  21.558  0.00  0.00    +0.210 HD
ENDBRANCH  26  32
BRANCH  29  34
ATOM     34  O   UNL     1       3.763  -3.917  24.106  0.00  0.00    -0.365 OA
ATOM     35  H   UNL     1       3.270  -4.748  24.193  0.00  0.00    +0.213 HD
ENDBRANCH  29  34
BRANCH  27  36
ATOM     36  C   UNL     1       6.733  -5.879  21.612  0.00  0.00    +0.190 C 
BRANCH  36  37
ATOM     37  O   UNL     1       5.609  -6.604  21.114  0.00  0.00    -0.392 OA
ATOM     38  H   UNL     1       4.829  -6.035  21.241  0.00  0.00    +0.210 HD
ENDBRANCH  36  37
ENDBRANCH  27  36
ENDBRANCH  21  24
ENDBRANCH   7  20
TORSDOF 9
ENDMDL
MODEL 7
REMARK VINA RESULT:      -5.8      2.694      8.305
REMARK  Name = 
REMARK  12 active torsions:
REMARK  status: ('A' for Active; 'I' for Inactive)
REMARK    1  A    between atoms: C_1  and  N_2
REMARK    2  A    between atoms: N_2  and  C_6
REMARK    3  A    between atoms: C_3  and  C_4
REMARK    4  A    between atoms: C_9  and  C_10
REMARK    5  A    between atoms: N_12  and  C_13
REMARK    6  A    between atoms: C_15  and  O_16
REMARK    7  A    between atoms: C_18  and  C_20
REMARK    8  A    between atoms: C_20  and  O_21
REMARK    9  A    between atoms: C_22  and  O_24
REMARK   10  A    between atoms: C_25  and  O_27
REMARK   11  A    between atoms: C_30  and  N_31
REMARK   12  A    between atoms: C_32  and  C_33
REMARK                            x       y       z     vdW  Elec       q    Type
REMARK                         _______ _______ _______ _____ _____    ______ ____
ROOT
ATOM      1  C   UNL     1       6.766   1.155  24.808  0.00  0.00    +0.065 A 
ATOM      2  C   UNL     1       8.014   0.685  24.321  0.00  0.00    +0.058 A 
ATOM      3  I   UNL     1       9.621   2.131  24.047  0.00  0.00    -0.040 I 
ATOM      4  C   UNL     1       8.353  -0.691  24.332  0.00  0.00    +0.062 A 
ATOM      5  C   UNL     1       7.482  -1.629  24.937  0.00  0.00    +0.049 A 
ATOM      6  I   UNL     1       8.017  -3.718  24.761  0.00  0.00    -0.041 I 
ATOM      7  C   UNL     1       6.288  -1.206  25.552  0.00  0.00    +0.066 A 
ATOM      8  C   UNL     1       5.957   0.197  25.511  0.00  0.00    +0.049 A 
ATOM      9  I   UNL     1       4.259   0.856  26.694  0.00  0.00    -0.041 I 
ENDROOT
BRANCH   1  11
ATOM     10  C   UNL     1       5.647   2.845  23.301  0.00  0.00    +0.138 C 
ATOM     11  N   UNL     1       6.356   2.528  24.536  0.00  0.00    -0.273 N 
ATOM     12  C   UNL     1       6.457   3.602  25.438  0.00  0.00    +0.216 C 
ATOM     13  O   UNL     1       5.994   4.721  25.180  0.00  0.00    -0.276 OA
ATOM     14  C   UNL     1       7.179   3.444  26.754  0.00  0.00    +0.109 C 
ENDBRANCH   1  11
BRANCH   4  15
ATOM     15  N   UNL     1       9.598  -1.165  23.830  0.00  0.00    -0.284 N 
ATOM     16  H   UNL     1      10.077  -1.854  24.404  0.00  0.00    +0.155 HD
ATOM     17  C   UNL     1       9.994  -1.330  22.527  0.00  0.00    +0.214 C 
ATOM     18  O   UNL     1      11.067  -1.896  22.323  0.00  0.00    -0.276 OA
ATOM     19  C   UNL     1       9.127  -0.889  21.384  0.00  0.00    +0.109 C 
ENDBRANCH   4  15
BRANCH   7  20
ATOM     20  C   UNL     1       5.285  -2.220  26.051  0.00  0.00    +0.247 C 
ATOM     21  N   UNL     1       4.336  -2.753  25.180  0.00  0.00    -0.301 N 
ATOM     22  H   UNL     1       4.457  -2.591  24.182  0.00  0.00    +0.150 HD
ATOM     23  O   UNL     1       5.323  -2.544  27.234  0.00  0.00    -0.270 OA
BRANCH  21  24
ATOM     24  C   UNL     1       3.600  -3.992  25.552  0.00  0.00    +0.160 C 
ATOM     25  C   UNL     1       4.394  -5.201  25.025  0.00  0.00    +0.171 C 
ATOM     26  C   UNL     1       4.110  -5.407  23.524  0.00  0.00    +0.176 C 
ATOM     27  C   UNL     1       2.612  -5.621  23.261  0.00  0.00    +0.178 C 
ATOM     28  O   UNL     1       1.918  -4.438  23.707  0.00  0.00    -0.341 OA
ATOM     29  C   UNL     1       2.110  -4.116  25.085  0.00  0.00    +0.270 C 
BRANCH  25  30
ATOM     30  O   UNL     1       4.053  -6.364  25.778  0.00  0.00    -0.387 OA
ATOM     31  H   UNL     1       3.085  -6.361  25.896  0.00  0.00    +0.210 HD
ENDBRANCH  25  30
BRANCH  26  32
ATOM     32  O   UNL     1       4.534  -4.227  22.805  0.00  0.00    -0.387 OA
ATOM     33  H   UNL     1       4.503  -3.483  23.442  0.00  0.00    +0.210 HD
ENDBRANCH  26  32
BRANCH  29  34
ATOM     34  O   UNL     1       1.362  -2.942  25.356  0.00  0.00    -0.365 OA
ATOM     35  H   UNL     1       0.572  -2.990  24.795  0.00  0.00    +0.213 HD
ENDBRANCH  29  34
BRANCH  27  36
ATOM     36  C   UNL     1       2.044  -6.945  23.805  0.00  0.00    +0.190 C 
BRANCH  36  37
ATOM     37  O   UNL     1       2.989  -8.000  23.633  0.00  0.00    -0.392 OA
ATOM     38  H   UNL     1       3.868  -7.584  23.573  0.00  0.00    +0.210 HD
ENDBRANCH  36  37
ENDBRANCH  27  36
ENDBRANCH  21  24
ENDBRANCH   7  20
TORSDOF 9
ENDMDL
MODEL 8
REMARK VINA RESULT:      -5.8      3.556      7.458
REMARK  Name = 
REMARK  12 active torsions:
REMARK  status: ('A' for Active; 'I' for Inactive)
REMARK    1  A    between atoms: C_1  and  N_2
REMARK    2  A    between atoms: N_2  and  C_6
REMARK    3  A    between atoms: C_3  and  C_4
REMARK    4  A    between atoms: C_9  and  C_10
REMARK    5  A    between atoms: N_12  and  C_13
REMARK    6  A    between atoms: C_15  and  O_16
REMARK    7  A    between atoms: C_18  and  C_20
REMARK    8  A    between atoms: C_20  and  O_21
REMARK    9  A    between atoms: C_22  and  O_24
REMARK   10  A    between atoms: C_25  and  O_27
REMARK   11  A    between atoms: C_30  and  N_31
REMARK   12  A    between atoms: C_32  and  C_33
REMARK                            x       y       z     vdW  Elec       q    Type
REMARK                         _______ _______ _______ _____ _____    ______ ____
ROOT
ATOM      1  C   UNL     1       7.971   3.357  24.353  0.00  0.00    +0.065 A 
ATOM      2  C   UNL     1       7.641   3.374  25.734  0.00  0.00    +0.058 A 
ATOM      3  I   UNL     1       6.818   5.210  26.570  0.00  0.00    -0.040 I 
ATOM      4  C   UNL     1       7.508   2.182  26.488  0.00  0.00    +0.062 A 
ATOM      5  C   UNL     1       7.598   0.925  25.844  0.00  0.00    +0.049 A 
ATOM      6  I   UNL     1       7.538  -0.830  27.110  0.00  0.00    -0.041 I 
ATOM      7  C   UNL     1       7.795   0.843  24.453  0.00  0.00    +0.066 A 
ATOM      8  C   UNL     1       7.946   2.071  23.710  0.00  0.00    +0.049 A 
ATOM      9  I   UNL     1       7.977   1.928  21.543  0.00  0.00    -0.041 I 
ENDROOT
BRANCH   1  11
ATOM     10  C   UNL     1       9.741   5.048  23.734  0.00  0.00    +0.138 C 
ATOM     11  N   UNL     1       8.354   4.596  23.686  0.00  0.00    -0.273 N 
ATOM     12  C   UNL     1       7.523   5.364  22.853  0.00  0.00    +0.216 C 
ATOM     13  O   UNL     1       7.944   6.351  22.235  0.00  0.00    -0.276 OA
ATOM     14  C   UNL     1       6.056   5.039  22.710  0.00  0.00    +0.109 C 
ENDBRANCH   1  11
BRANCH   4  15
ATOM     15  N   UNL     1       7.193   2.200  27.876  0.00  0.00    -0.284 N 
ATOM     16  H   UNL     1       7.839   2.708  28.474  0.00  0.00    +0.155 HD
ATOM     17  C   UNL     1       5.961   2.181  28.479  0.00  0.00    +0.214 C 
ATOM     18  O   UNL     1       5.918   2.351  29.697  0.00  0.00    -0.276 OA
ATOM     19  C   UNL     1       4.702   2.017  27.680  0.00  0.00    +0.109 C 
ENDBRANCH   4  15
BRANCH   7  20
ATOM     20  C   UNL     1       8.053  -0.492  23.794  0.00  0.00    +0.247 C 
ATOM     21  N   UNL     1       7.020  -1.420  23.668  0.00  0.00    -0.301 N 
ATOM     22  H   UNL     1       6.070  -1.109  23.853  0.00  0.00    +0.150 HD
ATOM     23  O   UNL     1       9.186  -0.734  23.391  0.00  0.00    -0.270 OA
BRANCH  21  24
ATOM     24  C   UNL     1       7.157  -2.558  22.717  0.00  0.00    +0.160 C 
ATOM     25  C   UNL     1       5.748  -2.985  22.271  0.00  0.00    +0.171 C 
ATOM     26  C   UNL     1       5.100  -3.880  23.346  0.00  0.00    +0.176 C 
ATOM     27  C   UNL     1       5.952  -5.127  23.626  0.00  0.00    +0.178 C 
ATOM     28  O   UNL     1       7.236  -4.679  24.106  0.00  0.00    -0.341 OA
ATOM     29  C   UNL     1       7.943  -3.821  23.209  0.00  0.00    +0.270 C 
BRANCH  25  30
ATOM     30  O   UNL     1       5.826  -3.663  21.018  0.00  0.00    -0.387 OA
ATOM     31  H   UNL     1       6.685  -3.436  20.616  0.00  0.00    +0.210 HD
ENDBRANCH  25  30
BRANCH  26  32
ATOM     32  O   UNL     1       4.986  -3.122  24.573  0.00  0.00    -0.387 OA
ATOM     33  H   UNL     1       5.444  -2.269  24.420  0.00  0.00    +0.210 HD
ENDBRANCH  26  32
BRANCH  29  34
ATOM     34  O   UNL     1       9.174  -3.482  23.827  0.00  0.00    -0.365 OA
ATOM     35  H   UNL     1       9.013  -2.662  24.319  0.00  0.00    +0.213 HD
ENDBRANCH  29  34
BRANCH  27  36
ATOM     36  C   UNL     1       6.014  -6.138  22.466  0.00  0.00    +0.190 C 
BRANCH  36  37
ATOM     37  O   UNL     1       4.729  -6.281  21.861  0.00  0.00    -0.392 OA
ATOM     38  H   UNL     1       4.686  -5.629  21.138  0.00  0.00    +0.210 HD
ENDBRANCH  36  37
ENDBRANCH  27  36
ENDBRANCH  21  24
ENDBRANCH   7  20
TORSDOF 9
ENDMDL
MODEL 9
REMARK VINA RESULT:      -5.7      2.764      3.496
REMARK  Name = 
REMARK  12 active torsions:
REMARK  status: ('A' for Active; 'I' for Inactive)
REMARK    1  A    between atoms: C_1  and  N_2
REMARK    2  A    between atoms: N_2  and  C_6
REMARK    3  A    between atoms: C_3  and  C_4
REMARK    4  A    between atoms: C_9  and  C_10
REMARK    5  A    between atoms: N_12  and  C_13
REMARK    6  A    between atoms: C_15  and  O_16
REMARK    7  A    between atoms: C_18  and  C_20
REMARK    8  A    between atoms: C_20  and  O_21
REMARK    9  A    between atoms: C_22  and  O_24
REMARK   10  A    between atoms: C_25  and  O_27
REMARK   11  A    between atoms: C_30  and  N_31
REMARK   12  A    between atoms: C_32  and  C_33
REMARK                            x       y       z     vdW  Elec       q    Type
REMARK                         _______ _______ _______ _____ _____    ______ ____
ROOT
ATOM      1  C   UNL     1       6.582  -3.565  24.826  0.00  0.00    +0.065 A 
ATOM      2  C   UNL     1       5.554  -3.886  25.751  0.00  0.00    +0.058 A 
ATOM      3  I   UNL     1       5.184  -5.989  26.187  0.00  0.00    -0.040 I 
ATOM      4  C   UNL     1       5.009  -2.919  26.632  0.00  0.00    +0.062 A 
ATOM      5  C   UNL     1       5.562  -1.616  26.682  0.00  0.00    +0.049 A 
ATOM      6  I   UNL     1       4.557  -0.173  27.943  0.00  0.00    -0.041 I 
ATOM      7  C   UNL     1       6.667  -1.275  25.879  0.00  0.00    +0.066 A 
ATOM      8  C   UNL     1       7.192  -2.271  24.977  0.00  0.00    +0.049 A 
ATOM      9  I   UNL     1       9.053  -1.812  23.957  0.00  0.00    -0.041 I 
ENDROOT
BRANCH   1  11
ATOM     10  C   UNL     1       6.156  -4.522  22.529  0.00  0.00    +0.138 C 
ATOM     11  N   UNL     1       6.924  -4.510  23.769  0.00  0.00    -0.273 N 
ATOM     12  C   UNL     1       8.046  -5.356  23.765  0.00  0.00    +0.216 C 
ATOM     13  O   UNL     1       8.333  -6.060  22.787  0.00  0.00    -0.276 OA
ATOM     14  C   UNL     1       8.934  -5.473  24.980  0.00  0.00    +0.109 C 
ENDBRANCH   1  11
BRANCH   4  15
ATOM     15  N   UNL     1       3.968  -3.236  27.549  0.00  0.00    -0.284 N 
ATOM     16  H   UNL     1       4.129  -2.968  28.517  0.00  0.00    +0.155 HD
ATOM     17  C   UNL     1       2.615  -3.292  27.331  0.00  0.00    +0.214 C 
ATOM     18  O   UNL     1       1.884  -3.444  28.308  0.00  0.00    -0.276 OA
ATOM     19  C   UNL     1       2.038  -3.117  25.956  0.00  0.00    +0.109 C 
ENDBRANCH   4  15
BRANCH   7  20
ATOM     20  C   UNL     1       7.151   0.154  25.812  0.00  0.00    +0.247 C 
ATOM     21  N   UNL     1       6.759   0.977  24.757  0.00  0.00    -0.301 N 
ATOM     22  H   UNL     1       6.005   0.657  24.154  0.00  0.00    +0.150 HD
ATOM     23  O   UNL     1       7.900   0.558  26.696  0.00  0.00    -0.270 OA
BRANCH  21  24
ATOM     24  C   UNL     1       6.919   2.453  24.868  0.00  0.00    +0.160 C 
ATOM     25  C   UNL     1       5.723   3.121  24.167  0.00  0.00    +0.171 C 
ATOM     26  C   UNL     1       5.950   3.148  22.642  0.00  0.00    +0.176 C 
ATOM     27  C   UNL     1       7.243   3.895  22.280  0.00  0.00    +0.178 C 
ATOM     28  O   UNL     1       8.339   3.194  22.901  0.00  0.00    -0.341 OA
ATOM     29  C   UNL     1       8.247   3.079  24.322  0.00  0.00    +0.270 C 
BRANCH  25  30
ATOM     30  O   UNL     1       5.541   4.440  24.682  0.00  0.00    -0.387 OA
ATOM     31  H   UNL     1       6.323   4.652  25.223  0.00  0.00    +0.210 HD
ENDBRANCH  25  30
BRANCH  26  32
ATOM     32  O   UNL     1       6.062   1.787  22.166  0.00  0.00    -0.387 OA
ATOM     33  H   UNL     1       5.714   1.780  21.250  0.00  0.00    +0.210 HD
ENDBRANCH  26  32
BRANCH  29  34
ATOM     34  O   UNL     1       9.396   2.376  24.767  0.00  0.00    -0.365 OA
ATOM     35  H   UNL     1       9.796   1.983  23.975  0.00  0.00    +0.213 HD
ENDBRANCH  29  34
BRANCH  27  36
ATOM     36  C   UNL     1       7.209   5.410  22.552  0.00  0.00    +0.190 C 
BRANCH  36  37
ATOM     37  O   UNL     1       7.540   6.136  21.369  0.00  0.00    -0.392 OA
ATOM     38  H   UNL     1       8.383   6.590  21.544  0.00  0.00    +0.210 HD
ENDBRANCH  36  37
ENDBRANCH  27  36
ENDBRANCH  21  24
ENDBRANCH   7  20
TORSDOF 9
ENDMDL
