MODEL 1
REMARK VINA RESULT:      -7.5      0.000      0.000
REMARK  Name = 
REMARK  6 active torsions:
REMARK  status: ('A' for Active; 'I' for Inactive)
REMARK    1  A    between atoms: C_2  and  C_3
REMARK    2  A    between atoms: C_2  and  C_16
REMARK    3  A    between atoms: C_2  and  P_26
REMARK    4  A    between atoms: N_5  and  C_6
REMARK    5  A    between atoms: P_26  and  O_27
REMARK    6  A    between atoms: P_26  and  O_28
REMARK                            x       y       z     vdW  Elec       q    Type
REMARK                         _______ _______ _______ _____ _____    ______ ____
ROOT
ATOM      1  C   UNL     1       6.875  -3.436  23.515  0.00  0.00    +0.220 C 
ENDROOT
BRANCH   1   2
ATOM      2  C   UNL     1       6.110  -2.681  24.608  0.00  0.00    -0.009 A 
ATOM      3  C   UNL     1       5.969  -1.227  24.687  0.00  0.00    -0.005 A 
ATOM      4  C   UNL     1       6.401  -0.195  23.807  0.00  0.00    +0.029 A 
ATOM      5  C   UNL     1       6.146   1.150  24.106  0.00  0.00    +0.042 A 
ATOM      6  C   UNL     1       5.492   1.509  25.276  0.00  0.00    +0.021 A 
ATOM      7  C   UNL     1       5.057   0.524  26.158  0.00  0.00    +0.017 A 
ATOM      8 CL   UNL     1       6.644   2.375  23.002  0.00  0.00    -0.084 Cl
ATOM      9  C   UNL     1       5.298  -0.828  25.842  0.00  0.00    +0.020 A 
ATOM     10  S   UNL     1       4.798  -2.182  26.785  0.00  0.00    -0.096 S 
ATOM     11  C   UNL     1       5.472  -3.285  25.681  0.00  0.00    +0.051 A 
ENDBRANCH   1   2
BRANCH   1  12
ATOM     12  C   UNL     1       8.122  -4.093  24.079  0.00  0.00    +0.236 C 
ATOM     13  N   UNL     1       9.323  -3.417  24.005  0.00  0.00    -0.284 N 
ATOM     14  H   UNL     1       9.939  -3.669  24.769  0.00  0.00    +0.155 HD
ATOM     15  O   UNL     1       8.071  -5.175  24.672  0.00  0.00    -0.274 OA
BRANCH  13  16
ATOM     16  C   UNL     1       9.431  -2.128  23.469  0.00  0.00    +0.034 A 
ATOM     17  C   UNL     1       9.732  -1.058  24.317  0.00  0.00    +0.031 A 
ATOM     18  C   UNL     1       9.929   0.227  23.791  0.00  0.00    -0.016 A 
ATOM     19  C   UNL     1       9.845   0.418  22.392  0.00  0.00    -0.018 A 
ATOM     20  C   UNL     1      10.057   1.697  21.863  0.00  0.00    +0.008 A 
ATOM     21  C   UNL     1      10.339   2.778  22.699  0.00  0.00    +0.001 A 
ATOM     22  C   UNL     1      10.418   2.594  24.080  0.00  0.00    +0.001 A 
ATOM     23  C   UNL     1       9.548  -0.677  21.559  0.00  0.00    +0.010 A 
ATOM     24  C   UNL     1      10.218   1.322  24.616  0.00  0.00    +0.008 A 
ATOM     25  C   UNL     1       9.314  -1.940  22.096  0.00  0.00    +0.024 A 
ENDBRANCH  13  16
ENDBRANCH   1  12
BRANCH   1  26
ATOM     26  P   UNL     1       5.785  -4.698  22.760  0.00  0.00    +0.344 P 
ATOM     27  O   UNL     1       4.862  -5.766  22.123  0.00  0.00    -0.258 OA
BRANCH  26  28
ATOM     28  O   UNL     1       7.100  -5.190  21.894  0.00  0.00    -0.323 OA
ATOM     29  H   UNL     1       7.899  -4.726  22.216  0.00  0.00    +0.220 HD
ENDBRANCH  26  28
BRANCH  26  30
ATOM     30  O   UNL     1       5.234  -3.573  21.692  0.00  0.00    -0.323 OA
ATOM     31  H   UNL     1       5.877  -3.551  20.954  0.00  0.00    +0.220 HD
ENDBRANCH  26  30
ENDBRANCH   1  26
TORSDOF 6
ENDMDL
MODEL 2
REMARK VINA RESULT:      -7.0      0.673      1.474
REMARK  Name = 
REMARK  6 active torsions:
REMARK  status: ('A' for Active; 'I' for Inactive)
REMARK    1  A    between atoms: C_2  and  C_3
REMARK    2  A    between atoms: C_2  and  C_16
REMARK    3  A    between atoms: C_2  and  P_26
REMARK    4  A    between atoms: N_5  and  C_6
REMARK    5  A    between atoms: P_26  and  O_27
REMARK    6  A    between atoms: P_26  and  O_28
REMARK                            x       y       z     vdW  Elec       q    Type
REMARK                         _______ _______ _______ _____ _____    ______ ____
ROOT
ATOM      1  C   UNL     1       7.041  -3.561  23.660  0.00  0.00    +0.220 C 
ENDROOT
BRANCH   1   2
ATOM      2  C   UNL     1       6.272  -2.925  24.824  0.00  0.00    -0.009 A 
ATOM      3  C   UNL     1       5.954  -1.503  24.948  0.00  0.00    -0.005 A 
ATOM      4  C   UNL     1       6.185  -0.411  24.064  0.00  0.00    +0.029 A 
ATOM      5  C   UNL     1       5.787   0.886  24.412  0.00  0.00    +0.042 A 
ATOM      6  C   UNL     1       5.183   1.142  25.635  0.00  0.00    +0.021 A 
ATOM      7  C   UNL     1       4.943   0.096  26.523  0.00  0.00    +0.017 A 
ATOM      8 CL   UNL     1       6.042   2.181  23.306  0.00  0.00    -0.084 Cl
ATOM      9  C   UNL     1       5.328  -1.209  26.158  0.00  0.00    +0.020 A 
ATOM     10  S   UNL     1       5.074  -2.629  27.102  0.00  0.00    -0.096 S 
ATOM     11  C   UNL     1       5.798  -3.622  25.926  0.00  0.00    +0.051 A 
ENDBRANCH   1   2
BRANCH   1  12
ATOM     12  C   UNL     1       8.220  -4.373  24.166  0.00  0.00    +0.236 C 
ATOM     13  N   UNL     1       9.381  -3.714  24.514  0.00  0.00    -0.284 N 
ATOM     14  H   UNL     1       9.887  -4.210  25.239  0.00  0.00    +0.155 HD
ATOM     15  O   UNL     1       8.135  -5.591  24.350  0.00  0.00    -0.274 OA
BRANCH  13  16
ATOM     16  C   UNL     1       9.504  -2.320  24.460  0.00  0.00    +0.034 A 
ATOM     17  C   UNL     1       9.652  -1.694  23.219  0.00  0.00    +0.031 A 
ATOM     18  C   UNL     1       9.691  -0.295  23.134  0.00  0.00    -0.016 A 
ATOM     19  C   UNL     1       9.554   0.470  24.316  0.00  0.00    -0.018 A 
ATOM     20  C   UNL     1       9.577   1.868  24.231  0.00  0.00    +0.008 A 
ATOM     21  C   UNL     1       9.742   2.506  23.001  0.00  0.00    +0.001 A 
ATOM     22  C   UNL     1       9.883   1.755  21.835  0.00  0.00    +0.001 A 
ATOM     23  C   UNL     1       9.399  -0.184  25.552  0.00  0.00    +0.010 A 
ATOM     24  C   UNL     1       9.852   0.362  21.907  0.00  0.00    +0.008 A 
ATOM     25  C   UNL     1       9.402  -1.574  25.629  0.00  0.00    +0.024 A 
ENDBRANCH  13  16
ENDBRANCH   1  12
BRANCH   1  26
ATOM     26  P   UNL     1       5.915  -4.626  22.686  0.00  0.00    +0.344 P 
ATOM     27  O   UNL     1       4.962  -5.527  21.863  0.00  0.00    -0.258 OA
BRANCH  26  28
ATOM     28  O   UNL     1       7.212  -4.970  21.726  0.00  0.00    -0.323 OA
ATOM     29  H   UNL     1       7.686  -4.143  21.506  0.00  0.00    +0.220 HD
ENDBRANCH  26  28
BRANCH  26  30
ATOM     30  O   UNL     1       5.385  -3.302  21.865  0.00  0.00    -0.323 OA
ATOM     31  H   UNL     1       6.125  -2.660  21.863  0.00  0.00    +0.220 HD
ENDBRANCH  26  30
ENDBRANCH   1  26
TORSDOF 6
ENDMDL
MODEL 3
REMARK VINA RESULT:      -6.7      1.159      1.273
REMARK  Name = 
REMARK  6 active torsions:
REMARK  status: ('A' for Active; 'I' for Inactive)
REMARK    1  A    between atoms: C_2  and  C_3
REMARK    2  A    between atoms: C_2  and  C_16
REMARK    3  A    between atoms: C_2  and  P_26
REMARK    4  A    between atoms: N_5  and  C_6
REMARK    5  A    between atoms: P_26  and  O_27
REMARK    6  A    between atoms: P_26  and  O_28
REMARK                            x       y       z     vdW  Elec       q    Type
REMARK                         _______ _______ _______ _____ _____    ______ ____
ROOT
ATOM      1  C   UNL     1       6.610  -3.573  23.957  0.00  0.00    +0.220 C 
ENDROOT
BRANCH   1   2
ATOM      2  C   UNL     1       5.691  -3.180  25.120  0.00  0.00    -0.009 A 
ATOM      3  C   UNL     1       5.760  -1.921  25.861  0.00  0.00    -0.005 A 
ATOM      4  C   UNL     1       6.580  -0.771  25.680  0.00  0.00    +0.029 A 
ATOM      5  C   UNL     1       6.463   0.331  26.537  0.00  0.00    +0.042 A 
ATOM      6  C   UNL     1       5.565   0.319  27.595  0.00  0.00    +0.021 A 
ATOM      7  C   UNL     1       4.748  -0.791  27.800  0.00  0.00    +0.017 A 
ATOM      8 CL   UNL     1       7.439   1.724  26.270  0.00  0.00    -0.084 Cl
ATOM      9  C   UNL     1       4.857  -1.887  26.922  0.00  0.00    +0.020 A 
ATOM     10  S   UNL     1       3.904  -3.323  26.990  0.00  0.00    -0.096 S 
ATOM     11  C   UNL     1       4.687  -3.987  25.635  0.00  0.00    +0.051 A 
ENDBRANCH   1   2
BRANCH   1  12
ATOM     12  C   UNL     1       7.875  -4.242  24.466  0.00  0.00    +0.236 C 
ATOM     13  N   UNL     1       9.085  -3.607  24.279  0.00  0.00    -0.284 N 
ATOM     14  H   UNL     1       9.745  -3.844  25.011  0.00  0.00    +0.155 HD
ATOM     15  O   UNL     1       7.834  -5.294  25.110  0.00  0.00    -0.274 OA
BRANCH  13  16
ATOM     16  C   UNL     1       9.192  -2.347  23.677  0.00  0.00    +0.034 A 
ATOM     17  C   UNL     1       9.760  -1.291  24.398  0.00  0.00    +0.031 A 
ATOM     18  C   UNL     1       9.956  -0.045  23.788  0.00  0.00    -0.016 A 
ATOM     19  C   UNL     1       9.594   0.121  22.430  0.00  0.00    -0.018 A 
ATOM     20  C   UNL     1       9.803   1.362  21.814  0.00  0.00    +0.008 A 
ATOM     21  C   UNL     1      10.351   2.429  22.526  0.00  0.00    +0.001 A 
ATOM     22  C   UNL     1      10.704   2.270  23.866  0.00  0.00    +0.001 A 
ATOM     23  C   UNL     1       9.030  -0.959  21.725  0.00  0.00    +0.010 A 
ATOM     24  C   UNL     1      10.509   1.037  24.487  0.00  0.00    +0.008 A 
ATOM     25  C   UNL     1       8.804  -2.181  22.353  0.00  0.00    +0.024 A 
ENDBRANCH  13  16
ENDBRANCH   1  12
BRANCH   1  26
ATOM     26  P   UNL     1       5.718  -4.694  22.819  0.00  0.00    +0.344 P 
ATOM     27  O   UNL     1       4.963  -5.643  21.856  0.00  0.00    -0.258 OA
BRANCH  26  28
ATOM     28  O   UNL     1       7.196  -5.283  22.380  0.00  0.00    -0.323 OA
ATOM     29  H   UNL     1       7.592  -4.703  21.699  0.00  0.00    +0.220 HD
ENDBRANCH  26  28
BRANCH  26  30
ATOM     30  O   UNL     1       5.631  -3.484  21.706  0.00  0.00    -0.323 OA
ATOM     31  H   UNL     1       6.133  -2.728  22.076  0.00  0.00    +0.220 HD
ENDBRANCH  26  30
ENDBRANCH   1  26
TORSDOF 6
ENDMDL
MODEL 4
REMARK VINA RESULT:      -6.5      1.523      2.509
REMARK  Name = 
REMARK  6 active torsions:
REMARK  status: ('A' for Active; 'I' for Inactive)
REMARK    1  A    between atoms: C_2  and  C_3
REMARK    2  A    between atoms: C_2  and  C_16
REMARK    3  A    between atoms: C_2  and  P_26
REMARK    4  A    between atoms: N_5  and  C_6
REMARK    5  A    between atoms: P_26  and  O_27
REMARK    6  A    between atoms: P_26  and  O_28
REMARK                            x       y       z     vdW  Elec       q    Type
REMARK                         _______ _______ _______ _____ _____    ______ ____
ROOT
ATOM      1  C   UNL     1       5.677  -4.279  24.683  0.00  0.00    +0.220 C 
ENDROOT
BRANCH   1   2
ATOM      2  C   UNL     1       4.985  -3.258  25.593  0.00  0.00    -0.009 A 
ATOM      3  C   UNL     1       5.134  -1.806  25.498  0.00  0.00    -0.005 A 
ATOM      4  C   UNL     1       5.844  -0.997  24.566  0.00  0.00    +0.029 A 
ATOM      5  C   UNL     1       5.841   0.399  24.686  0.00  0.00    +0.042 A 
ATOM      6  C   UNL     1       5.170   1.024  25.728  0.00  0.00    +0.021 A 
ATOM      7  C   UNL     1       4.466   0.261  26.657  0.00  0.00    +0.017 A 
ATOM      8 CL   UNL     1       6.674   1.355  23.520  0.00  0.00    -0.084 Cl
ATOM      9  C   UNL     1       4.456  -1.141  26.518  0.00  0.00    +0.020 A 
ATOM     10  S   UNL     1       3.610  -2.242  27.540  0.00  0.00    -0.096 S 
ATOM     11  C   UNL     1       4.144  -3.587  26.646  0.00  0.00    +0.051 A 
ENDBRANCH   1   2
BRANCH   1  12
ATOM     12  C   UNL     1       6.446  -5.303  25.499  0.00  0.00    +0.236 C 
ATOM     13  N   UNL     1       7.718  -4.990  25.932  0.00  0.00    -0.284 N 
ATOM     14  H   UNL     1       7.942  -5.464  26.799  0.00  0.00    +0.155 HD
ATOM     15  O   UNL     1       5.930  -6.368  25.852  0.00  0.00    -0.274 OA
BRANCH  13  16
ATOM     16  C   UNL     1       8.315  -3.748  25.686  0.00  0.00    +0.034 A 
ATOM     17  C   UNL     1       8.780  -3.455  24.400  0.00  0.00    +0.031 A 
ATOM     18  C   UNL     1       9.303  -2.187  24.110  0.00  0.00    -0.016 A 
ATOM     19  C   UNL     1       9.331  -1.205  25.127  0.00  0.00    -0.018 A 
ATOM     20  C   UNL     1       9.839   0.067  24.836  0.00  0.00    +0.008 A 
ATOM     21  C   UNL     1      10.323   0.367  23.562  0.00  0.00    +0.001 A 
ATOM     22  C   UNL     1      10.302  -0.600  22.558  0.00  0.00    +0.001 A 
ATOM     23  C   UNL     1       8.851  -1.523  26.412  0.00  0.00    +0.010 A 
ATOM     24  C   UNL     1       9.789  -1.867  22.835  0.00  0.00    +0.008 A 
ATOM     25  C   UNL     1       8.371  -2.798  26.699  0.00  0.00    +0.024 A 
ENDBRANCH  13  16
ENDBRANCH   1  12
BRANCH   1  26
ATOM     26  P   UNL     1       4.430  -5.116  23.637  0.00  0.00    +0.344 P 
ATOM     27  O   UNL     1       3.374  -5.824  22.752  0.00  0.00    -0.258 OA
BRANCH  26  28
ATOM     28  O   UNL     1       5.641  -6.126  23.152  0.00  0.00    -0.323 OA
ATOM     29  H   UNL     1       5.277  -6.817  22.564  0.00  0.00    +0.220 HD
ENDBRANCH  26  28
BRANCH  26  30
ATOM     30  O   UNL     1       4.637  -3.963  22.481  0.00  0.00    -0.323 OA
ATOM     31  H   UNL     1       5.342  -4.289  21.884  0.00  0.00    +0.220 HD
ENDBRANCH  26  30
ENDBRANCH   1  26
TORSDOF 6
ENDMDL
MODEL 5
REMARK VINA RESULT:      -6.5      2.788      4.527
REMARK  Name = 
REMARK  6 active torsions:
REMARK  status: ('A' for Active; 'I' for Inactive)
REMARK    1  A    between atoms: C_2  and  C_3
REMARK    2  A    between atoms: C_2  and  C_16
REMARK    3  A    between atoms: C_2  and  P_26
REMARK    4  A    between atoms: N_5  and  C_6
REMARK    5  A    between atoms: P_26  and  O_27
REMARK    6  A    between atoms: P_26  and  O_28
REMARK                            x       y       z     vdW  Elec       q    Type
REMARK                         _______ _______ _______ _____ _____    ______ ____
ROOT
ATOM      1  C   UNL     1       6.698  -3.096  25.990  0.00  0.00    +0.220 C 
ENDROOT
BRANCH   1   2
ATOM      2  C   UNL     1       7.147  -3.055  24.525  0.00  0.00    -0.009 A 
ATOM      3  C   UNL     1       8.202  -2.196  23.990  0.00  0.00    -0.005 A 
ATOM      4  C   UNL     1       9.086  -1.285  24.636  0.00  0.00    +0.029 A 
ATOM      5  C   UNL     1      10.028  -0.559  23.896  0.00  0.00    +0.042 A 
ATOM      6  C   UNL     1      10.105  -0.688  22.516  0.00  0.00    +0.021 A 
ATOM      7  C   UNL     1       9.254  -1.570  21.854  0.00  0.00    +0.017 A 
ATOM      8 CL   UNL     1      11.112   0.504  24.709  0.00  0.00    -0.084 Cl
ATOM      9  C   UNL     1       8.323  -2.313  22.606  0.00  0.00    +0.020 A 
ATOM     10  S   UNL     1       7.224  -3.479  21.970  0.00  0.00    -0.096 S 
ATOM     11  C   UNL     1       6.587  -3.817  23.510  0.00  0.00    +0.051 A 
ENDBRANCH   1   2
BRANCH   1  12
ATOM     12  C   UNL     1       5.223  -2.757  26.117  0.00  0.00    +0.236 C 
ATOM     13  N   UNL     1       4.836  -1.434  26.051  0.00  0.00    -0.284 N 
ATOM     14  H   UNL     1       3.900  -1.340  25.675  0.00  0.00    +0.155 HD
ATOM     15  O   UNL     1       4.362  -3.638  26.194  0.00  0.00    -0.274 OA
BRANCH  13  16
ATOM     16  C   UNL     1       5.745  -0.391  25.828  0.00  0.00    +0.034 A 
ATOM     17  C   UNL     1       5.869   0.143  24.542  0.00  0.00    +0.031 A 
ATOM     18  C   UNL     1       6.708   1.242  24.312  0.00  0.00    -0.016 A 
ATOM     19  C   UNL     1       7.405   1.815  25.401  0.00  0.00    -0.018 A 
ATOM     20  C   UNL     1       8.232   2.924  25.177  0.00  0.00    +0.008 A 
ATOM     21  C   UNL     1       8.380   3.456  23.896  0.00  0.00    +0.001 A 
ATOM     22  C   UNL     1       7.698   2.890  22.819  0.00  0.00    +0.001 A 
ATOM     23  C   UNL     1       7.257   1.262  26.687  0.00  0.00    +0.010 A 
ATOM     24  C   UNL     1       6.864   1.793  23.033  0.00  0.00    +0.008 A 
ATOM     25  C   UNL     1       6.453   0.146  26.896  0.00  0.00    +0.024 A 
ENDBRANCH  13  16
ENDBRANCH   1  12
BRANCH   1  26
ATOM     26  P   UNL     1       7.024  -4.756  26.689  0.00  0.00    +0.344 P 
ATOM     27  O   UNL     1       7.301  -6.161  27.279  0.00  0.00    -0.258 OA
BRANCH  26  28
ATOM     28  O   UNL     1       6.326  -4.211  28.081  0.00  0.00    -0.323 OA
ATOM     29  H   UNL     1       5.717  -3.474  27.877  0.00  0.00    +0.220 HD
ENDBRANCH  26  28
BRANCH  26  30
ATOM     30  O   UNL     1       8.569  -4.300  27.031  0.00  0.00    -0.323 OA
ATOM     31  H   UNL     1       8.510  -3.434  27.484  0.00  0.00    +0.220 HD
ENDBRANCH  26  30
ENDBRANCH   1  26
TORSDOF 6
ENDMDL
MODEL 6
REMARK VINA RESULT:      -6.3      3.982      6.296
REMARK  Name = 
REMARK  6 active torsions:
REMARK  status: ('A' for Active; 'I' for Inactive)
REMARK    1  A    between atoms: C_2  and  C_3
REMARK    2  A    between atoms: C_2  and  C_16
REMARK    3  A    between atoms: C_2  and  P_26
REMARK    4  A    between atoms: N_5  and  C_6
REMARK    5  A    between atoms: P_26  and  O_27
REMARK    6  A    between atoms: P_26  and  O_28
REMARK                            x       y       z     vdW  Elec       q    Type
REMARK                         _______ _______ _______ _____ _____    ______ ____
ROOT
ATOM      1  C   UNL     1       7.302   1.175  24.084  0.00  0.00    +0.220 C 
ENDROOT
BRANCH   1   2
ATOM      2  C   UNL     1       7.871  -0.005  23.287  0.00  0.00    -0.009 A 
ATOM      3  C   UNL     1       7.247  -1.323  23.170  0.00  0.00    -0.005 A 
ATOM      4  C   UNL     1       6.005  -1.818  23.660  0.00  0.00    +0.029 A 
ATOM      5  C   UNL     1       5.619  -3.143  23.419  0.00  0.00    +0.042 A 
ATOM      6  C   UNL     1       6.448  -4.011  22.722  0.00  0.00    +0.021 A 
ATOM      7  C   UNL     1       7.670  -3.558  22.230  0.00  0.00    +0.017 A 
ATOM      8 CL   UNL     1       4.093  -3.702  23.987  0.00  0.00    -0.084 Cl
ATOM      9  C   UNL     1       8.042  -2.219  22.458  0.00  0.00    +0.020 A 
ATOM     10  S   UNL     1       9.489  -1.471  21.892  0.00  0.00    -0.096 S 
ATOM     11  C   UNL     1       9.071   0.022  22.592  0.00  0.00    +0.051 A 
ENDBRANCH   1   2
BRANCH   1  12
ATOM     12  C   UNL     1       8.282   1.635  25.148  0.00  0.00    +0.236 C 
ATOM     13  N   UNL     1       8.443   0.867  26.282  0.00  0.00    -0.284 N 
ATOM     14  H   UNL     1       9.377   0.960  26.665  0.00  0.00    +0.155 HD
ATOM     15  O   UNL     1       8.994   2.631  24.984  0.00  0.00    -0.274 OA
BRANCH  13  16
ATOM     16  C   UNL     1       7.771  -0.347  26.474  0.00  0.00    +0.034 A 
ATOM     17  C   UNL     1       8.465  -1.548  26.303  0.00  0.00    +0.031 A 
ATOM     18  C   UNL     1       7.837  -2.772  26.572  0.00  0.00    -0.016 A 
ATOM     19  C   UNL     1       6.503  -2.771  27.042  0.00  0.00    -0.018 A 
ATOM     20  C   UNL     1       5.878  -3.992  27.327  0.00  0.00    +0.008 A 
ATOM     21  C   UNL     1       6.553  -5.199  27.142  0.00  0.00    +0.001 A 
ATOM     22  C   UNL     1       7.867  -5.203  26.675  0.00  0.00    +0.001 A 
ATOM     23  C   UNL     1       5.828  -1.548  27.212  0.00  0.00    +0.010 A 
ATOM     24  C   UNL     1       8.502  -3.993  26.398  0.00  0.00    +0.008 A 
ATOM     25  C   UNL     1       6.448  -0.341  26.903  0.00  0.00    +0.024 A 
ENDBRANCH  13  16
ENDBRANCH   1  12
BRANCH   1  26
ATOM     26  P   UNL     1       6.913   2.555  22.947  0.00  0.00    +0.344 P 
ATOM     27  O   UNL     1       6.584   3.722  21.984  0.00  0.00    -0.258 OA
BRANCH  26  28
ATOM     28  O   UNL     1       6.413   3.394  24.276  0.00  0.00    -0.323 OA
ATOM     29  H   UNL     1       5.671   2.921  24.704  0.00  0.00    +0.220 HD
ENDBRANCH  26  28
BRANCH  26  30
ATOM     30  O   UNL     1       5.472   1.844  22.588  0.00  0.00    -0.323 OA
ATOM     31  H   UNL     1       5.398   1.057  23.167  0.00  0.00    +0.220 HD
ENDBRANCH  26  30
ENDBRANCH   1  26
TORSDOF 6
ENDMDL
MODEL 7
REMARK VINA RESULT:      -6.2      2.283      3.142
REMARK  Name = 
REMARK  6 active torsions:
REMARK  status: ('A' for Active; 'I' for Inactive)
REMARK    1  A    between atoms: C_2  and  C_3
REMARK    2  A    between atoms: C_2  and  C_16
REMARK    3  A    between atoms: C_2  and  P_26
REMARK    4  A    between atoms: N_5  and  C_6
REMARK    5  A    between atoms: P_26  and  O_27
REMARK    6  A    between atoms: P_26  and  O_28
REMARK                            x       y       z     vdW  Elec       q    Type
REMARK                         _______ _______ _______ _____ _____    ______ ____
ROOT
ATOM      1  C   UNL     1       6.866  -3.392  23.691  0.00  0.00    +0.220 C 
ENDROOT
BRANCH   1   2
ATOM      2  C   UNL     1       6.178  -2.724  24.887  0.00  0.00    -0.009 A 
ATOM      3  C   UNL     1       5.606  -3.430  26.034  0.00  0.00    -0.005 A 
ATOM      4  C   UNL     1       5.593  -4.813  26.371  0.00  0.00    +0.029 A 
ATOM      5  C   UNL     1       4.967  -5.256  27.543  0.00  0.00    +0.042 A 
ATOM      6  C   UNL     1       4.323  -4.364  28.388  0.00  0.00    +0.021 A 
ATOM      7  C   UNL     1       4.317  -3.004  28.088  0.00  0.00    +0.017 A 
ATOM      8 CL   UNL     1       5.002  -6.930  27.946  0.00  0.00    -0.084 Cl
ATOM      9  C   UNL     1       4.967  -2.562  26.918  0.00  0.00    +0.020 A 
ATOM     10  S   UNL     1       5.101  -0.922  26.406  0.00  0.00    -0.096 S 
ATOM     11  C   UNL     1       5.988  -1.356  25.021  0.00  0.00    +0.051 A 
ENDBRANCH   1   2
BRANCH   1  12
ATOM     12  C   UNL     1       8.145  -4.089  24.120  0.00  0.00    +0.236 C 
ATOM     13  N   UNL     1       9.349  -3.439  23.941  0.00  0.00    -0.284 N 
ATOM     14  H   UNL     1      10.030  -3.720  24.637  0.00  0.00    +0.155 HD
ATOM     15  O   UNL     1       8.125  -5.181  24.695  0.00  0.00    -0.274 OA
BRANCH  13  16
ATOM     16  C   UNL     1       9.437  -2.142  23.420  0.00  0.00    +0.034 A 
ATOM     17  C   UNL     1       9.776  -1.085  24.270  0.00  0.00    +0.031 A 
ATOM     18  C   UNL     1       9.954   0.207  23.755  0.00  0.00    -0.016 A 
ATOM     19  C   UNL     1       9.808   0.419  22.364  0.00  0.00    -0.018 A 
ATOM     20  C   UNL     1      10.000   1.706  21.845  0.00  0.00    +0.008 A 
ATOM     21  C   UNL     1      10.321   2.773  22.685  0.00  0.00    +0.001 A 
ATOM     22  C   UNL     1      10.460   2.568  24.057  0.00  0.00    +0.001 A 
ATOM     23  C   UNL     1       9.473  -0.663  21.529  0.00  0.00    +0.010 A 
ATOM     24  C   UNL     1      10.281   1.289  24.583  0.00  0.00    +0.008 A 
ATOM     25  C   UNL     1       9.260  -1.933  22.057  0.00  0.00    +0.024 A 
ENDBRANCH  13  16
ENDBRANCH   1  12
BRANCH   1  26
ATOM     26  P   UNL     1       5.724  -4.594  22.917  0.00  0.00    +0.344 P 
ATOM     27  O   UNL     1       4.756  -5.612  22.262  0.00  0.00    -0.258 OA
BRANCH  26  28
ATOM     28  O   UNL     1       7.025  -5.152  22.069  0.00  0.00    -0.323 OA
ATOM     29  H   UNL     1       6.952  -4.874  21.134  0.00  0.00    +0.220 HD
ENDBRANCH  26  28
BRANCH  26  30
ATOM     30  O   UNL     1       5.248  -3.440  21.844  0.00  0.00    -0.323 OA
ATOM     31  H   UNL     1       5.885  -2.702  21.928  0.00  0.00    +0.220 HD
ENDBRANCH  26  30
ENDBRANCH   1  26
TORSDOF 6
ENDMDL
MODEL 8
REMARK VINA RESULT:      -6.2      2.137      2.638
REMARK  Name = 
REMARK  6 active torsions:
REMARK  status: ('A' for Active; 'I' for Inactive)
REMARK    1  A    between atoms: C_2  and  C_3
REMARK    2  A    between atoms: C_2  and  C_16
REMARK    3  A    between atoms: C_2  and  P_26
REMARK    4  A    between atoms: N_5  and  C_6
REMARK    5  A    between atoms: P_26  and  O_27
REMARK    6  A    between atoms: P_26  and  O_28
REMARK                            x       y       z     vdW  Elec       q    Type
REMARK                         _______ _______ _______ _____ _____    ______ ____
ROOT
ATOM      1  C   UNL     1       8.042  -1.839  23.791  0.00  0.00    +0.220 C 
ENDROOT
BRANCH   1   2
ATOM      2  C   UNL     1       7.790  -1.078  25.097  0.00  0.00    -0.009 A 
ATOM      3  C   UNL     1       6.939   0.105  25.234  0.00  0.00    -0.005 A 
ATOM      4  C   UNL     1       6.116   0.780  24.288  0.00  0.00    +0.029 A 
ATOM      5  C   UNL     1       5.385   1.915  24.661  0.00  0.00    +0.042 A 
ATOM      6  C   UNL     1       5.464   2.422  25.951  0.00  0.00    +0.021 A 
ATOM      7  C   UNL     1       6.260   1.785  26.899  0.00  0.00    +0.017 A 
ATOM      8 CL   UNL     1       4.366   2.688  23.508  0.00  0.00    -0.084 Cl
ATOM      9  C   UNL     1       6.977   0.632  26.523  0.00  0.00    +0.020 A 
ATOM     10  S   UNL     1       7.974  -0.312  27.565  0.00  0.00    -0.096 S 
ATOM     11  C   UNL     1       8.361  -1.402  26.319  0.00  0.00    +0.051 A 
ENDBRANCH   1   2
BRANCH   1  12
ATOM     12  C   UNL     1       9.523  -1.876  23.460  0.00  0.00    +0.236 C 
ATOM     13  N   UNL     1      10.124  -0.733  22.974  0.00  0.00    -0.284 N 
ATOM     14  H   UNL     1      11.104  -0.692  23.229  0.00  0.00    +0.155 HD
ATOM     15  O   UNL     1      10.213  -2.873  23.692  0.00  0.00    -0.274 OA
BRANCH  13  16
ATOM     16  C   UNL     1       9.434   0.475  22.814  0.00  0.00    +0.034 A 
ATOM     17  C   UNL     1       9.591   1.484  23.769  0.00  0.00    +0.031 A 
ATOM     18  C   UNL     1       8.978   2.731  23.587  0.00  0.00    -0.016 A 
ATOM     19  C   UNL     1       8.221   2.960  22.414  0.00  0.00    -0.018 A 
ATOM     20  C   UNL     1       7.620   4.211  22.222  0.00  0.00    +0.008 A 
ATOM     21  C   UNL     1       7.753   5.220  23.176  0.00  0.00    +0.001 A 
ATOM     22  C   UNL     1       8.494   4.996  24.336  0.00  0.00    +0.001 A 
ATOM     23  C   UNL     1       8.084   1.930  21.465  0.00  0.00    +0.010 A 
ATOM     24  C   UNL     1       9.105   3.757  24.532  0.00  0.00    +0.008 A 
ATOM     25  C   UNL     1       8.664   0.683  21.676  0.00  0.00    +0.024 A 
ENDBRANCH  13  16
ENDBRANCH   1  12
BRANCH   1  26
ATOM     26  P   UNL     1       7.387  -3.542  23.935  0.00  0.00    +0.344 P 
ATOM     27  O   UNL     1       6.833  -4.984  24.058  0.00  0.00    -0.258 OA
BRANCH  26  28
ATOM     28  O   UNL     1       7.701  -3.706  22.324  0.00  0.00    -0.323 OA
ATOM     29  H   UNL     1       7.786  -2.822  21.914  0.00  0.00    +0.220 HD
ENDBRANCH  26  28
BRANCH  26  30
ATOM     30  O   UNL     1       5.855  -2.957  23.796  0.00  0.00    -0.323 OA
ATOM     31  H   UNL     1       5.936  -2.032  23.484  0.00  0.00    +0.220 HD
ENDBRANCH  26  30
ENDBRANCH   1  26
TORSDOF 6
ENDMDL
MODEL 9
REMARK VINA RESULT:      -6.1      4.183      6.508
REMARK  Name = 
REMARK  6 active torsions:
REMARK  status: ('A' for Active; 'I' for Inactive)
REMARK    1  A    between atoms: C_2  and  C_3
REMARK    2  A    between atoms: C_2  and  C_16
REMARK    3  A    between atoms: C_2  and  P_26
REMARK    4  A    between atoms: N_5  and  C_6
REMARK    5  A    between atoms: P_26  and  O_27
REMARK    6  A    between atoms: P_26  and  O_28
REMARK                            x       y       z     vdW  Elec       q    Type
REMARK                         _______ _______ _______ _____ _____    ______ ____
ROOT
ATOM      1  C   UNL     1       6.659   1.802  25.275  0.00  0.00    +0.220 C 
ENDROOT
BRANCH   1   2
ATOM      2  C   UNL     1       7.849   1.695  24.315  0.00  0.00    -0.009 A 
ATOM      3  C   UNL     1       8.166   0.530  23.489  0.00  0.00    -0.005 A 
ATOM      4  C   UNL     1       7.475  -0.701  23.303  0.00  0.00    +0.029 A 
ATOM      5  C   UNL     1       7.987  -1.685  22.447  0.00  0.00    +0.042 A 
ATOM      6  C   UNL     1       9.190  -1.494  21.782  0.00  0.00    +0.021 A 
ATOM      7  C   UNL     1       9.891  -0.301  21.942  0.00  0.00    +0.017 A 
ATOM      8 CL   UNL     1       7.110  -3.147  22.210  0.00  0.00    -0.084 Cl
ATOM      9  C   UNL     1       9.359   0.692  22.788  0.00  0.00    +0.020 A 
ATOM     10  S   UNL     1      10.058   2.242  23.075  0.00  0.00    -0.096 S 
ATOM     11  C   UNL     1       8.798   2.690  24.126  0.00  0.00    +0.051 A 
ENDBRANCH   1   2
BRANCH   1  12
ATOM     12  C   UNL     1       7.121   2.150  26.678  0.00  0.00    +0.236 C 
ATOM     13  N   UNL     1       7.484   1.129  27.532  0.00  0.00    -0.284 N 
ATOM     14  H   UNL     1       8.185   1.433  28.198  0.00  0.00    +0.155 HD
ATOM     15  O   UNL     1       7.257   3.322  27.042  0.00  0.00    -0.274 OA
BRANCH  13  16
ATOM     16  C   UNL     1       7.486  -0.217  27.143  0.00  0.00    +0.034 A 
ATOM     17  C   UNL     1       6.267  -0.878  26.964  0.00  0.00    +0.031 A 
ATOM     18  C   UNL     1       6.242  -2.198  26.493  0.00  0.00    -0.016 A 
ATOM     19  C   UNL     1       7.464  -2.839  26.179  0.00  0.00    -0.018 A 
ATOM     20  C   UNL     1       7.441  -4.153  25.693  0.00  0.00    +0.008 A 
ATOM     21  C   UNL     1       6.233  -4.832  25.527  0.00  0.00    +0.001 A 
ATOM     22  C   UNL     1       5.027  -4.204  25.841  0.00  0.00    +0.001 A 
ATOM     23  C   UNL     1       8.677  -2.149  26.361  0.00  0.00    +0.010 A 
ATOM     24  C   UNL     1       5.038  -2.893  26.316  0.00  0.00    +0.008 A 
ATOM     25  C   UNL     1       8.691  -0.853  26.868  0.00  0.00    +0.024 A 
ENDBRANCH  13  16
ENDBRANCH   1  12
BRANCH   1  26
ATOM     26  P   UNL     1       5.488   3.069  24.665  0.00  0.00    +0.344 P 
ATOM     27  O   UNL     1       4.497   4.142  24.149  0.00  0.00    -0.258 OA
BRANCH  26  28
ATOM     28  O   UNL     1       4.601   2.780  26.026  0.00  0.00    -0.323 OA
ATOM     29  H   UNL     1       5.124   2.236  26.649  0.00  0.00    +0.220 HD
ENDBRANCH  26  28
BRANCH  26  30
ATOM     30  O   UNL     1       4.777   1.939  23.702  0.00  0.00    -0.323 OA
ATOM     31  H   UNL     1       5.495   1.357  23.378  0.00  0.00    +0.220 HD
ENDBRANCH  26  30
ENDBRANCH   1  26
TORSDOF 6
ENDMDL
