MODEL 1
REMARK VINA RESULT:      -4.5      0.000      0.000
REMARK  Name = 
REMARK  8 active torsions:
REMARK  status: ('A' for Active; 'I' for Inactive)
REMARK    1  A    between atoms: C_1  and  C_2
REMARK    2  A    between atoms: C_2  and  C_4
REMARK    3  A    between atoms: C_2  and  C_13
REMARK    4  A    between atoms: C_4  and  CA_5
REMARK    5  A    between atoms: CA_5  and  N_7
REMARK    6  A    between atoms: CA_5  and  C_8
REMARK    7  A    between atoms: C_8  and  O_9
REMARK    8  A    between atoms: C_13  and  O_14
REMARK                            x       y       z     vdW  Elec       q    Type
REMARK                         _______ _______ _______ _____ _____    ______ ____
ROOT
ATOM      1  CA  UNL     1       9.456  -4.451  25.539  0.00  0.00    +0.221 C 
ENDROOT
BRANCH   1   2
ATOM      2  N   UNL     1       9.938  -5.832  25.231  0.00  0.00    -0.314 NA
ATOM      3  H1  UNL     1       9.500  -6.143  24.350  0.00  0.00    +0.119 HD
ATOM      4  H2  UNL     1      10.927  -5.761  24.935  0.00  0.00    +0.119 HD
ENDBRANCH   1   2
BRANCH   1   5
ATOM      5  C   UNL     1       8.285  -4.602  26.533  0.00  0.00    +0.465 C 
ATOM      6  OXT UNL     1       7.478  -3.756  26.858  0.00  0.00    -0.194 OA
BRANCH   5   7
ATOM      7  O   UNL     1       8.175  -5.876  26.978  0.00  0.00    -0.568 OA
ATOM      8  H1  UNL     1       8.793  -6.445  26.441  0.00  0.00    +0.558 HD
ATOM      9  H2  UNL     1       7.225  -6.107  27.090  0.00  0.00    +0.558 HD
ENDBRANCH   5   7
ENDBRANCH   1   5
BRANCH   1  10
ATOM     10  C   UNL     1       8.943  -3.718  24.290  0.00  0.00    +0.050 C 
BRANCH  10  12
ATOM     11  C   UNL     1       9.286  -1.263  24.878  0.00  0.00    +0.019 C 
ATOM     12  C   UNL     1       9.646  -2.391  23.914  0.00  0.00    +0.097 C 
BRANCH  12  13
ATOM     13  C   UNL     1       9.257  -2.016  22.489  0.00  0.00    +0.308 C 
ATOM     14  O   UNL     1       8.120  -2.102  22.052  0.00  0.00    -0.251 OA
BRANCH  13  15
ATOM     15  O   UNL     1      10.294  -1.634  21.717  0.00  0.00    -0.480 OA
ATOM     16  H   UNL     1      10.983  -1.092  22.144  0.00  0.00    +0.295 HD
ENDBRANCH  13  15
ENDBRANCH  12  13
ENDBRANCH  10  12
ENDBRANCH   1  10
TORSDOF 7
ENDMDL
MODEL 2
REMARK VINA RESULT:      -4.5      1.420      1.807
REMARK  Name = 
REMARK  8 active torsions:
REMARK  status: ('A' for Active; 'I' for Inactive)
REMARK    1  A    between atoms: C_1  and  C_2
REMARK    2  A    between atoms: C_2  and  C_4
REMARK    3  A    between atoms: C_2  and  C_13
REMARK    4  A    between atoms: C_4  and  CA_5
REMARK    5  A    between atoms: CA_5  and  N_7
REMARK    6  A    between atoms: CA_5  and  C_8
REMARK    7  A    between atoms: C_8  and  O_9
REMARK    8  A    between atoms: C_13  and  O_14
REMARK                            x       y       z     vdW  Elec       q    Type
REMARK                         _______ _______ _______ _____ _____    ______ ____
ROOT
ATOM      1  CA  UNL     1       8.999  -4.621  26.412  0.00  0.00    +0.221 C 
ENDROOT
BRANCH   1   2
ATOM      2  N   UNL     1       9.896  -5.542  25.648  0.00  0.00    -0.314 NA
ATOM      3  H1  UNL     1      10.238  -6.274  26.289  0.00  0.00    +0.119 HD
ATOM      4  H2  UNL     1       9.300  -6.108  25.018  0.00  0.00    +0.119 HD
ENDBRANCH   1   2
BRANCH   1   5
ATOM      5  C   UNL     1       7.672  -5.378  26.632  0.00  0.00    +0.465 C 
ATOM      6  OXT UNL     1       6.748  -5.492  25.853  0.00  0.00    -0.194 OA
BRANCH   5   7
ATOM      7  O   UNL     1       7.663  -6.025  27.822  0.00  0.00    -0.568 OA
ATOM      8  H1  UNL     1       8.163  -6.880  27.712  0.00  0.00    +0.558 HD
ATOM      9  H2  UNL     1       6.756  -6.001  28.204  0.00  0.00    +0.558 HD
ENDBRANCH   5   7
ENDBRANCH   1   5
BRANCH   1  10
ATOM     10  C   UNL     1       8.699  -3.325  25.644  0.00  0.00    +0.050 C 
BRANCH  10  12
ATOM     11  C   UNL     1       9.830  -1.825  23.923  0.00  0.00    +0.019 C 
ATOM     12  C   UNL     1       9.259  -3.213  24.205  0.00  0.00    +0.097 C 
BRANCH  12  13
ATOM     13  C   UNL     1       8.144  -3.540  23.218  0.00  0.00    +0.308 C 
ATOM     14  O   UNL     1       7.563  -2.699  22.549  0.00  0.00    -0.251 OA
BRANCH  13  15
ATOM     15  O   UNL     1       7.804  -4.844  23.183  0.00  0.00    -0.480 OA
ATOM     16  H   UNL     1       6.961  -5.089  23.605  0.00  0.00    +0.295 HD
ENDBRANCH  13  15
ENDBRANCH  12  13
ENDBRANCH  10  12
ENDBRANCH   1  10
TORSDOF 7
ENDMDL
MODEL 3
REMARK VINA RESULT:      -4.5      4.045      5.397
REMARK  Name = 
REMARK  8 active torsions:
REMARK  status: ('A' for Active; 'I' for Inactive)
REMARK    1  A    between atoms: C_1  and  C_2
REMARK    2  A    between atoms: C_2  and  C_4
REMARK    3  A    between atoms: C_2  and  C_13
REMARK    4  A    between atoms: C_4  and  CA_5
REMARK    5  A    between atoms: CA_5  and  N_7
REMARK    6  A    between atoms: CA_5  and  C_8
REMARK    7  A    between atoms: C_8  and  O_9
REMARK    8  A    between atoms: C_13  and  O_14
REMARK                            x       y       z     vdW  Elec       q    Type
REMARK                         _______ _______ _______ _____ _____    ______ ____
ROOT
ATOM      1  CA  UNL     1       9.578  -0.507  23.509  0.00  0.00    +0.221 C 
ENDROOT
BRANCH   1   2
ATOM      2  N   UNL     1       9.790  -1.850  24.130  0.00  0.00    -0.314 NA
ATOM      3  H1  UNL     1       9.183  -1.926  24.961  0.00  0.00    +0.119 HD
ATOM      4  H2  UNL     1       9.351  -2.554  23.511  0.00  0.00    +0.119 HD
ENDBRANCH   1   2
BRANCH   1   5
ATOM      5  C   UNL     1       9.718  -0.697  21.984  0.00  0.00    +0.465 C 
ATOM      6  OXT UNL     1       9.291   0.025  21.106  0.00  0.00    -0.194 OA
BRANCH   5   7
ATOM      7  O   UNL     1      10.490  -1.770  21.688  0.00  0.00    -0.568 OA
ATOM      8  H1  UNL     1      11.393  -1.619  22.084  0.00  0.00    +0.558 HD
ATOM      9  H2  UNL     1      10.373  -2.010  20.741  0.00  0.00    +0.558 HD
ENDBRANCH   5   7
ENDBRANCH   1   5
BRANCH   1  10
ATOM     10  C   UNL     1      10.622   0.523  23.969  0.00  0.00    +0.050 C 
BRANCH  10  12
ATOM     11  C   UNL     1       8.608   2.074  24.136  0.00  0.00    +0.019 C 
ATOM     12  C   UNL     1      10.130   1.975  24.186  0.00  0.00    +0.097 C 
BRANCH  12  13
ATOM     13  C   UNL     1      10.756   2.869  23.121  0.00  0.00    +0.308 C 
ATOM     14  O   UNL     1      11.500   3.804  23.375  0.00  0.00    -0.251 OA
BRANCH  13  15
ATOM     15  O   UNL     1      10.371   2.580  21.863  0.00  0.00    -0.480 OA
ATOM     16  H   UNL     1       9.419   2.651  21.667  0.00  0.00    +0.295 HD
ENDBRANCH  13  15
ENDBRANCH  12  13
ENDBRANCH  10  12
ENDBRANCH   1  10
TORSDOF 7
ENDMDL
MODEL 4
REMARK VINA RESULT:      -4.4      3.912      5.804
REMARK  Name = 
REMARK  8 active torsions:
REMARK  status: ('A' for Active; 'I' for Inactive)
REMARK    1  A    between atoms: C_1  and  C_2
REMARK    2  A    between atoms: C_2  and  C_4
REMARK    3  A    between atoms: C_2  and  C_13
REMARK    4  A    between atoms: C_4  and  CA_5
REMARK    5  A    between atoms: CA_5  and  N_7
REMARK    6  A    between atoms: CA_5  and  C_8
REMARK    7  A    between atoms: C_8  and  O_9
REMARK    8  A    between atoms: C_13  and  O_14
REMARK                            x       y       z     vdW  Elec       q    Type
REMARK                         _______ _______ _______ _____ _____    ______ ____
ROOT
ATOM      1  CA  UNL     1      10.021   2.083  23.933  0.00  0.00    +0.221 C 
ENDROOT
BRANCH   1   2
ATOM      2  N   UNL     1       9.011   2.404  24.987  0.00  0.00    -0.314 NA
ATOM      3  H1  UNL     1       9.248   1.873  25.840  0.00  0.00    +0.119 HD
ATOM      4  H2  UNL     1       9.193   3.370  25.311  0.00  0.00    +0.119 HD
ENDBRANCH   1   2
BRANCH   1   5
ATOM      5  C   UNL     1       9.318   2.277  22.573  0.00  0.00    +0.465 C 
ATOM      6  OXT UNL     1       8.163   2.596  22.376  0.00  0.00    -0.194 OA
BRANCH   5   7
ATOM      7  O   UNL     1      10.185   2.134  21.542  0.00  0.00    -0.568 OA
ATOM      8  H1  UNL     1      10.919   1.527  21.838  0.00  0.00    +0.558 HD
ATOM      9  H2  UNL     1      10.371   3.014  21.143  0.00  0.00    +0.558 HD
ENDBRANCH   5   7
ENDBRANCH   1   5
BRANCH   1  10
ATOM     10  C   UNL     1      10.519   0.632  24.021  0.00  0.00    +0.050 C 
BRANCH  10  12
ATOM     11  C   UNL     1       9.126  -1.248  25.028  0.00  0.00    +0.019 C 
ATOM     12  C   UNL     1       9.482  -0.486  23.754  0.00  0.00    +0.097 C 
BRANCH  12  13
ATOM     13  C   UNL     1      10.045  -1.437  22.704  0.00  0.00    +0.308 C 
ATOM     14  O   UNL     1      10.502  -2.539  22.966  0.00  0.00    -0.251 OA
BRANCH  13  15
ATOM     15  O   UNL     1      10.055  -0.935  21.454  0.00  0.00    -0.480 OA
ATOM     16  H   UNL     1       9.423  -1.322  20.820  0.00  0.00    +0.295 HD
ENDBRANCH  13  15
ENDBRANCH  12  13
ENDBRANCH  10  12
ENDBRANCH   1  10
TORSDOF 7
ENDMDL
MODEL 5
REMARK VINA RESULT:      -4.4      2.895      3.662
REMARK  Name = 
REMARK  8 active torsions:
REMARK  status: ('A' for Active; 'I' for Inactive)
REMARK    1  A    between atoms: C_1  and  C_2
REMARK    2  A    between atoms: C_2  and  C_4
REMARK    3  A    between atoms: C_2  and  C_13
REMARK    4  A    between atoms: C_4  and  CA_5
REMARK    5  A    between atoms: CA_5  and  N_7
REMARK    6  A    between atoms: CA_5  and  C_8
REMARK    7  A    between atoms: C_8  and  O_9
REMARK    8  A    between atoms: C_13  and  O_14
REMARK                            x       y       z     vdW  Elec       q    Type
REMARK                         _______ _______ _______ _____ _____    ______ ____
ROOT
ATOM      1  CA  UNL     1       9.312  -2.109  23.660  0.00  0.00    +0.221 C 
ENDROOT
BRANCH   1   2
ATOM      2  N   UNL     1       9.901  -3.387  24.165  0.00  0.00    -0.314 NA
ATOM      3  H1  UNL     1       9.397  -3.664  25.022  0.00  0.00    +0.119 HD
ATOM      4  H2  UNL     1       9.607  -4.143  23.522  0.00  0.00    +0.119 HD
ENDBRANCH   1   2
BRANCH   1   5
ATOM      5  C   UNL     1       8.061  -2.492  22.842  0.00  0.00    +0.465 C 
ATOM      6  OXT UNL     1       7.745  -3.595  22.446  0.00  0.00    -0.194 OA
BRANCH   5   7
ATOM      7  O   UNL     1       7.241  -1.428  22.666  0.00  0.00    -0.568 OA
ATOM      8  H1  UNL     1       7.803  -0.645  22.409  0.00  0.00    +0.558 HD
ATOM      9  H2  UNL     1       6.597  -1.380  23.408  0.00  0.00    +0.558 HD
ENDBRANCH   5   7
ENDBRANCH   1   5
BRANCH   1  10
ATOM     10  C   UNL     1      10.277  -1.343  22.743  0.00  0.00    +0.050 C 
BRANCH  10  12
ATOM     11  C   UNL     1       9.824   0.591  24.338  0.00  0.00    +0.019 C 
ATOM     12  C   UNL     1      10.446   0.173  23.008  0.00  0.00    +0.097 C 
BRANCH  12  13
ATOM     13  C   UNL     1       9.811   0.946  21.858  0.00  0.00    +0.308 C 
ATOM     14  O   UNL     1       9.007   0.460  21.078  0.00  0.00    -0.251 OA
BRANCH  13  15
ATOM     15  O   UNL     1      10.257   2.211  21.731  0.00  0.00    -0.480 OA
ATOM     16  H   UNL     1       9.651   2.852  21.316  0.00  0.00    +0.295 HD
ENDBRANCH  13  15
ENDBRANCH  12  13
ENDBRANCH  10  12
ENDBRANCH   1  10
TORSDOF 7
ENDMDL
MODEL 6
REMARK VINA RESULT:      -4.4      3.502      4.337
REMARK  Name = 
REMARK  8 active torsions:
REMARK  status: ('A' for Active; 'I' for Inactive)
REMARK    1  A    between atoms: C_1  and  C_2
REMARK    2  A    between atoms: C_2  and  C_4
REMARK    3  A    between atoms: C_2  and  C_13
REMARK    4  A    between atoms: C_4  and  CA_5
REMARK    5  A    between atoms: CA_5  and  N_7
REMARK    6  A    between atoms: CA_5  and  C_8
REMARK    7  A    between atoms: C_8  and  O_9
REMARK    8  A    between atoms: C_13  and  O_14
REMARK                            x       y       z     vdW  Elec       q    Type
REMARK                         _______ _______ _______ _____ _____    ______ ____
ROOT
ATOM      1  CA  UNL     1      10.309  -1.192  22.925  0.00  0.00    +0.221 C 
ENDROOT
BRANCH   1   2
ATOM      2  N   UNL     1      10.033  -1.462  21.481  0.00  0.00    -0.314 NA
ATOM      3  H1  UNL     1      10.907  -1.324  20.949  0.00  0.00    +0.119 HD
ATOM      4  H2  UNL     1       9.907  -2.484  21.372  0.00  0.00    +0.119 HD
ENDBRANCH   1   2
BRANCH   1   5
ATOM      5  C   UNL     1       9.666  -2.347  23.721  0.00  0.00    +0.465 C 
ATOM      6  OXT UNL     1      10.180  -3.398  24.045  0.00  0.00    -0.194 OA
BRANCH   5   7
ATOM      7  O   UNL     1       8.416  -2.029  24.134  0.00  0.00    -0.568 OA
ATOM      8  H1  UNL     1       7.790  -2.188  23.373  0.00  0.00    +0.558 HD
ATOM      9  H2  UNL     1       8.435  -1.171  24.616  0.00  0.00    +0.558 HD
ENDBRANCH   5   7
ENDBRANCH   1   5
BRANCH   1  10
ATOM     10  C   UNL     1       9.690   0.131  23.402  0.00  0.00    +0.050 C 
BRANCH  10  12
ATOM     11  C   UNL     1      10.611   2.499  23.585  0.00  0.00    +0.019 C 
ATOM     12  C   UNL     1      10.099   1.415  22.640  0.00  0.00    +0.097 C 
BRANCH  12  13
ATOM     13  C   UNL     1       8.897   1.921  21.851  0.00  0.00    +0.308 C 
ATOM     14  O   UNL     1       8.178   2.835  22.224  0.00  0.00    -0.251 OA
BRANCH  13  15
ATOM     15  O   UNL     1       8.651   1.231  20.720  0.00  0.00    -0.480 OA
ATOM     16  H   UNL     1       8.053   0.465  20.794  0.00  0.00    +0.295 HD
ENDBRANCH  13  15
ENDBRANCH  12  13
ENDBRANCH  10  12
ENDBRANCH   1  10
TORSDOF 7
ENDMDL
MODEL 7
REMARK VINA RESULT:      -4.3      3.481      5.502
REMARK  Name = 
REMARK  8 active torsions:
REMARK  status: ('A' for Active; 'I' for Inactive)
REMARK    1  A    between atoms: C_1  and  C_2
REMARK    2  A    between atoms: C_2  and  C_4
REMARK    3  A    between atoms: C_2  and  C_13
REMARK    4  A    between atoms: C_4  and  CA_5
REMARK    5  A    between atoms: CA_5  and  N_7
REMARK    6  A    between atoms: CA_5  and  C_8
REMARK    7  A    between atoms: C_8  and  O_9
REMARK    8  A    between atoms: C_13  and  O_14
REMARK                            x       y       z     vdW  Elec       q    Type
REMARK                         _______ _______ _______ _____ _____    ______ ____
ROOT
ATOM      1  CA  UNL     1       7.953   0.661  22.950  0.00  0.00    +0.221 C 
ENDROOT
BRANCH   1   2
ATOM      2  N   UNL     1       6.579   1.141  22.607  0.00  0.00    -0.314 NA
ATOM      3  H1  UNL     1       6.333   0.788  21.669  0.00  0.00    +0.119 HD
ATOM      4  H2  UNL     1       5.907   0.611  23.189  0.00  0.00    +0.119 HD
ENDBRANCH   1   2
BRANCH   1   5
ATOM      5  C   UNL     1       8.835   0.926  21.712  0.00  0.00    +0.465 C 
ATOM      6  OXT UNL     1       9.345   0.104  20.977  0.00  0.00    -0.194 OA
BRANCH   5   7
ATOM      7  O   UNL     1       8.929   2.250  21.445  0.00  0.00    -0.568 OA
ATOM      8  H1  UNL     1       8.096   2.691  21.772  0.00  0.00    +0.558 HD
ATOM      9  H2  UNL     1       9.256   2.380  20.526  0.00  0.00    +0.558 HD
ENDBRANCH   5   7
ENDBRANCH   1   5
BRANCH   1  10
ATOM     10  C   UNL     1       7.987  -0.844  23.259  0.00  0.00    +0.050 C 
BRANCH  10  12
ATOM     11  C   UNL     1       9.839  -0.166  24.871  0.00  0.00    +0.019 C 
ATOM     12  C   UNL     1       8.997  -1.319  24.332  0.00  0.00    +0.097 C 
BRANCH  12  13
ATOM     13  C   UNL     1       9.892  -2.392  23.722  0.00  0.00    +0.308 C 
ATOM     14  O   UNL     1      10.031  -3.508  24.198  0.00  0.00    -0.251 OA
BRANCH  13  15
ATOM     15  O   UNL     1      10.574  -1.986  22.633  0.00  0.00    -0.480 OA
ATOM     16  H   UNL     1      10.226  -2.265  21.767  0.00  0.00    +0.295 HD
ENDBRANCH  13  15
ENDBRANCH  12  13
ENDBRANCH  10  12
ENDBRANCH   1  10
TORSDOF 7
ENDMDL
MODEL 8
REMARK VINA RESULT:      -4.3      2.347      2.861
REMARK  Name = 
REMARK  8 active torsions:
REMARK  status: ('A' for Active; 'I' for Inactive)
REMARK    1  A    between atoms: C_1  and  C_2
REMARK    2  A    between atoms: C_2  and  C_4
REMARK    3  A    between atoms: C_2  and  C_13
REMARK    4  A    between atoms: C_4  and  CA_5
REMARK    5  A    between atoms: CA_5  and  N_7
REMARK    6  A    between atoms: CA_5  and  C_8
REMARK    7  A    between atoms: C_8  and  O_9
REMARK    8  A    between atoms: C_13  and  O_14
REMARK                            x       y       z     vdW  Elec       q    Type
REMARK                         _______ _______ _______ _____ _____    ______ ____
ROOT
ATOM      1  CA  UNL     1       8.578  -4.949  25.020  0.00  0.00    +0.221 C 
ENDROOT
BRANCH   1   2
ATOM      2  N   UNL     1       9.840  -5.715  25.255  0.00  0.00    -0.314 NA
ATOM      3  H1  UNL     1       9.745  -6.241  26.138  0.00  0.00    +0.119 HD
ATOM      4  H2  UNL     1       9.865  -6.494  24.574  0.00  0.00    +0.119 HD
ENDBRANCH   1   2
BRANCH   1   5
ATOM      5  C   UNL     1       7.572  -5.413  26.095  0.00  0.00    +0.465 C 
ATOM      6  OXT UNL     1       6.381  -5.601  25.961  0.00  0.00    -0.194 OA
BRANCH   5   7
ATOM      7  O   UNL     1       8.194  -5.697  27.264  0.00  0.00    -0.568 OA
ATOM      8  H1  UNL     1       9.145  -5.921  27.062  0.00  0.00    +0.558 HD
ATOM      9  H2  UNL     1       7.626  -6.291  27.805  0.00  0.00    +0.558 HD
ENDBRANCH   5   7
ENDBRANCH   1   5
BRANCH   1  10
ATOM     10  C   UNL     1       7.973  -5.227  23.636  0.00  0.00    +0.050 C 
BRANCH  10  12
ATOM     11  C   UNL     1       7.721  -2.693  23.567  0.00  0.00    +0.019 C 
ATOM     12  C   UNL     1       7.480  -4.005  22.824  0.00  0.00    +0.097 C 
BRANCH  12  13
ATOM     13  C   UNL     1       5.996  -4.181  22.523  0.00  0.00    +0.308 C 
ATOM     14  O   UNL     1       5.361  -3.440  21.789  0.00  0.00    -0.251 OA
BRANCH  13  15
ATOM     15  O   UNL     1       5.416  -5.200  23.189  0.00  0.00    -0.480 OA
ATOM     16  H   UNL     1       4.442  -5.230  23.184  0.00  0.00    +0.295 HD
ENDBRANCH  13  15
ENDBRANCH  12  13
ENDBRANCH  10  12
ENDBRANCH   1  10
TORSDOF 7
ENDMDL
MODEL 9
REMARK VINA RESULT:      -4.3      2.821      3.621
REMARK  Name = 
REMARK  8 active torsions:
REMARK  status: ('A' for Active; 'I' for Inactive)
REMARK    1  A    between atoms: C_1  and  C_2
REMARK    2  A    between atoms: C_2  and  C_4
REMARK    3  A    between atoms: C_2  and  C_13
REMARK    4  A    between atoms: C_4  and  CA_5
REMARK    5  A    between atoms: CA_5  and  N_7
REMARK    6  A    between atoms: CA_5  and  C_8
REMARK    7  A    between atoms: C_8  and  O_9
REMARK    8  A    between atoms: C_13  and  O_14
REMARK                            x       y       z     vdW  Elec       q    Type
REMARK                         _______ _______ _______ _____ _____    ______ ____
ROOT
ATOM      1  CA  UNL     1       8.075  -5.398  25.631  0.00  0.00    +0.221 C 
ENDROOT
BRANCH   1   2
ATOM      2  N   UNL     1       8.135  -5.568  27.115  0.00  0.00    -0.314 NA
ATOM      3  H1  UNL     1       8.173  -4.633  27.550  0.00  0.00    +0.119 HD
ATOM      4  H2  UNL     1       7.202  -5.885  27.432  0.00  0.00    +0.119 HD
ENDBRANCH   1   2
BRANCH   1   5
ATOM      5  C   UNL     1       9.461  -4.885  25.187  0.00  0.00    +0.465 C 
ATOM      6  OXT UNL     1       9.703  -3.961  24.439  0.00  0.00    -0.194 OA
BRANCH   5   7
ATOM      7  O   UNL     1      10.459  -5.548  25.819  0.00  0.00    -0.568 OA
ATOM      8  H1  UNL     1      11.242  -5.588  25.202  0.00  0.00    +0.558 HD
ATOM      9  H2  UNL     1      10.099  -6.356  26.250  0.00  0.00    +0.558 HD
ENDBRANCH   5   7
ENDBRANCH   1   5
BRANCH   1  10
ATOM     10  C   UNL     1       7.016  -4.372  25.201  0.00  0.00    +0.050 C 
BRANCH  10  12
ATOM     11  C   UNL     1       5.191  -6.042  24.593  0.00  0.00    +0.019 C 
ATOM     12  C   UNL     1       5.988  -4.824  24.135  0.00  0.00    +0.097 C 
BRANCH  12  13
ATOM     13  C   UNL     1       6.729  -5.130  22.838  0.00  0.00    +0.308 C 
ATOM     14  O   UNL     1       6.715  -6.222  22.292  0.00  0.00    -0.251 OA
BRANCH  13  15
ATOM     15  O   UNL     1       7.461  -4.102  22.365  0.00  0.00    -0.480 OA
ATOM     16  H   UNL     1       7.533  -4.023  21.396  0.00  0.00    +0.295 HD
ENDBRANCH  13  15
ENDBRANCH  12  13
ENDBRANCH  10  12
ENDBRANCH   1  10
TORSDOF 7
ENDMDL
