MODEL 1
REMARK VINA RESULT:      -5.5      0.000      0.000
REMARK  Name = 
REMARK  18 active torsions:
REMARK  status: ('A' for Active; 'I' for Inactive)
REMARK    1  A    between atoms: C_1  and  C_2
REMARK    2  A    between atoms: C_2  and  C_3
REMARK    3  A    between atoms: C_3  and  C_4
REMARK    4  A    between atoms: C_4  and  C_5
REMARK    5  A    between atoms: C_5  and  C_6
REMARK    6  A    between atoms: C_6  and  C_7
REMARK    7  A    between atoms: C_7  and  N_8
REMARK    8  A    between atoms: N_8  and  C_9
REMARK    9  A    between atoms: N_8  and  C_11
REMARK   10  A    between atoms: C_9  and  C_10
REMARK   11  A    between atoms: C_11  and  C_12
REMARK   12  A    between atoms: C_12  and  C_13
REMARK   13  A    between atoms: C_13  and  C_14
REMARK   14  A    between atoms: C_14  and  O_15
REMARK   15  A    between atoms: C_14  and  C_16
REMARK   16  A    between atoms: C_19  and  N_20
REMARK   17  A    between atoms: N_20  and  S_21
REMARK   18  A    between atoms: S_21  and  C_22
REMARK                            x       y       z     vdW  Elec       q    Type
REMARK                         _______ _______ _______ _____ _____    ______ ____
ROOT
ATOM      1  C   UNL     1       8.931  -0.949  26.267  0.00  0.00    +0.145 C 
ENDROOT
BRANCH   1   2
ATOM      2  C   UNL     1       8.184  -2.248  26.489  0.00  0.00    -0.019 A 
ATOM      3  C   UNL     1       6.784  -2.286  26.604  0.00  0.00    +0.008 A 
ATOM      4  C   UNL     1       6.115  -3.505  26.752  0.00  0.00    +0.025 A 
ATOM      5  C   UNL     1       6.838  -4.693  26.789  0.00  0.00    +0.048 A 
ATOM      6  C   UNL     1       8.228  -4.671  26.718  0.00  0.00    +0.025 A 
ATOM      7  C   UNL     1       8.897  -3.455  26.566  0.00  0.00    +0.008 A 
BRANCH   5   8
ATOM      8  N   UNL     1       6.169  -5.945  26.920  0.00  0.00    -0.221 N 
ATOM      9  H   UNL     1       5.460  -6.130  26.207  0.00  0.00    +0.173 HD
BRANCH   8  10
ATOM     10  S   UNL     1       5.540  -6.343  28.437  0.00  0.00    +0.040 S 
ATOM     11  O   UNL     1       6.056  -5.338  29.343  0.00  0.00    -0.155 OA
ATOM     12  O   UNL     1       5.730  -7.753  28.701  0.00  0.00    -0.155 OA
ATOM     13  C   UNL     1       3.803  -6.018  28.198  0.00  0.00    +0.218 C 
ENDBRANCH   8  10
ENDBRANCH   5   8
ENDBRANCH   1   2
BRANCH   1  14
ATOM     14  O   UNL     1       9.245  -0.365  27.530  0.00  0.00    -0.387 OA
ATOM     15  H   UNL     1       8.674  -0.784  28.195  0.00  0.00    +0.210 HD
ENDBRANCH   1  14
BRANCH   1  16
ATOM     16  C   UNL     1       8.140   0.037  25.397  0.00  0.00    +0.037 C 
BRANCH  16  17
ATOM     17  C   UNL     1       9.009   1.217  24.945  0.00  0.00    +0.018 C 
BRANCH  17  18
ATOM     18  C   UNL     1      10.211   0.783  24.091  0.00  0.00    +0.084 C 
BRANCH  18  19
ATOM     19  N   UNL     1      10.040   0.972  22.640  0.00  0.00    -0.303 NA
BRANCH  19  20
ATOM     20  C   UNL     1       9.189   2.141  22.353  0.00  0.00    +0.081 C 
ATOM     21  C   UNL     1       7.922   1.878  21.541  0.00  0.00    +0.020 C 
ENDBRANCH  19  20
BRANCH  19  22
ATOM     22  C   UNL     1       9.605  -0.266  21.965  0.00  0.00    +0.084 C 
BRANCH  22  23
ATOM     23  C   UNL     1      10.342  -1.516  22.452  0.00  0.00    +0.015 C 
BRANCH  23  24
ATOM     24  C   UNL     1       9.385  -2.533  23.070  0.00  0.00    +0.001 C 
BRANCH  24  25
ATOM     25  C   UNL     1       8.022  -2.425  22.392  0.00  0.00    +0.000 C 
BRANCH  25  26
ATOM     26  C   UNL     1       6.989  -3.341  23.034  0.00  0.00    -0.000 C 
BRANCH  26  28
ATOM     27  C   UNL     1       7.080  -5.544  21.822  0.00  0.00    +0.004 C 
ATOM     28  C   UNL     1       7.503  -4.780  23.063  0.00  0.00    -0.003 C 
ENDBRANCH  26  28
ENDBRANCH  25  26
ENDBRANCH  24  25
ENDBRANCH  23  24
ENDBRANCH  22  23
ENDBRANCH  19  22
ENDBRANCH  18  19
ENDBRANCH  17  18
ENDBRANCH  16  17
ENDBRANCH   1  16
TORSDOF 15
ENDMDL
MODEL 2
REMARK VINA RESULT:      -5.4      4.075      7.738
REMARK  Name = 
REMARK  18 active torsions:
REMARK  status: ('A' for Active; 'I' for Inactive)
REMARK    1  A    between atoms: C_1  and  C_2
REMARK    2  A    between atoms: C_2  and  C_3
REMARK    3  A    between atoms: C_3  and  C_4
REMARK    4  A    between atoms: C_4  and  C_5
REMARK    5  A    between atoms: C_5  and  C_6
REMARK    6  A    between atoms: C_6  and  C_7
REMARK    7  A    between atoms: C_7  and  N_8
REMARK    8  A    between atoms: N_8  and  C_9
REMARK    9  A    between atoms: N_8  and  C_11
REMARK   10  A    between atoms: C_9  and  C_10
REMARK   11  A    between atoms: C_11  and  C_12
REMARK   12  A    between atoms: C_12  and  C_13
REMARK   13  A    between atoms: C_13  and  C_14
REMARK   14  A    between atoms: C_14  and  O_15
REMARK   15  A    between atoms: C_14  and  C_16
REMARK   16  A    between atoms: C_19  and  N_20
REMARK   17  A    between atoms: N_20  and  S_21
REMARK   18  A    between atoms: S_21  and  C_22
REMARK                            x       y       z     vdW  Elec       q    Type
REMARK                         _______ _______ _______ _____ _____    ______ ____
ROOT
ATOM      1  C   UNL     1       9.817  -1.958  23.067  0.00  0.00    +0.145 C 
ENDROOT
BRANCH   1   2
ATOM      2  C   UNL     1      10.000  -0.455  23.066  0.00  0.00    -0.019 A 
ATOM      3  C   UNL     1       9.753   0.321  21.921  0.00  0.00    +0.008 A 
ATOM      4  C   UNL     1       9.876   1.713  21.963  0.00  0.00    +0.025 A 
ATOM      5  C   UNL     1      10.247   2.341  23.148  0.00  0.00    +0.048 A 
ATOM      6  C   UNL     1      10.535   1.585  24.281  0.00  0.00    +0.025 A 
ATOM      7  C   UNL     1      10.409   0.195  24.242  0.00  0.00    +0.008 A 
BRANCH   5   8
ATOM      8  N   UNL     1      10.357   3.760  23.213  0.00  0.00    -0.221 N 
ATOM      9  H   UNL     1      11.165   4.106  23.733  0.00  0.00    +0.173 HD
BRANCH   8  10
ATOM     10  S   UNL     1       8.988   4.631  23.684  0.00  0.00    +0.040 S 
ATOM     11  O   UNL     1       8.802   4.328  25.088  0.00  0.00    -0.155 OA
ATOM     12  O   UNL     1       7.917   4.432  22.731  0.00  0.00    -0.155 OA
ATOM     13  C   UNL     1       9.576   6.310  23.564  0.00  0.00    +0.218 C 
ENDBRANCH   8  10
ENDBRANCH   5   8
ENDBRANCH   1   2
BRANCH   1  14
ATOM     14  O   UNL     1       8.853  -2.316  22.079  0.00  0.00    -0.387 OA
ATOM     15  H   UNL     1       7.987  -2.360  22.518  0.00  0.00    +0.210 HD
ENDBRANCH   1  14
BRANCH   1  16
ATOM     16  C   UNL     1       9.404  -2.494  24.445  0.00  0.00    +0.037 C 
BRANCH  16  17
ATOM     17  C   UNL     1       9.134  -4.003  24.409  0.00  0.00    +0.018 C 
BRANCH  17  18
ATOM     18  C   UNL     1       7.741  -4.376  24.941  0.00  0.00    +0.084 C 
BRANCH  18  19
ATOM     19  N   UNL     1       6.768  -4.767  23.907  0.00  0.00    -0.303 NA
BRANCH  19  20
ATOM     20  C   UNL     1       7.420  -5.520  22.820  0.00  0.00    +0.081 C 
ATOM     21  C   UNL     1       6.691  -5.547  21.478  0.00  0.00    +0.020 C 
ENDBRANCH  19  20
BRANCH  19  22
ATOM     22  C   UNL     1       5.959  -3.624  23.443  0.00  0.00    +0.084 C 
BRANCH  22  23
ATOM     23  C   UNL     1       4.881  -3.195  24.442  0.00  0.00    +0.015 C 
BRANCH  23  24
ATOM     24  C   UNL     1       5.227  -1.868  25.114  0.00  0.00    +0.001 C 
BRANCH  24  25
ATOM     25  C   UNL     1       6.118  -1.046  24.186  0.00  0.00    +0.000 C 
BRANCH  25  26
ATOM     26  C   UNL     1       6.729   0.155  24.895  0.00  0.00    -0.000 C 
BRANCH  26  28
ATOM     27  C   UNL     1       5.459   2.173  24.093  0.00  0.00    +0.004 C 
ATOM     28  C   UNL     1       6.739   1.369  23.968  0.00  0.00    -0.003 C 
ENDBRANCH  26  28
ENDBRANCH  25  26
ENDBRANCH  24  25
ENDBRANCH  23  24
ENDBRANCH  22  23
ENDBRANCH  19  22
ENDBRANCH  18  19
ENDBRANCH  17  18
ENDBRANCH  16  17
ENDBRANCH   1  16
TORSDOF 15
ENDMDL
MODEL 3
REMARK VINA RESULT:      -5.4      3.172      7.062
REMARK  Name = 
REMARK  18 active torsions:
REMARK  status: ('A' for Active; 'I' for Inactive)
REMARK    1  A    between atoms: C_1  and  C_2
REMARK    2  A    between atoms: C_2  and  C_3
REMARK    3  A    between atoms: C_3  and  C_4
REMARK    4  A    between atoms: C_4  and  C_5
REMARK    5  A    between atoms: C_5  and  C_6
REMARK    6  A    between atoms: C_6  and  C_7
REMARK    7  A    between atoms: C_7  and  N_8
REMARK    8  A    between atoms: N_8  and  C_9
REMARK    9  A    between atoms: N_8  and  C_11
REMARK   10  A    between atoms: C_9  and  C_10
REMARK   11  A    between atoms: C_11  and  C_12
REMARK   12  A    between atoms: C_12  and  C_13
REMARK   13  A    between atoms: C_13  and  C_14
REMARK   14  A    between atoms: C_14  and  O_15
REMARK   15  A    between atoms: C_14  and  C_16
REMARK   16  A    between atoms: C_19  and  N_20
REMARK   17  A    between atoms: N_20  and  S_21
REMARK   18  A    between atoms: S_21  and  C_22
REMARK                            x       y       z     vdW  Elec       q    Type
REMARK                         _______ _______ _______ _____ _____    ______ ____
ROOT
ATOM      1  C   UNL     1       9.165  -4.537  25.707  0.00  0.00    +0.145 C 
ENDROOT
BRANCH   1   2
ATOM      2  C   UNL     1       9.067  -3.142  25.125  0.00  0.00    -0.019 A 
ATOM      3  C   UNL     1       9.425  -2.868  23.795  0.00  0.00    +0.008 A 
ATOM      4  C   UNL     1       9.273  -1.582  23.266  0.00  0.00    +0.025 A 
ATOM      5  C   UNL     1       8.764  -0.561  24.062  0.00  0.00    +0.048 A 
ATOM      6  C   UNL     1       8.443  -0.805  25.394  0.00  0.00    +0.025 A 
ATOM      7  C   UNL     1       8.590  -2.089  25.922  0.00  0.00    +0.008 A 
BRANCH   5   8
ATOM      8  N   UNL     1       8.584   0.749  23.532  0.00  0.00    -0.221 N 
ATOM      9  H   UNL     1       8.037   0.793  22.670  0.00  0.00    +0.173 HD
BRANCH   8  10
ATOM     10  S   UNL     1       9.956   1.721  23.362  0.00  0.00    +0.040 S 
ATOM     11  O   UNL     1      10.182   1.823  21.935  0.00  0.00    -0.155 OA
ATOM     12  O   UNL     1      11.002   1.267  24.252  0.00  0.00    -0.155 OA
ATOM     13  C   UNL     1       9.346   3.298  23.929  0.00  0.00    +0.218 C 
ENDBRANCH   8  10
ENDBRANCH   5   8
ENDBRANCH   1   2
BRANCH   1  14
ATOM     14  O   UNL     1      10.312  -5.192  25.171  0.00  0.00    -0.387 OA
ATOM     15  H   UNL     1      10.009  -5.769  24.451  0.00  0.00    +0.210 HD
ENDBRANCH   1  14
BRANCH   1  16
ATOM     16  C   UNL     1       7.899  -5.366  25.449  0.00  0.00    +0.037 C 
BRANCH  16  17
ATOM     17  C   UNL     1       6.935  -5.315  26.640  0.00  0.00    +0.018 C 
BRANCH  17  18
ATOM     18  C   UNL     1       5.593  -6.010  26.356  0.00  0.00    +0.084 C 
BRANCH  18  19
ATOM     19  N   UNL     1       4.401  -5.189  26.632  0.00  0.00    -0.303 NA
BRANCH  19  20
ATOM     20  C   UNL     1       3.198  -5.772  26.009  0.00  0.00    +0.081 C 
ATOM     21  C   UNL     1       3.382  -7.111  25.299  0.00  0.00    +0.020 C 
ENDBRANCH  19  20
BRANCH  19  22
ATOM     22  C   UNL     1       4.617  -3.767  26.303  0.00  0.00    +0.084 C 
BRANCH  22  23
ATOM     23  C   UNL     1       4.261  -3.416  24.857  0.00  0.00    +0.015 C 
BRANCH  23  24
ATOM     24  C   UNL     1       5.422  -2.733  24.138  0.00  0.00    +0.001 C 
BRANCH  24  25
ATOM     25  C   UNL     1       5.835  -3.572  22.931  0.00  0.00    +0.000 C 
BRANCH  25  26
ATOM     26  C   UNL     1       5.005  -4.843  22.807  0.00  0.00    -0.000 C 
BRANCH  26  28
ATOM     27  C   UNL     1       7.162  -5.567  21.733  0.00  0.00    +0.004 C 
ATOM     28  C   UNL     1       5.900  -6.026  22.438  0.00  0.00    -0.003 C 
ENDBRANCH  26  28
ENDBRANCH  25  26
ENDBRANCH  24  25
ENDBRANCH  23  24
ENDBRANCH  22  23
ENDBRANCH  19  22
ENDBRANCH  18  19
ENDBRANCH  17  18
ENDBRANCH  16  17
ENDBRANCH   1  16
TORSDOF 15
ENDMDL
MODEL 4
REMARK VINA RESULT:      -5.2      3.979      7.568
REMARK  Name = 
REMARK  18 active torsions:
REMARK  status: ('A' for Active; 'I' for Inactive)
REMARK    1  A    between atoms: C_1  and  C_2
REMARK    2  A    between atoms: C_2  and  C_3
REMARK    3  A    between atoms: C_3  and  C_4
REMARK    4  A    between atoms: C_4  and  C_5
REMARK    5  A    between atoms: C_5  and  C_6
REMARK    6  A    between atoms: C_6  and  C_7
REMARK    7  A    between atoms: C_7  and  N_8
REMARK    8  A    between atoms: N_8  and  C_9
REMARK    9  A    between atoms: N_8  and  C_11
REMARK   10  A    between atoms: C_9  and  C_10
REMARK   11  A    between atoms: C_11  and  C_12
REMARK   12  A    between atoms: C_12  and  C_13
REMARK   13  A    between atoms: C_13  and  C_14
REMARK   14  A    between atoms: C_14  and  O_15
REMARK   15  A    between atoms: C_14  and  C_16
REMARK   16  A    between atoms: C_19  and  N_20
REMARK   17  A    between atoms: N_20  and  S_21
REMARK   18  A    between atoms: S_21  and  C_22
REMARK                            x       y       z     vdW  Elec       q    Type
REMARK                         _______ _______ _______ _____ _____    ______ ____
ROOT
ATOM      1  C   UNL     1       9.930  -1.842  22.739  0.00  0.00    +0.145 C 
ENDROOT
BRANCH   1   2
ATOM      2  C   UNL     1      10.080  -0.337  22.829  0.00  0.00    -0.019 A 
ATOM      3  C   UNL     1       9.706   0.509  21.772  0.00  0.00    +0.008 A 
ATOM      4  C   UNL     1       9.803   1.898  21.903  0.00  0.00    +0.025 A 
ATOM      5  C   UNL     1      10.276   2.451  23.089  0.00  0.00    +0.048 A 
ATOM      6  C   UNL     1      10.690   1.627  24.131  0.00  0.00    +0.025 A 
ATOM      7  C   UNL     1      10.590   0.240  24.003  0.00  0.00    +0.008 A 
BRANCH   5   8
ATOM      8  N   UNL     1      10.361   3.865  23.245  0.00  0.00    -0.221 N 
ATOM      9  H   UNL     1      11.155   4.189  23.801  0.00  0.00    +0.173 HD
BRANCH   8  10
ATOM     10  S   UNL     1       8.970   4.684  23.744  0.00  0.00    +0.040 S 
ATOM     11  O   UNL     1       8.807   4.350  25.143  0.00  0.00    -0.155 OA
ATOM     12  O   UNL     1       7.898   4.469  22.796  0.00  0.00    -0.155 OA
ATOM     13  C   UNL     1       9.505   6.383  23.650  0.00  0.00    +0.218 C 
ENDBRANCH   8  10
ENDBRANCH   5   8
ENDBRANCH   1   2
BRANCH   1  14
ATOM     14  O   UNL     1       8.822  -2.155  21.897  0.00  0.00    -0.387 OA
ATOM     15  H   UNL     1       8.035  -2.219  22.463  0.00  0.00    +0.210 HD
ENDBRANCH   1  14
BRANCH   1  16
ATOM     16  C   UNL     1       9.763  -2.495  24.118  0.00  0.00    +0.037 C 
BRANCH  16  17
ATOM     17  C   UNL     1       8.323  -2.377  24.630  0.00  0.00    +0.018 C 
BRANCH  17  18
ATOM     18  C   UNL     1       8.072  -3.195  25.907  0.00  0.00    +0.084 C 
BRANCH  18  19
ATOM     19  N   UNL     1       6.779  -2.935  26.564  0.00  0.00    -0.303 NA
BRANCH  19  20
ATOM     20  C   UNL     1       6.214  -4.172  27.133  0.00  0.00    +0.081 C 
ATOM     21  C   UNL     1       7.174  -5.349  27.291  0.00  0.00    +0.020 C 
ENDBRANCH  19  20
BRANCH  19  22
ATOM     22  C   UNL     1       5.848  -2.199  25.688  0.00  0.00    +0.084 C 
BRANCH  22  23
ATOM     23  C   UNL     1       4.734  -3.075  25.110  0.00  0.00    +0.015 C 
BRANCH  23  24
ATOM     24  C   UNL     1       4.927  -3.324  23.616  0.00  0.00    +0.001 C 
BRANCH  24  25
ATOM     25  C   UNL     1       4.918  -4.826  23.346  0.00  0.00    +0.000 C 
BRANCH  25  26
ATOM     26  C   UNL     1       6.274  -5.465  23.620  0.00  0.00    -0.000 C 
BRANCH  26  28
ATOM     27  C   UNL     1       6.437  -5.719  21.122  0.00  0.00    +0.004 C 
ATOM     28  C   UNL     1       7.176  -5.341  22.392  0.00  0.00    -0.003 C 
ENDBRANCH  26  28
ENDBRANCH  25  26
ENDBRANCH  24  25
ENDBRANCH  23  24
ENDBRANCH  22  23
ENDBRANCH  19  22
ENDBRANCH  18  19
ENDBRANCH  17  18
ENDBRANCH  16  17
ENDBRANCH   1  16
TORSDOF 15
ENDMDL
MODEL 5
REMARK VINA RESULT:      -5.2      4.224      7.906
REMARK  Name = 
REMARK  18 active torsions:
REMARK  status: ('A' for Active; 'I' for Inactive)
REMARK    1  A    between atoms: C_1  and  C_2
REMARK    2  A    between atoms: C_2  and  C_3
REMARK    3  A    between atoms: C_3  and  C_4
REMARK    4  A    between atoms: C_4  and  C_5
REMARK    5  A    between atoms: C_5  and  C_6
REMARK    6  A    between atoms: C_6  and  C_7
REMARK    7  A    between atoms: C_7  and  N_8
REMARK    8  A    between atoms: N_8  and  C_9
REMARK    9  A    between atoms: N_8  and  C_11
REMARK   10  A    between atoms: C_9  and  C_10
REMARK   11  A    between atoms: C_11  and  C_12
REMARK   12  A    between atoms: C_12  and  C_13
REMARK   13  A    between atoms: C_13  and  C_14
REMARK   14  A    between atoms: C_14  and  O_15
REMARK   15  A    between atoms: C_14  and  C_16
REMARK   16  A    between atoms: C_19  and  N_20
REMARK   17  A    between atoms: N_20  and  S_21
REMARK   18  A    between atoms: S_21  and  C_22
REMARK                            x       y       z     vdW  Elec       q    Type
REMARK                         _______ _______ _______ _____ _____    ______ ____
ROOT
ATOM      1  C   UNL     1       9.897  -1.529  22.824  0.00  0.00    +0.145 C 
ENDROOT
BRANCH   1   2
ATOM      2  C   UNL     1       9.969  -0.026  22.998  0.00  0.00    -0.019 A 
ATOM      3  C   UNL     1      10.508   0.560  24.155  0.00  0.00    +0.008 A 
ATOM      4  C   UNL     1      10.613   1.950  24.267  0.00  0.00    +0.025 A 
ATOM      5  C   UNL     1      10.180   2.764  23.225  0.00  0.00    +0.048 A 
ATOM      6  C   UNL     1       9.606   2.202  22.088  0.00  0.00    +0.025 A 
ATOM      7  C   UNL     1       9.504   0.814  21.974  0.00  0.00    +0.008 A 
BRANCH   5   8
ATOM      8  N   UNL     1      10.299   4.181  23.315  0.00  0.00    -0.221 N 
ATOM      9  H   UNL     1      11.145   4.513  23.782  0.00  0.00    +0.173 HD
BRANCH   8  10
ATOM     10  S   UNL     1       8.972   5.043  23.906  0.00  0.00    +0.040 S 
ATOM     11  O   UNL     1       8.602   4.384  25.141  0.00  0.00    -0.155 OA
ATOM     12  O   UNL     1       8.001   5.250  22.852  0.00  0.00    -0.155 OA
ATOM     13  C   UNL     1       9.722   6.606  24.327  0.00  0.00    +0.218 C 
ENDBRANCH   8  10
ENDBRANCH   5   8
ENDBRANCH   1   2
BRANCH   1  14
ATOM     14  O   UNL     1      10.819  -1.931  21.813  0.00  0.00    -0.387 OA
ATOM     15  H   UNL     1      11.485  -2.499  22.235  0.00  0.00    +0.210 HD
ENDBRANCH   1  14
BRANCH   1  16
ATOM     16  C   UNL     1       8.479  -2.009  22.484  0.00  0.00    +0.037 C 
BRANCH  16  17
ATOM     17  C   UNL     1       7.934  -2.966  23.551  0.00  0.00    +0.018 C 
BRANCH  17  18
ATOM     18  C   UNL     1       9.043  -3.672  24.346  0.00  0.00    +0.084 C 
BRANCH  18  19
ATOM     19  N   UNL     1       8.899  -3.597  25.810  0.00  0.00    -0.303 NA
BRANCH  19  20
ATOM     20  C   UNL     1       8.555  -4.913  26.380  0.00  0.00    +0.081 C 
ATOM     21  C   UNL     1       7.266  -4.986  27.195  0.00  0.00    +0.020 C 
ENDBRANCH  19  20
BRANCH  19  22
ATOM     22  C   UNL     1       7.992  -2.510  26.224  0.00  0.00    +0.084 C 
BRANCH  22  23
ATOM     23  C   UNL     1       8.723  -1.287  26.784  0.00  0.00    +0.015 C 
BRANCH  23  24
ATOM     24  C   UNL     1       7.792  -0.085  26.925  0.00  0.00    +0.001 C 
BRANCH  24  25
ATOM     25  C   UNL     1       6.845  -0.034  25.729  0.00  0.00    +0.000 C 
BRANCH  25  26
ATOM     26  C   UNL     1       6.986   1.263  24.942  0.00  0.00    -0.000 C 
BRANCH  26  28
ATOM     27  C   UNL     1       5.986   2.457  22.966  0.00  0.00    +0.004 C 
ATOM     28  C   UNL     1       6.368   1.111  23.553  0.00  0.00    -0.003 C 
ENDBRANCH  26  28
ENDBRANCH  25  26
ENDBRANCH  24  25
ENDBRANCH  23  24
ENDBRANCH  22  23
ENDBRANCH  19  22
ENDBRANCH  18  19
ENDBRANCH  17  18
ENDBRANCH  16  17
ENDBRANCH   1  16
TORSDOF 15
ENDMDL
MODEL 6
REMARK VINA RESULT:      -5.2      3.927      7.710
REMARK  Name = 
REMARK  18 active torsions:
REMARK  status: ('A' for Active; 'I' for Inactive)
REMARK    1  A    between atoms: C_1  and  C_2
REMARK    2  A    between atoms: C_2  and  C_3
REMARK    3  A    between atoms: C_3  and  C_4
REMARK    4  A    between atoms: C_4  and  C_5
REMARK    5  A    between atoms: C_5  and  C_6
REMARK    6  A    between atoms: C_6  and  C_7
REMARK    7  A    between atoms: C_7  and  N_8
REMARK    8  A    between atoms: N_8  and  C_9
REMARK    9  A    between atoms: N_8  and  C_11
REMARK   10  A    between atoms: C_9  and  C_10
REMARK   11  A    between atoms: C_11  and  C_12
REMARK   12  A    between atoms: C_12  and  C_13
REMARK   13  A    between atoms: C_13  and  C_14
REMARK   14  A    between atoms: C_14  and  O_15
REMARK   15  A    between atoms: C_14  and  C_16
REMARK   16  A    between atoms: C_19  and  N_20
REMARK   17  A    between atoms: N_20  and  S_21
REMARK   18  A    between atoms: S_21  and  C_22
REMARK                            x       y       z     vdW  Elec       q    Type
REMARK                         _______ _______ _______ _____ _____    ______ ____
ROOT
ATOM      1  C   UNL     1       9.476  -1.802  23.455  0.00  0.00    +0.145 C 
ENDROOT
BRANCH   1   2
ATOM      2  C   UNL     1       9.750  -0.317  23.341  0.00  0.00    -0.019 A 
ATOM      3  C   UNL     1       9.741   0.346  22.103  0.00  0.00    +0.008 A 
ATOM      4  C   UNL     1       9.942   1.728  22.033  0.00  0.00    +0.025 A 
ATOM      5  C   UNL     1      10.154   2.458  23.198  0.00  0.00    +0.048 A 
ATOM      6  C   UNL     1      10.207   1.812  24.430  0.00  0.00    +0.025 A 
ATOM      7  C   UNL     1      10.003   0.432  24.502  0.00  0.00    +0.008 A 
BRANCH   5   8
ATOM      8  N   UNL     1      10.340   3.869  23.145  0.00  0.00    -0.221 N 
ATOM      9  H   UNL     1      11.230   4.201  23.523  0.00  0.00    +0.173 HD
BRANCH   8  10
ATOM     10  S   UNL     1       9.094   4.847  23.735  0.00  0.00    +0.040 S 
ATOM     11  O   UNL     1       9.419   6.190  23.299  0.00  0.00    -0.155 OA
ATOM     12  O   UNL     1       8.849   4.555  25.131  0.00  0.00    -0.155 OA
ATOM     13  C   UNL     1       7.709   4.281  22.765  0.00  0.00    +0.218 C 
ENDBRANCH   8  10
ENDBRANCH   5   8
ENDBRANCH   1   2
BRANCH   1  14
ATOM     14  O   UNL     1      10.641  -2.527  23.067  0.00  0.00    -0.387 OA
ATOM     15  H   UNL     1      11.402  -2.112  23.507  0.00  0.00    +0.210 HD
ENDBRANCH   1  14
BRANCH   1  16
ATOM     16  C   UNL     1       8.265  -2.237  22.617  0.00  0.00    +0.037 C 
BRANCH  16  17
ATOM     17  C   UNL     1       7.008  -2.398  23.480  0.00  0.00    +0.018 C 
BRANCH  17  18
ATOM     18  C   UNL     1       6.080  -3.518  22.983  0.00  0.00    +0.084 C 
BRANCH  18  19
ATOM     19  N   UNL     1       6.482  -4.877  23.384  0.00  0.00    -0.303 NA
BRANCH  19  20
ATOM     20  C   UNL     1       7.108  -5.600  22.261  0.00  0.00    +0.081 C 
ATOM     21  C   UNL     1       6.262  -5.760  20.999  0.00  0.00    +0.020 C 
ENDBRANCH  19  20
BRANCH  19  22
ATOM     22  C   UNL     1       5.382  -5.615  24.032  0.00  0.00    +0.084 C 
BRANCH  22  23
ATOM     23  C   UNL     1       5.637  -5.913  25.512  0.00  0.00    +0.015 C 
BRANCH  23  24
ATOM     24  C   UNL     1       5.209  -4.750  26.405  0.00  0.00    +0.001 C 
BRANCH  24  25
ATOM     25  C   UNL     1       6.448  -4.076  26.989  0.00  0.00    +0.000 C 
BRANCH  25  26
ATOM     26  C   UNL     1       7.671  -4.983  26.936  0.00  0.00    -0.000 C 
BRANCH  26  28
ATOM     27  C   UNL     1       9.598  -5.103  25.324  0.00  0.00    +0.004 C 
ATOM     28  C   UNL     1       8.857  -4.237  26.325  0.00  0.00    -0.003 C 
ENDBRANCH  26  28
ENDBRANCH  25  26
ENDBRANCH  24  25
ENDBRANCH  23  24
ENDBRANCH  22  23
ENDBRANCH  19  22
ENDBRANCH  18  19
ENDBRANCH  17  18
ENDBRANCH  16  17
ENDBRANCH   1  16
TORSDOF 15
ENDMDL
MODEL 7
REMARK VINA RESULT:      -5.1      3.199      5.362
REMARK  Name = 
REMARK  18 active torsions:
REMARK  status: ('A' for Active; 'I' for Inactive)
REMARK    1  A    between atoms: C_1  and  C_2
REMARK    2  A    between atoms: C_2  and  C_3
REMARK    3  A    between atoms: C_3  and  C_4
REMARK    4  A    between atoms: C_4  and  C_5
REMARK    5  A    between atoms: C_5  and  C_6
REMARK    6  A    between atoms: C_6  and  C_7
REMARK    7  A    between atoms: C_7  and  N_8
REMARK    8  A    between atoms: N_8  and  C_9
REMARK    9  A    between atoms: N_8  and  C_11
REMARK   10  A    between atoms: C_9  and  C_10
REMARK   11  A    between atoms: C_11  and  C_12
REMARK   12  A    between atoms: C_12  and  C_13
REMARK   13  A    between atoms: C_13  and  C_14
REMARK   14  A    between atoms: C_14  and  O_15
REMARK   15  A    between atoms: C_14  and  C_16
REMARK   16  A    between atoms: C_19  and  N_20
REMARK   17  A    between atoms: N_20  and  S_21
REMARK   18  A    between atoms: S_21  and  C_22
REMARK                            x       y       z     vdW  Elec       q    Type
REMARK                         _______ _______ _______ _____ _____    ______ ____
ROOT
ATOM      1  C   UNL     1       8.785  -4.600  24.418  0.00  0.00    +0.145 C 
ENDROOT
BRANCH   1   2
ATOM      2  C   UNL     1       7.395  -5.075  24.047  0.00  0.00    -0.019 A 
ATOM      3  C   UNL     1       6.320  -4.997  24.948  0.00  0.00    +0.008 A 
ATOM      4  C   UNL     1       5.035  -5.390  24.561  0.00  0.00    +0.025 A 
ATOM      5  C   UNL     1       4.815  -5.865  23.272  0.00  0.00    +0.048 A 
ATOM      6  C   UNL     1       5.875  -5.988  22.379  0.00  0.00    +0.025 A 
ATOM      7  C   UNL     1       7.158  -5.591  22.763  0.00  0.00    +0.008 A 
BRANCH   5   8
ATOM      8  N   UNL     1       3.508  -6.250  22.856  0.00  0.00    -0.221 N 
ATOM      9  H   UNL     1       2.930  -5.489  22.493  0.00  0.00    +0.173 HD
BRANCH   8  10
ATOM     10  S   UNL     1       2.586  -7.178  23.926  0.00  0.00    +0.040 S 
ATOM     11  O   UNL     1       1.852  -6.223  24.731  0.00  0.00    -0.155 OA
ATOM     12  O   UNL     1       3.411  -8.195  24.543  0.00  0.00    -0.155 OA
ATOM     13  C   UNL     1       1.428  -7.956  22.815  0.00  0.00    +0.218 C 
ENDBRANCH   8  10
ENDBRANCH   5   8
ENDBRANCH   1   2
BRANCH   1  14
ATOM     14  O   UNL     1       9.604  -5.729  24.714  0.00  0.00    -0.387 OA
ATOM     15  H   UNL     1       9.346  -6.444  24.108  0.00  0.00    +0.210 HD
ENDBRANCH   1  14
BRANCH   1  16
ATOM     16  C   UNL     1       8.770  -3.619  25.599  0.00  0.00    +0.037 C 
BRANCH  16  17
ATOM     17  C   UNL     1       9.230  -2.219  25.177  0.00  0.00    +0.018 C 
BRANCH  17  18
ATOM     18  C   UNL     1       9.700  -2.157  23.715  0.00  0.00    +0.084 C 
BRANCH  18  19
ATOM     19  N   UNL     1       8.957  -1.209  22.867  0.00  0.00    -0.303 NA
BRANCH  19  20
ATOM     20  C   UNL     1       7.737  -1.829  22.319  0.00  0.00    +0.081 C 
ATOM     21  C   UNL     1       6.442  -1.578  23.089  0.00  0.00    +0.020 C 
ENDBRANCH  19  20
BRANCH  19  22
ATOM     22  C   UNL     1       9.819  -0.580  21.848  0.00  0.00    +0.084 C 
BRANCH  22  23
ATOM     23  C   UNL     1       9.851   0.947  21.936  0.00  0.00    +0.015 C 
BRANCH  23  24
ATOM     24  C   UNL     1       9.773   1.433  23.382  0.00  0.00    +0.001 C 
BRANCH  24  25
ATOM     25  C   UNL     1      10.643   2.677  23.547  0.00  0.00    +0.000 C 
BRANCH  25  26
ATOM     26  C   UNL     1       9.809   3.942  23.700  0.00  0.00    -0.000 C 
BRANCH  26  28
ATOM     27  C   UNL     1      12.119   4.859  23.315  0.00  0.00    +0.004 C 
ATOM     28  C   UNL     1      10.716   5.167  23.804  0.00  0.00    -0.003 C 
ENDBRANCH  26  28
ENDBRANCH  25  26
ENDBRANCH  24  25
ENDBRANCH  23  24
ENDBRANCH  22  23
ENDBRANCH  19  22
ENDBRANCH  18  19
ENDBRANCH  17  18
ENDBRANCH  16  17
ENDBRANCH   1  16
TORSDOF 15
ENDMDL
MODEL 8
REMARK VINA RESULT:      -5.0      4.146      8.016
REMARK  Name = 
REMARK  18 active torsions:
REMARK  status: ('A' for Active; 'I' for Inactive)
REMARK    1  A    between atoms: C_1  and  C_2
REMARK    2  A    between atoms: C_2  and  C_3
REMARK    3  A    between atoms: C_3  and  C_4
REMARK    4  A    between atoms: C_4  and  C_5
REMARK    5  A    between atoms: C_5  and  C_6
REMARK    6  A    between atoms: C_6  and  C_7
REMARK    7  A    between atoms: C_7  and  N_8
REMARK    8  A    between atoms: N_8  and  C_9
REMARK    9  A    between atoms: N_8  and  C_11
REMARK   10  A    between atoms: C_9  and  C_10
REMARK   11  A    between atoms: C_11  and  C_12
REMARK   12  A    between atoms: C_12  and  C_13
REMARK   13  A    between atoms: C_13  and  C_14
REMARK   14  A    between atoms: C_14  and  O_15
REMARK   15  A    between atoms: C_14  and  C_16
REMARK   16  A    between atoms: C_19  and  N_20
REMARK   17  A    between atoms: N_20  and  S_21
REMARK   18  A    between atoms: S_21  and  C_22
REMARK                            x       y       z     vdW  Elec       q    Type
REMARK                         _______ _______ _______ _____ _____    ______ ____
ROOT
ATOM      1  C   UNL     1       9.378  -1.489  22.744  0.00  0.00    +0.145 C 
ENDROOT
BRANCH   1   2
ATOM      2  C   UNL     1       9.615  -0.008  22.959  0.00  0.00    -0.019 A 
ATOM      3  C   UNL     1      10.525   0.465  23.918  0.00  0.00    +0.008 A 
ATOM      4  C   UNL     1      10.766   1.836  24.058  0.00  0.00    +0.025 A 
ATOM      5  C   UNL     1      10.097   2.743  23.242  0.00  0.00    +0.048 A 
ATOM      6  C   UNL     1       9.161   2.295  22.315  0.00  0.00    +0.025 A 
ATOM      7  C   UNL     1       8.923   0.927  22.171  0.00  0.00    +0.008 A 
BRANCH   5   8
ATOM      8  N   UNL     1      10.346   4.142  23.358  0.00  0.00    -0.221 N 
ATOM      9  H   UNL     1      11.237   4.385  23.796  0.00  0.00    +0.173 HD
BRANCH   8  10
ATOM     10  S   UNL     1       9.126   5.102  24.024  0.00  0.00    +0.040 S 
ATOM     11  O   UNL     1       8.689   4.400  25.214  0.00  0.00    -0.155 OA
ATOM     12  O   UNL     1       8.181   5.491  23.000  0.00  0.00    -0.155 OA
ATOM     13  C   UNL     1      10.048   6.536  24.548  0.00  0.00    +0.218 C 
ENDBRANCH   8  10
ENDBRANCH   5   8
ENDBRANCH   1   2
BRANCH   1  14
ATOM     14  O   UNL     1       9.998  -1.892  21.525  0.00  0.00    -0.387 OA
ATOM     15  H   UNL     1      10.556  -1.155  21.223  0.00  0.00    +0.210 HD
ENDBRANCH   1  14
BRANCH   1  16
ATOM     16  C   UNL     1       7.885  -1.845  22.736  0.00  0.00    +0.037 C 
BRANCH  16  17
ATOM     17  C   UNL     1       7.654  -3.310  22.348  0.00  0.00    +0.018 C 
BRANCH  17  18
ATOM     18  C   UNL     1       6.453  -3.940  23.072  0.00  0.00    +0.084 C 
BRANCH  18  19
ATOM     19  N   UNL     1       6.760  -5.165  23.830  0.00  0.00    -0.303 NA
BRANCH  19  20
ATOM     20  C   UNL     1       5.741  -5.420  24.864  0.00  0.00    +0.081 C 
ATOM     21  C   UNL     1       4.715  -6.509  24.554  0.00  0.00    +0.020 C 
ENDBRANCH  19  20
BRANCH  19  22
ATOM     22  C   UNL     1       8.145  -5.172  24.339  0.00  0.00    +0.084 C 
BRANCH  22  23
ATOM     23  C   UNL     1       8.241  -4.919  25.846  0.00  0.00    +0.015 C 
BRANCH  23  24
ATOM     24  C   UNL     1       8.827  -3.543  26.153  0.00  0.00    +0.001 C 
BRANCH  24  25
ATOM     25  C   UNL     1       7.695  -2.561  26.441  0.00  0.00    +0.000 C 
BRANCH  25  26
ATOM     26  C   UNL     1       8.177  -1.117  26.449  0.00  0.00    -0.000 C 
BRANCH  26  28
ATOM     27  C   UNL     1       7.528   1.260  25.939  0.00  0.00    +0.004 C 
ATOM     28  C   UNL     1       7.105  -0.196  25.869  0.00  0.00    -0.003 C 
ENDBRANCH  26  28
ENDBRANCH  25  26
ENDBRANCH  24  25
ENDBRANCH  23  24
ENDBRANCH  22  23
ENDBRANCH  19  22
ENDBRANCH  18  19
ENDBRANCH  17  18
ENDBRANCH  16  17
ENDBRANCH   1  16
TORSDOF 15
ENDMDL
MODEL 9
REMARK VINA RESULT:      -5.0      3.449      5.229
REMARK  Name = 
REMARK  18 active torsions:
REMARK  status: ('A' for Active; 'I' for Inactive)
REMARK    1  A    between atoms: C_1  and  C_2
REMARK    2  A    between atoms: C_2  and  C_3
REMARK    3  A    between atoms: C_3  and  C_4
REMARK    4  A    between atoms: C_4  and  C_5
REMARK    5  A    between atoms: C_5  and  C_6
REMARK    6  A    between atoms: C_6  and  C_7
REMARK    7  A    between atoms: C_7  and  N_8
REMARK    8  A    between atoms: N_8  and  C_9
REMARK    9  A    between atoms: N_8  and  C_11
REMARK   10  A    between atoms: C_9  and  C_10
REMARK   11  A    between atoms: C_11  and  C_12
REMARK   12  A    between atoms: C_12  and  C_13
REMARK   13  A    between atoms: C_13  and  C_14
REMARK   14  A    between atoms: C_14  and  O_15
REMARK   15  A    between atoms: C_14  and  C_16
REMARK   16  A    between atoms: C_19  and  N_20
REMARK   17  A    between atoms: N_20  and  S_21
REMARK   18  A    between atoms: S_21  and  C_22
REMARK                            x       y       z     vdW  Elec       q    Type
REMARK                         _______ _______ _______ _____ _____    ______ ____
ROOT
ATOM      1  C   UNL     1      10.637   0.610  23.734  0.00  0.00    +0.145 C 
ENDROOT
BRANCH   1   2
ATOM      2  C   UNL     1       9.768  -0.598  23.452  0.00  0.00    -0.019 A 
ATOM      3  C   UNL     1       9.258  -0.861  22.170  0.00  0.00    +0.008 A 
ATOM      4  C   UNL     1       8.505  -2.013  21.925  0.00  0.00    +0.025 A 
ATOM      5  C   UNL     1       8.253  -2.910  22.959  0.00  0.00    +0.048 A 
ATOM      6  C   UNL     1       8.714  -2.645  24.245  0.00  0.00    +0.025 A 
ATOM      7  C   UNL     1       9.471  -1.497  24.490  0.00  0.00    +0.008 A 
BRANCH   5   8
ATOM      8  N   UNL     1       7.504  -4.098  22.720  0.00  0.00    -0.221 N 
ATOM      9  H   UNL     1       7.906  -4.728  22.023  0.00  0.00    +0.173 HD
BRANCH   8  10
ATOM     10  S   UNL     1       5.848  -3.935  22.423  0.00  0.00    +0.040 S 
ATOM     11  O   UNL     1       5.722  -3.845  20.983  0.00  0.00    -0.155 OA
ATOM     12  O   UNL     1       5.284  -2.919  23.286  0.00  0.00    -0.155 OA
ATOM     13  C   UNL     1       5.238  -5.534  22.923  0.00  0.00    +0.218 C 
ENDBRANCH   8  10
ENDBRANCH   5   8
ENDBRANCH   1   2
BRANCH   1  14
ATOM     14  O   UNL     1      10.611   0.892  25.132  0.00  0.00    -0.387 OA
ATOM     15  H   UNL     1      11.335   1.514  25.317  0.00  0.00    +0.210 HD
ENDBRANCH   1  14
BRANCH   1  16
ATOM     16  C   UNL     1      10.204   1.841  22.926  0.00  0.00    +0.037 C 
BRANCH  16  17
ATOM     17  C   UNL     1      10.638   3.145  23.604  0.00  0.00    +0.018 C 
BRANCH  17  18
ATOM     18  C   UNL     1       9.452   3.971  24.128  0.00  0.00    +0.084 C 
BRANCH  18  19
ATOM     19  N   UNL     1       8.986   5.032  23.218  0.00  0.00    -0.303 NA
BRANCH  19  20
ATOM     20  C   UNL     1       9.503   6.350  23.629  0.00  0.00    +0.081 C 
ATOM     21  C   UNL     1       9.877   6.506  25.101  0.00  0.00    +0.020 C 
ENDBRANCH  19  20
BRANCH  19  22
ATOM     22  C   UNL     1       7.525   4.995  23.023  0.00  0.00    +0.084 C 
BRANCH  22  23
ATOM     23  C   UNL     1       7.056   3.826  22.153  0.00  0.00    +0.015 C 
BRANCH  23  24
ATOM     24  C   UNL     1       6.092   2.911  22.905  0.00  0.00    +0.001 C 
BRANCH  24  25
ATOM     25  C   UNL     1       6.576   1.467  22.799  0.00  0.00    +0.000 C 
BRANCH  25  26
ATOM     26  C   UNL     1       6.371   0.697  24.097  0.00  0.00    -0.000 C 
BRANCH  26  28
ATOM     27  C   UNL     1       7.169   0.508  26.475  0.00  0.00    +0.004 C 
ATOM     28  C   UNL     1       7.093   1.396  25.248  0.00  0.00    -0.003 C 
ENDBRANCH  26  28
ENDBRANCH  25  26
ENDBRANCH  24  25
ENDBRANCH  23  24
ENDBRANCH  22  23
ENDBRANCH  19  22
ENDBRANCH  18  19
ENDBRANCH  17  18
ENDBRANCH  16  17
ENDBRANCH   1  16
TORSDOF 15
ENDMDL
