MODEL 1
REMARK VINA RESULT:      -8.0      0.000      0.000
REMARK  Name = 
REMARK  6 active torsions:
REMARK  status: ('A' for Active; 'I' for Inactive)
REMARK    1  A    between atoms: C_2  and  O_32
REMARK    2  A    between atoms: C_5  and  C_9
REMARK    3  A    between atoms: N_11  and  C_12
REMARK    4  A    between atoms: C_14  and  C_18
REMARK    5  A    between atoms: N_21  and  C_22
REMARK    6  A    between atoms: O_32  and  C_33
REMARK                            x       y       z     vdW  Elec       q    Type
REMARK                         _______ _______ _______ _____ _____    ______ ____
ROOT
ATOM      1  C   UNL     1       8.761  -1.501  24.036  0.00  0.00    +0.125 A 
ATOM      2  N   UNL     1       9.889  -1.378  24.747  0.00  0.00    -0.240 NA
ATOM      3  C   UNL     1      10.381  -0.144  24.966  0.00  0.00    +0.113 A 
ATOM      4  C   UNL     1       9.778   1.018  24.519  0.00  0.00    +0.028 A 
ATOM      5  C   UNL     1       8.596   0.916  23.786  0.00  0.00    -0.013 A 
ATOM      6  C   UNL     1       8.106  -0.386  23.535  0.00  0.00    +0.052 A 
ENDROOT
BRANCH   5   7
ATOM      7  C   UNL     1       7.887   2.099  23.247  0.00  0.00    -0.013 A 
ATOM      8  C   UNL     1       6.508   2.146  23.037  0.00  0.00    +0.028 A 
ATOM      9  C   UNL     1       5.925   3.354  22.674  0.00  0.00    +0.113 A 
ATOM     10  N   UNL     1       6.601   4.521  22.566  0.00  0.00    -0.240 NA
ATOM     11  C   UNL     1       7.928   4.477  22.769  0.00  0.00    +0.123 A 
ATOM     12  N   UNL     1       8.643   5.688  22.779  0.00  0.00    -0.299 N 
ATOM     13  H   UNL     1       7.968   6.439  22.648  0.00  0.00    +0.154 HD
ATOM     14  C   UNL     1       8.594   3.280  23.002  0.00  0.00    +0.052 A 
BRANCH  12  15
ATOM     15  C   UNL     1       9.689   6.056  23.656  0.00  0.00    +0.033 A 
ATOM     16  C   UNL     1       9.476   6.770  24.850  0.00  0.00    +0.026 A 
ATOM     17  C   UNL     1      10.544   7.108  25.686  0.00  0.00    +0.040 A 
ATOM     18  C   UNL     1      11.834   6.752  25.320  0.00  0.00    +0.124 A 
ATOM     19  F   UNL     1      12.860   7.079  26.117  0.00  0.00    -0.205 F 
ATOM     20  C   UNL     1      12.075   6.066  24.137  0.00  0.00    +0.040 A 
ATOM     21  C   UNL     1      11.004   5.725  23.305  0.00  0.00    +0.026 A 
ENDBRANCH  12  15
ENDBRANCH   5   7
BRANCH   1  23
ATOM     22  C   UNL     1       7.555  -3.526  24.739  0.00  0.00    +0.221 C 
ATOM     23  N   UNL     1       8.202  -2.765  23.785  0.00  0.00    -0.270 N 
ATOM     24  H   UNL     1       8.288  -3.136  22.848  0.00  0.00    +0.156 HD
ATOM     25  O   UNL     1       7.456  -3.226  25.926  0.00  0.00    -0.275 OA
BRANCH  22  29
ATOM     26  C   UNL     1       4.283  -4.412  23.016  0.00  0.00    +0.118 C 
ATOM     27  C   UNL     1       5.575  -4.039  22.277  0.00  0.00    +0.032 C 
ATOM     28  C   UNL     1       6.753  -4.913  22.709  0.00  0.00    +0.015 C 
ATOM     29  C   UNL     1       6.991  -4.863  24.226  0.00  0.00    +0.076 C 
ATOM     30  C   UNL     1       5.685  -5.209  24.974  0.00  0.00    +0.015 C 
ATOM     31  C   UNL     1       4.505  -4.332  24.530  0.00  0.00    +0.032 C 
BRANCH  26  32
ATOM     32  O   UNL     1       3.855  -5.751  22.742  0.00  0.00    -0.380 OA
ATOM     33  C   UNL     1       2.529  -6.043  23.146  0.00  0.00    +0.194 C 
ENDBRANCH  26  32
ENDBRANCH  22  29
ENDBRANCH   1  23
TORSDOF 5
ENDMDL
MODEL 2
REMARK VINA RESULT:      -7.8      2.890      4.188
REMARK  Name = 
REMARK  6 active torsions:
REMARK  status: ('A' for Active; 'I' for Inactive)
REMARK    1  A    between atoms: C_2  and  O_32
REMARK    2  A    between atoms: C_5  and  C_9
REMARK    3  A    between atoms: N_11  and  C_12
REMARK    4  A    between atoms: C_14  and  C_18
REMARK    5  A    between atoms: N_21  and  C_22
REMARK    6  A    between atoms: O_32  and  C_33
REMARK                            x       y       z     vdW  Elec       q    Type
REMARK                         _______ _______ _______ _____ _____    ______ ____
ROOT
ATOM      1  C   UNL     1       8.917  -0.099  23.781  0.00  0.00    +0.125 A 
ATOM      2  N   UNL     1       8.865  -0.497  22.504  0.00  0.00    -0.240 NA
ATOM      3  C   UNL     1       9.278   0.354  21.546  0.00  0.00    +0.113 A 
ATOM      4  C   UNL     1       9.779   1.618  21.801  0.00  0.00    +0.028 A 
ATOM      5  C   UNL     1       9.852   2.052  23.125  0.00  0.00    -0.013 A 
ATOM      6  C   UNL     1       9.387   1.161  24.119  0.00  0.00    +0.052 A 
ENDROOT
BRANCH   5   7
ATOM      7  C   UNL     1      10.353   3.394  23.498  0.00  0.00    -0.013 A 
ATOM      8  C   UNL     1      11.676   3.803  23.322  0.00  0.00    +0.028 A 
ATOM      9  C   UNL     1      12.005   5.132  23.562  0.00  0.00    +0.113 A 
ATOM     10  N   UNL     1      11.109   6.086  23.902  0.00  0.00    -0.240 NA
ATOM     11  C   UNL     1       9.835   5.694  24.069  0.00  0.00    +0.123 A 
ATOM     12  N   UNL     1       8.859   6.678  24.309  0.00  0.00    -0.299 N 
ATOM     13  H   UNL     1       9.327   7.581  24.281  0.00  0.00    +0.154 HD
ATOM     14  C   UNL     1       9.462   4.359  23.978  0.00  0.00    +0.052 A 
BRANCH  12  15
ATOM     15  C   UNL     1       7.552   6.734  23.769  0.00  0.00    +0.033 A 
ATOM     16  C   UNL     1       6.396   6.473  24.527  0.00  0.00    +0.026 A 
ATOM     17  C   UNL     1       5.126   6.543  23.948  0.00  0.00    +0.040 A 
ATOM     18  C   UNL     1       5.008   6.855  22.601  0.00  0.00    +0.124 A 
ATOM     19  F   UNL     1       3.792   6.919  22.043  0.00  0.00    -0.205 F 
ATOM     20  C   UNL     1       6.134   7.096  21.826  0.00  0.00    +0.040 A 
ATOM     21  C   UNL     1       7.403   7.030  22.408  0.00  0.00    +0.026 A 
ENDBRANCH  12  15
ENDBRANCH   5   7
BRANCH   1  23
ATOM     22  C   UNL     1       9.022  -2.214  25.033  0.00  0.00    +0.221 C 
ATOM     23  N   UNL     1       8.504  -0.951  24.820  0.00  0.00    -0.270 N 
ATOM     24  H   UNL     1       7.780  -0.615  25.439  0.00  0.00    +0.156 HD
ATOM     25  O   UNL     1       9.843  -2.767  24.306  0.00  0.00    -0.275 OA
BRANCH  22  29
ATOM     26  C   UNL     1       7.071  -5.462  25.349  0.00  0.00    +0.118 C 
ATOM     27  C   UNL     1       8.599  -5.360  25.441  0.00  0.00    +0.032 C 
ATOM     28  C   UNL     1       9.041  -4.345  26.497  0.00  0.00    +0.015 C 
ATOM     29  C   UNL     1       8.443  -2.952  26.253  0.00  0.00    +0.076 C 
ATOM     30  C   UNL     1       6.908  -3.054  26.131  0.00  0.00    +0.015 C 
ATOM     31  C   UNL     1       6.471  -4.080  25.074  0.00  0.00    +0.032 C 
BRANCH  26  32
ATOM     32  O   UNL     1       6.474  -5.926  26.566  0.00  0.00    -0.380 OA
ATOM     33  C   UNL     1       5.148  -6.408  26.428  0.00  0.00    +0.194 C 
ENDBRANCH  26  32
ENDBRANCH  22  29
ENDBRANCH   1  23
TORSDOF 5
ENDMDL
MODEL 3
REMARK VINA RESULT:      -7.7      2.087      2.678
REMARK  Name = 
REMARK  6 active torsions:
REMARK  status: ('A' for Active; 'I' for Inactive)
REMARK    1  A    between atoms: C_2  and  O_32
REMARK    2  A    between atoms: C_5  and  C_9
REMARK    3  A    between atoms: N_11  and  C_12
REMARK    4  A    between atoms: C_14  and  C_18
REMARK    5  A    between atoms: N_21  and  C_22
REMARK    6  A    between atoms: O_32  and  C_33
REMARK                            x       y       z     vdW  Elec       q    Type
REMARK                         _______ _______ _______ _____ _____    ______ ____
ROOT
ATOM      1  C   UNL     1       8.285  -1.234  22.605  0.00  0.00    +0.125 A 
ATOM      2  N   UNL     1       9.317  -0.970  21.795  0.00  0.00    -0.240 NA
ATOM      3  C   UNL     1       9.559   0.311  21.457  0.00  0.00    +0.113 A 
ATOM      4  C   UNL     1       8.818   1.383  21.918  0.00  0.00    +0.028 A 
ATOM      5  C   UNL     1       7.744   1.134  22.772  0.00  0.00    -0.013 A 
ATOM      6  C   UNL     1       7.480  -0.216  23.094  0.00  0.00    +0.052 A 
ENDROOT
BRANCH   5   7
ATOM      7  C   UNL     1       6.878   2.212  23.301  0.00  0.00    -0.013 A 
ATOM      8  C   UNL     1       5.636   1.986  23.897  0.00  0.00    +0.028 A 
ATOM      9  C   UNL     1       4.976   3.051  24.497  0.00  0.00    +0.113 A 
ATOM     10  N   UNL     1       5.485   4.300  24.600  0.00  0.00    -0.240 NA
ATOM     11  C   UNL     1       6.681   4.518  24.028  0.00  0.00    +0.123 A 
ATOM     12  N   UNL     1       7.292   5.771  24.215  0.00  0.00    -0.299 N 
ATOM     13  H   UNL     1       6.683   6.317  24.821  0.00  0.00    +0.154 HD
ATOM     14  C   UNL     1       7.334   3.534  23.296  0.00  0.00    +0.052 A 
BRANCH  12  15
ATOM     15  C   UNL     1       8.662   6.026  24.463  0.00  0.00    +0.033 A 
ATOM     16  C   UNL     1       9.680   5.717  23.542  0.00  0.00    +0.026 A 
ATOM     17  C   UNL     1      11.019   5.990  23.833  0.00  0.00    +0.040 A 
ATOM     18  C   UNL     1      11.349   6.554  25.057  0.00  0.00    +0.124 A 
ATOM     19  F   UNL     1      12.632   6.813  25.340  0.00  0.00    -0.205 F 
ATOM     20  C   UNL     1      10.366   6.849  25.992  0.00  0.00    +0.040 A 
ATOM     21  C   UNL     1       9.026   6.579  25.697  0.00  0.00    +0.026 A 
ENDBRANCH  12  15
ENDBRANCH   5   7
BRANCH   1  23
ATOM     22  C   UNL     1       8.850  -3.349  23.727  0.00  0.00    +0.221 C 
ATOM     23  N   UNL     1       7.993  -2.553  22.994  0.00  0.00    -0.270 N 
ATOM     24  H   UNL     1       7.102  -2.937  22.709  0.00  0.00    +0.156 HD
ATOM     25  O   UNL     1       9.988  -3.031  24.063  0.00  0.00    -0.275 OA
BRANCH  22  29
ATOM     26  C   UNL     1       7.100  -4.714  26.815  0.00  0.00    +0.118 C 
ATOM     27  C   UNL     1       6.373  -4.117  25.603  0.00  0.00    +0.032 C 
ATOM     28  C   UNL     1       6.785  -4.798  24.297  0.00  0.00    +0.015 C 
ATOM     29  C   UNL     1       8.302  -4.747  24.067  0.00  0.00    +0.076 C 
ATOM     30  C   UNL     1       9.039  -5.320  25.297  0.00  0.00    +0.015 C 
ATOM     31  C   UNL     1       8.615  -4.637  26.605  0.00  0.00    +0.032 C 
BRANCH  26  32
ATOM     32  O   UNL     1       6.791  -6.097  27.019  0.00  0.00    -0.380 OA
ATOM     33  C   UNL     1       5.454  -6.354  27.413  0.00  0.00    +0.194 C 
ENDBRANCH  26  32
ENDBRANCH  22  29
ENDBRANCH   1  23
TORSDOF 5
ENDMDL
MODEL 4
REMARK VINA RESULT:      -7.5      4.629     10.271
REMARK  Name = 
REMARK  6 active torsions:
REMARK  status: ('A' for Active; 'I' for Inactive)
REMARK    1  A    between atoms: C_2  and  O_32
REMARK    2  A    between atoms: C_5  and  C_9
REMARK    3  A    between atoms: N_11  and  C_12
REMARK    4  A    between atoms: C_14  and  C_18
REMARK    5  A    between atoms: N_21  and  C_22
REMARK    6  A    between atoms: O_32  and  C_33
REMARK                            x       y       z     vdW  Elec       q    Type
REMARK                         _______ _______ _______ _____ _____    ______ ____
ROOT
ATOM      1  C   UNL     1       8.973  -3.063  24.721  0.00  0.00    +0.125 A 
ATOM      2  N   UNL     1       9.456  -4.287  24.477  0.00  0.00    -0.240 NA
ATOM      3  C   UNL     1       8.764  -5.353  24.920  0.00  0.00    +0.113 A 
ATOM      4  C   UNL     1       7.561  -5.264  25.598  0.00  0.00    +0.028 A 
ATOM      5  C   UNL     1       7.032  -4.000  25.855  0.00  0.00    -0.013 A 
ATOM      6  C   UNL     1       7.783  -2.888  25.413  0.00  0.00    +0.052 A 
ENDROOT
BRANCH   5   7
ATOM      7  C   UNL     1       5.763  -3.801  26.591  0.00  0.00    -0.013 A 
ATOM      8  C   UNL     1       5.486  -2.672  27.365  0.00  0.00    +0.028 A 
ATOM      9  C   UNL     1       4.208  -2.515  27.887  0.00  0.00    +0.113 A 
ATOM     10  N   UNL     1       3.179  -3.360  27.647  0.00  0.00    -0.240 NA
ATOM     11  C   UNL     1       3.445  -4.446  26.901  0.00  0.00    +0.123 A 
ATOM     12  N   UNL     1       2.376  -5.283  26.535  0.00  0.00    -0.299 N 
ATOM     13  H   UNL     1       1.524  -4.866  26.907  0.00  0.00    +0.154 HD
ATOM     14  C   UNL     1       4.730  -4.735  26.460  0.00  0.00    +0.052 A 
BRANCH  12  15
ATOM     15  C   UNL     1       2.166  -5.902  25.281  0.00  0.00    +0.033 A 
ATOM     16  C   UNL     1       1.797  -5.190  24.124  0.00  0.00    +0.026 A 
ATOM     17  C   UNL     1       1.603  -5.848  22.907  0.00  0.00    +0.040 A 
ATOM     18  C   UNL     1       1.756  -7.225  22.844  0.00  0.00    +0.124 A 
ATOM     19  F   UNL     1       1.566  -7.858  21.679  0.00  0.00    -0.205 F 
ATOM     20  C   UNL     1       2.099  -7.954  23.975  0.00  0.00    +0.040 A 
ATOM     21  C   UNL     1       2.297  -7.294  25.191  0.00  0.00    +0.026 A 
ENDBRANCH  12  15
ENDBRANCH   5   7
BRANCH   1  23
ATOM     22  C   UNL     1       9.526  -1.391  23.004  0.00  0.00    +0.221 C 
ATOM     23  N   UNL     1       9.653  -1.917  24.275  0.00  0.00    -0.270 N 
ATOM     24  H   UNL     1      10.275  -1.460  24.927  0.00  0.00    +0.156 HD
ATOM     25  O   UNL     1       8.869  -1.897  22.098  0.00  0.00    -0.275 OA
BRANCH  22  29
ATOM     26  C   UNL     1       8.729   2.283  23.577  0.00  0.00    +0.118 C 
ATOM     27  C   UNL     1       9.427   1.380  24.603  0.00  0.00    +0.032 C 
ATOM     28  C   UNL     1      10.664   0.699  24.016  0.00  0.00    +0.015 C 
ATOM     29  C   UNL     1      10.340  -0.109  22.751  0.00  0.00    +0.076 C 
ATOM     30  C   UNL     1       9.611   0.788  21.727  0.00  0.00    +0.015 C 
ATOM     31  C   UNL     1       8.374   1.474  22.326  0.00  0.00    +0.032 C 
BRANCH  26  32
ATOM     32  O   UNL     1       9.558   3.364  23.137  0.00  0.00    -0.380 OA
ATOM     33  C   UNL     1       9.575   4.487  24.000  0.00  0.00    +0.194 C 
ENDBRANCH  26  32
ENDBRANCH  22  29
ENDBRANCH   1  23
TORSDOF 5
ENDMDL
MODEL 5
REMARK VINA RESULT:      -7.2      3.921      5.667
REMARK  Name = 
REMARK  6 active torsions:
REMARK  status: ('A' for Active; 'I' for Inactive)
REMARK    1  A    between atoms: C_2  and  O_32
REMARK    2  A    between atoms: C_5  and  C_9
REMARK    3  A    between atoms: N_11  and  C_12
REMARK    4  A    between atoms: C_14  and  C_18
REMARK    5  A    between atoms: N_21  and  C_22
REMARK    6  A    between atoms: O_32  and  C_33
REMARK                            x       y       z     vdW  Elec       q    Type
REMARK                         _______ _______ _______ _____ _____    ______ ____
ROOT
ATOM      1  C   UNL     1       8.482  -1.282  22.813  0.00  0.00    +0.125 A 
ATOM      2  N   UNL     1       9.065  -1.031  21.635  0.00  0.00    -0.240 NA
ATOM      3  C   UNL     1       9.442   0.231  21.358  0.00  0.00    +0.113 A 
ATOM      4  C   UNL     1       9.285   1.292  22.231  0.00  0.00    +0.028 A 
ATOM      5  C   UNL     1       8.690   1.054  23.469  0.00  0.00    -0.013 A 
ATOM      6  C   UNL     1       8.270  -0.269  23.737  0.00  0.00    +0.052 A 
ENDROOT
BRANCH   5   7
ATOM      7  C   UNL     1       8.459   2.127  24.463  0.00  0.00    -0.013 A 
ATOM      8  C   UNL     1       8.776   3.469  24.242  0.00  0.00    +0.028 A 
ATOM      9  C   UNL     1       8.377   4.415  25.178  0.00  0.00    +0.113 A 
ATOM     10  N   UNL     1       7.639   4.134  26.276  0.00  0.00    -0.240 NA
ATOM     11  C   UNL     1       7.332   2.843  26.488  0.00  0.00    +0.123 A 
ATOM     12  N   UNL     1       6.471   2.528  27.555  0.00  0.00    -0.299 N 
ATOM     13  H   UNL     1       6.192   3.407  27.988  0.00  0.00    +0.154 HD
ATOM     14  C   UNL     1       7.813   1.831  25.667  0.00  0.00    +0.052 A 
BRANCH  12  15
ATOM     15  C   UNL     1       5.426   1.575  27.556  0.00  0.00    +0.033 A 
ATOM     16  C   UNL     1       5.599   0.244  27.979  0.00  0.00    +0.026 A 
ATOM     17  C   UNL     1       4.534  -0.660  27.963  0.00  0.00    +0.040 A 
ATOM     18  C   UNL     1       3.293  -0.242  27.504  0.00  0.00    +0.124 A 
ATOM     19  F   UNL     1       2.272  -1.109  27.484  0.00  0.00    -0.205 F 
ATOM     20  C   UNL     1       3.100   1.059  27.061  0.00  0.00    +0.040 A 
ATOM     21  C   UNL     1       4.166   1.963  27.082  0.00  0.00    +0.026 A 
ENDBRANCH  12  15
ENDBRANCH   5   7
BRANCH   1  23
ATOM     22  C   UNL     1       8.865  -3.480  23.848  0.00  0.00    +0.221 C 
ATOM     23  N   UNL     1       8.076  -2.583  23.155  0.00  0.00    -0.270 N 
ATOM     24  H   UNL     1       7.152  -2.875  22.866  0.00  0.00    +0.156 HD
ATOM     25  O   UNL     1      10.030  -3.278  24.181  0.00  0.00    -0.275 OA
BRANCH  22  29
ATOM     26  C   UNL     1       7.004  -4.793  26.893  0.00  0.00    +0.118 C 
ATOM     27  C   UNL     1       6.331  -4.093  25.705  0.00  0.00    +0.032 C 
ATOM     28  C   UNL     1       6.682  -4.762  24.375  0.00  0.00    +0.015 C 
ATOM     29  C   UNL     1       8.197  -4.836  24.141  0.00  0.00    +0.076 C 
ATOM     30  C   UNL     1       8.882  -5.514  25.348  0.00  0.00    +0.015 C 
ATOM     31  C   UNL     1       8.520  -4.841  26.680  0.00  0.00    +0.032 C 
BRANCH  26  32
ATOM     32  O   UNL     1       6.575  -6.150  27.050  0.00  0.00    -0.380 OA
ATOM     33  C   UNL     1       5.496  -6.330  27.951  0.00  0.00    +0.194 C 
ENDBRANCH  26  32
ENDBRANCH  22  29
ENDBRANCH   1  23
TORSDOF 5
ENDMDL
MODEL 6
REMARK VINA RESULT:      -7.2      3.590      5.035
REMARK  Name = 
REMARK  6 active torsions:
REMARK  status: ('A' for Active; 'I' for Inactive)
REMARK    1  A    between atoms: C_2  and  O_32
REMARK    2  A    between atoms: C_5  and  C_9
REMARK    3  A    between atoms: N_11  and  C_12
REMARK    4  A    between atoms: C_14  and  C_18
REMARK    5  A    between atoms: N_21  and  C_22
REMARK    6  A    between atoms: O_32  and  C_33
REMARK                            x       y       z     vdW  Elec       q    Type
REMARK                         _______ _______ _______ _____ _____    ______ ____
ROOT
ATOM      1  C   UNL     1       5.965   1.020  27.711  0.00  0.00    +0.125 A 
ATOM      2  N   UNL     1       5.247   1.577  28.694  0.00  0.00    -0.240 NA
ATOM      3  C   UNL     1       5.283   2.915  28.839  0.00  0.00    +0.113 A 
ATOM      4  C   UNL     1       6.002   3.761  28.015  0.00  0.00    +0.028 A 
ATOM      5  C   UNL     1       6.750   3.206  26.977  0.00  0.00    -0.013 A 
ATOM      6  C   UNL     1       6.730   1.798  26.854  0.00  0.00    +0.052 A 
ENDROOT
BRANCH   5   7
ATOM      7  C   UNL     1       7.569   4.026  26.056  0.00  0.00    -0.013 A 
ATOM      8  C   UNL     1       8.088   5.279  26.388  0.00  0.00    +0.028 A 
ATOM      9  C   UNL     1       8.970   5.894  25.508  0.00  0.00    +0.113 A 
ATOM     10  N   UNL     1       9.417   5.330  24.362  0.00  0.00    -0.240 NA
ATOM     11  C   UNL     1       8.920   4.123  24.044  0.00  0.00    +0.123 A 
ATOM     12  N   UNL     1       9.448   3.459  22.922  0.00  0.00    -0.299 N 
ATOM     13  H   UNL     1      10.188   4.046  22.543  0.00  0.00    +0.154 HD
ATOM     14  C   UNL     1       7.934   3.512  24.808  0.00  0.00    +0.052 A 
BRANCH  12  15
ATOM     15  C   UNL     1       9.746   2.081  22.807  0.00  0.00    +0.033 A 
ATOM     16  C   UNL     1       9.362   1.300  21.701  0.00  0.00    +0.026 A 
ATOM     17  C   UNL     1       9.682  -0.058  21.634  0.00  0.00    +0.040 A 
ATOM     18  C   UNL     1      10.371  -0.648  22.684  0.00  0.00    +0.124 A 
ATOM     19  F   UNL     1      10.675  -1.951  22.624  0.00  0.00    -0.205 F 
ATOM     20  C   UNL     1      10.743   0.094  23.797  0.00  0.00    +0.040 A 
ATOM     21  C   UNL     1      10.425   1.454  23.860  0.00  0.00    +0.026 A 
ENDBRANCH  12  15
ENDBRANCH   5   7
BRANCH   1  23
ATOM     22  C   UNL     1       5.132  -1.017  26.614  0.00  0.00    +0.221 C 
ATOM     23  N   UNL     1       5.958  -0.371  27.512  0.00  0.00    -0.270 N 
ATOM     24  H   UNL     1       6.595  -0.925  28.069  0.00  0.00    +0.156 HD
ATOM     25  O   UNL     1       4.263  -0.469  25.941  0.00  0.00    -0.275 OA
BRANCH  22  29
ATOM     26  C   UNL     1       7.097  -3.221  24.217  0.00  0.00    +0.118 C 
ATOM     27  C   UNL     1       7.658  -2.657  25.529  0.00  0.00    +0.032 C 
ATOM     28  C   UNL     1       6.775  -3.011  26.727  0.00  0.00    +0.015 C 
ATOM     29  C   UNL     1       5.324  -2.543  26.541  0.00  0.00    +0.076 C 
ATOM     30  C   UNL     1       4.765  -3.084  25.207  0.00  0.00    +0.015 C 
ATOM     31  C   UNL     1       5.660  -2.731  24.010  0.00  0.00    +0.032 C 
BRANCH  26  32
ATOM     32  O   UNL     1       7.039  -4.652  24.210  0.00  0.00    -0.380 OA
ATOM     33  C   UNL     1       7.223  -5.245  22.936  0.00  0.00    +0.194 C 
ENDBRANCH  26  32
ENDBRANCH  22  29
ENDBRANCH   1  23
TORSDOF 5
ENDMDL
MODEL 7
REMARK VINA RESULT:      -7.1      3.528      8.041
REMARK  Name = 
REMARK  6 active torsions:
REMARK  status: ('A' for Active; 'I' for Inactive)
REMARK    1  A    between atoms: C_2  and  O_32
REMARK    2  A    between atoms: C_5  and  C_9
REMARK    3  A    between atoms: N_11  and  C_12
REMARK    4  A    between atoms: C_14  and  C_18
REMARK    5  A    between atoms: N_21  and  C_22
REMARK    6  A    between atoms: O_32  and  C_33
REMARK                            x       y       z     vdW  Elec       q    Type
REMARK                         _______ _______ _______ _____ _____    ______ ____
ROOT
ATOM      1  C   UNL     1       4.552   0.443  26.411  0.00  0.00    +0.125 A 
ATOM      2  N   UNL     1       3.376   0.125  26.968  0.00  0.00    -0.240 NA
ATOM      3  C   UNL     1       3.011  -1.170  27.008  0.00  0.00    +0.113 A 
ATOM      4  C   UNL     1       3.791  -2.206  26.526  0.00  0.00    +0.028 A 
ATOM      5  C   UNL     1       5.024  -1.902  25.951  0.00  0.00    -0.013 A 
ATOM      6  C   UNL     1       5.383  -0.536  25.887  0.00  0.00    +0.052 A 
ENDROOT
BRANCH   5   7
ATOM      7  C   UNL     1       5.920  -2.938  25.389  0.00  0.00    -0.013 A 
ATOM      8  C   UNL     1       5.499  -4.226  25.053  0.00  0.00    +0.028 A 
ATOM      9  C   UNL     1       6.383  -5.068  24.391  0.00  0.00    +0.113 A 
ATOM     10  N   UNL     1       7.622  -4.705  23.988  0.00  0.00    -0.240 NA
ATOM     11  C   UNL     1       8.027  -3.465  24.310  0.00  0.00    +0.123 A 
ATOM     12  N   UNL     1       9.262  -3.014  23.809  0.00  0.00    -0.299 N 
ATOM     13  H   UNL     1       9.641  -3.757  23.225  0.00  0.00    +0.154 HD
ATOM     14  C   UNL     1       7.247  -2.618  25.088  0.00  0.00    +0.052 A 
BRANCH  12  15
ATOM     15  C   UNL     1       9.560  -1.728  23.301  0.00  0.00    +0.033 A 
ATOM     16  C   UNL     1      10.148  -0.712  24.077  0.00  0.00    +0.026 A 
ATOM     17  C   UNL     1      10.425   0.542  23.527  0.00  0.00    +0.040 A 
ATOM     18  C   UNL     1      10.094   0.795  22.204  0.00  0.00    +0.124 A 
ATOM     19  F   UNL     1      10.354   1.998  21.677  0.00  0.00    -0.205 F 
ATOM     20  C   UNL     1       9.493  -0.183  21.422  0.00  0.00    +0.040 A 
ATOM     21  C   UNL     1       9.222  -1.439  21.973  0.00  0.00    +0.026 A 
ENDBRANCH  12  15
ENDBRANCH   5   7
BRANCH   1  23
ATOM     22  C   UNL     1       4.770   2.609  25.268  0.00  0.00    +0.221 C 
ATOM     23  N   UNL     1       4.984   1.779  26.350  0.00  0.00    -0.270 N 
ATOM     24  H   UNL     1       5.486   2.144  27.148  0.00  0.00    +0.156 HD
ATOM     25  O   UNL     1       4.248   2.264  24.211  0.00  0.00    -0.275 OA
BRANCH  22  29
ATOM     26  C   UNL     1       7.971   4.292  24.092  0.00  0.00    +0.118 C 
ATOM     27  C   UNL     1       6.658   4.283  23.298  0.00  0.00    +0.032 C 
ATOM     28  C   UNL     1       5.487   4.816  24.125  0.00  0.00    +0.015 C 
ATOM     29  C   UNL     1       5.302   4.044  25.439  0.00  0.00    +0.076 C 
ATOM     30  C   UNL     1       6.629   4.026  26.228  0.00  0.00    +0.015 C 
ATOM     31  C   UNL     1       7.802   3.497  25.390  0.00  0.00    +0.032 C 
BRANCH  26  32
ATOM     32  O   UNL     1       8.374   5.611  24.477  0.00  0.00    -0.380 OA
ATOM     33  C   UNL     1       8.951   6.382  23.437  0.00  0.00    +0.194 C 
ENDBRANCH  26  32
ENDBRANCH  22  29
ENDBRANCH   1  23
TORSDOF 5
ENDMDL
MODEL 8
REMARK VINA RESULT:      -7.1      3.823      7.617
REMARK  Name = 
REMARK  6 active torsions:
REMARK  status: ('A' for Active; 'I' for Inactive)
REMARK    1  A    between atoms: C_2  and  O_32
REMARK    2  A    between atoms: C_5  and  C_9
REMARK    3  A    between atoms: N_11  and  C_12
REMARK    4  A    between atoms: C_14  and  C_18
REMARK    5  A    between atoms: N_21  and  C_22
REMARK    6  A    between atoms: O_32  and  C_33
REMARK                            x       y       z     vdW  Elec       q    Type
REMARK                         _______ _______ _______ _____ _____    ______ ____
ROOT
ATOM      1  C   UNL     1       9.246  -3.035  24.838  0.00  0.00    +0.125 A 
ATOM      2  N   UNL     1       9.862  -4.202  24.614  0.00  0.00    -0.240 NA
ATOM      3  C   UNL     1       9.363  -5.314  25.186  0.00  0.00    +0.113 A 
ATOM      4  C   UNL     1       8.230  -5.331  25.979  0.00  0.00    +0.028 A 
ATOM      5  C   UNL     1       7.565  -4.129  26.219  0.00  0.00    -0.013 A 
ATOM      6  C   UNL     1       8.116  -2.964  25.639  0.00  0.00    +0.052 A 
ENDROOT
BRANCH   5   7
ATOM      7  C   UNL     1       6.357  -4.040  27.071  0.00  0.00    -0.013 A 
ATOM      8  C   UNL     1       6.010  -5.000  28.023  0.00  0.00    +0.028 A 
ATOM      9  C   UNL     1       4.941  -4.744  28.874  0.00  0.00    +0.113 A 
ATOM     10  N   UNL     1       4.240  -3.587  28.886  0.00  0.00    -0.240 NA
ATOM     11  C   UNL     1       4.575  -2.663  27.971  0.00  0.00    +0.123 A 
ATOM     12  N   UNL     1       3.945  -1.406  28.029  0.00  0.00    -0.299 N 
ATOM     13  H   UNL     1       3.323  -1.417  28.835  0.00  0.00    +0.154 HD
ATOM     14  C   UNL     1       5.541  -2.906  27.003  0.00  0.00    +0.052 A 
BRANCH  12  15
ATOM     15  C   UNL     1       4.545  -0.140  27.832  0.00  0.00    +0.033 A 
ATOM     16  C   UNL     1       4.488   0.556  26.611  0.00  0.00    +0.026 A 
ATOM     17  C   UNL     1       5.095   1.806  26.467  0.00  0.00    +0.040 A 
ATOM     18  C   UNL     1       5.782   2.357  27.539  0.00  0.00    +0.124 A 
ATOM     19  F   UNL     1       6.369   3.553  27.402  0.00  0.00    -0.205 F 
ATOM     20  C   UNL     1       5.872   1.682  28.749  0.00  0.00    +0.040 A 
ATOM     21  C   UNL     1       5.260   0.434  28.892  0.00  0.00    +0.026 A 
ENDBRANCH  12  15
ENDBRANCH   5   7
BRANCH   1  23
ATOM     22  C   UNL     1       9.406  -1.430  22.981  0.00  0.00    +0.221 C 
ATOM     23  N   UNL     1       9.722  -1.846  24.259  0.00  0.00    -0.270 N 
ATOM     24  H   UNL     1      10.339  -1.270  24.816  0.00  0.00    +0.156 HD
ATOM     25  O   UNL     1       8.736  -2.076  22.179  0.00  0.00    -0.275 OA
BRANCH  22  29
ATOM     26  C   UNL     1       8.331   2.153  23.667  0.00  0.00    +0.118 C 
ATOM     27  C   UNL     1       9.300   1.357  24.552  0.00  0.00    +0.032 C 
ATOM     28  C   UNL     1      10.475   0.796  23.750  0.00  0.00    +0.015 C 
ATOM     29  C   UNL     1      10.015  -0.076  22.573  0.00  0.00    +0.076 C 
ATOM     30  C   UNL     1       9.017   0.711  21.696  0.00  0.00    +0.015 C 
ATOM     31  C   UNL     1       7.843   1.278  22.508  0.00  0.00    +0.032 C 
BRANCH  26  32
ATOM     32  O   UNL     1       8.943   3.304  23.073  0.00  0.00    -0.380 OA
ATOM     33  C   UNL     1       8.160   4.484  23.126  0.00  0.00    +0.194 C 
ENDBRANCH  26  32
ENDBRANCH  22  29
ENDBRANCH   1  23
TORSDOF 5
ENDMDL
MODEL 9
REMARK VINA RESULT:      -7.0      3.602      5.377
REMARK  Name = 
REMARK  6 active torsions:
REMARK  status: ('A' for Active; 'I' for Inactive)
REMARK    1  A    between atoms: C_2  and  O_32
REMARK    2  A    between atoms: C_5  and  C_9
REMARK    3  A    between atoms: N_11  and  C_12
REMARK    4  A    between atoms: C_14  and  C_18
REMARK    5  A    between atoms: N_21  and  C_22
REMARK    6  A    between atoms: O_32  and  C_33
REMARK                            x       y       z     vdW  Elec       q    Type
REMARK                         _______ _______ _______ _____ _____    ______ ____
ROOT
ATOM      1  C   UNL     1       8.252  -0.878  22.806  0.00  0.00    +0.125 A 
ATOM      2  N   UNL     1       8.932  -0.633  21.679  0.00  0.00    -0.240 NA
ATOM      3  C   UNL     1       9.222   0.644  21.367  0.00  0.00    +0.113 A 
ATOM      4  C   UNL     1       8.879   1.728  22.154  0.00  0.00    +0.028 A 
ATOM      5  C   UNL     1       8.179   1.497  23.338  0.00  0.00    -0.013 A 
ATOM      6  C   UNL     1       7.853   0.156  23.640  0.00  0.00    +0.052 A 
ENDROOT
BRANCH   5   7
ATOM      7  C   UNL     1       7.749   2.592  24.237  0.00  0.00    -0.013 A 
ATOM      8  C   UNL     1       8.636   3.426  24.921  0.00  0.00    +0.028 A 
ATOM      9  C   UNL     1       8.129   4.518  25.616  0.00  0.00    +0.113 A 
ATOM     10  N   UNL     1       6.824   4.871  25.628  0.00  0.00    -0.240 NA
ATOM     11  C   UNL     1       5.970   4.070  24.969  0.00  0.00    +0.123 A 
ATOM     12  N   UNL     1       4.625   4.469  24.864  0.00  0.00    -0.299 N 
ATOM     13  H   UNL     1       4.543   5.377  25.318  0.00  0.00    +0.154 HD
ATOM     14  C   UNL     1       6.389   2.890  24.367  0.00  0.00    +0.052 A 
BRANCH  12  15
ATOM     15  C   UNL     1       3.787   4.359  23.730  0.00  0.00    +0.033 A 
ATOM     16  C   UNL     1       3.007   3.220  23.458  0.00  0.00    +0.026 A 
ATOM     17  C   UNL     1       2.193   3.160  22.324  0.00  0.00    +0.040 A 
ATOM     18  C   UNL     1       2.171   4.232  21.444  0.00  0.00    +0.124 A 
ATOM     19  F   UNL     1       1.395   4.175  20.354  0.00  0.00    -0.205 F 
ATOM     20  C   UNL     1       2.948   5.360  21.677  0.00  0.00    +0.040 A 
ATOM     21  C   UNL     1       3.758   5.419  22.814  0.00  0.00    +0.026 A 
ENDBRANCH  12  15
ENDBRANCH   5   7
BRANCH   1  23
ATOM     22  C   UNL     1       8.845  -3.100  23.678  0.00  0.00    +0.221 C 
ATOM     23  N   UNL     1       7.929  -2.193  23.182  0.00  0.00    -0.270 N 
ATOM     24  H   UNL     1       6.968  -2.487  23.073  0.00  0.00    +0.156 HD
ATOM     25  O   UNL     1      10.051  -2.893  23.780  0.00  0.00    -0.275 OA
BRANCH  22  29
ATOM     26  C   UNL     1       7.513  -4.476  26.963  0.00  0.00    +0.118 C 
ATOM     27  C   UNL     1       6.648  -3.779  25.904  0.00  0.00    +0.032 C 
ATOM     28  C   UNL     1       6.796  -4.429  24.528  0.00  0.00    +0.015 C 
ATOM     29  C   UNL     1       8.257  -4.471  24.056  0.00  0.00    +0.076 C 
ATOM     30  C   UNL     1       9.136  -5.146  25.132  0.00  0.00    +0.015 C 
ATOM     31  C   UNL     1       8.977  -4.493  26.513  0.00  0.00    +0.032 C 
BRANCH  26  32
ATOM     32  O   UNL     1       7.139  -5.843  27.170  0.00  0.00    -0.380 OA
ATOM     33  C   UNL     1       6.184  -6.047  28.196  0.00  0.00    +0.194 C 
ENDBRANCH  26  32
ENDBRANCH  22  29
ENDBRANCH   1  23
TORSDOF 5
ENDMDL
