MODEL 1
REMARK VINA RESULT:      -6.3      0.000      0.000
REMARK  Name = 
REMARK  7 active torsions:
REMARK  status: ('A' for Active; 'I' for Inactive)
REMARK    1  A    between atoms: O_1  and  C_2
REMARK    2  A    between atoms: C_2  and  C_4
REMARK    3  A    between atoms: C_4  and  C_5
REMARK    4  A    between atoms: C_5  and  C_6
REMARK    5  A    between atoms: C_6  and  C_7
REMARK    6  A    between atoms: C_9  and  C_12
REMARK    7  A    between atoms: C_14  and  N_18
REMARK                            x       y       z     vdW  Elec       q    Type
REMARK                         _______ _______ _______ _____ _____    ______ ____
ROOT
ATOM      1  C   UNL     1      10.280  -0.414  23.950  0.00  0.00    +0.228 A 
ATOM      2  O   UNL     1      10.524  -0.727  22.647  0.00  0.00    -0.338 OA
ATOM      3  N   UNL     1       9.782  -1.868  22.366  0.00  0.00    -0.056 NA
ATOM      4  C   UNL     1       9.147  -2.135  23.519  0.00  0.00    +0.202 A 
ATOM      5  N   UNL     1       9.447  -1.246  24.535  0.00  0.00    -0.191 NA
ENDROOT
BRANCH   4   6
ATOM      6  C   UNL     1       8.239  -3.266  23.692  0.00  0.00    +0.029 A 
ATOM      7  C   UNL     1       7.536  -3.792  22.596  0.00  0.00    +0.012 A 
ATOM      8  C   UNL     1       6.662  -4.874  22.753  0.00  0.00    +0.007 A 
ATOM      9  C   UNL     1       6.479  -5.452  24.010  0.00  0.00    +0.084 A 
ATOM     10  C   UNL     1       7.176  -4.936  25.108  0.00  0.00    +0.274 A 
ATOM     11  C   UNL     1       8.051  -3.850  24.957  0.00  0.00    +0.096 A 
BRANCH  10  12
ATOM     12  N   UNL     1       6.988  -5.540  26.435  0.00  0.00    +0.080 N 
ATOM     13  O   UNL     1       7.777  -5.212  27.334  0.00  0.00    +0.041 OA
ATOM     14  O   UNL     1       6.056  -6.343  26.579  0.00  0.00    -0.576 OA
ENDBRANCH  10  12
ENDBRANCH   4   6
BRANCH   1  15
ATOM     15  C   UNL     1      10.991   0.782  24.470  0.00  0.00    +0.099 C 
BRANCH  15  16
ATOM     16  C   UNL     1      10.581   2.096  23.807  0.00  0.00    +0.020 C 
BRANCH  16  17
ATOM     17  C   UNL     1       9.067   2.284  23.688  0.00  0.00    +0.121 C 
BRANCH  17  18
ATOM     18  C   UNL     1       8.633   2.371  22.242  0.00  0.00    +0.305 C 
ATOM     19  O   UNL     1       7.532   2.730  21.857  0.00  0.00    -0.251 OA
BRANCH  18  20
ATOM     20  O   UNL     1       9.608   1.990  21.387  0.00  0.00    -0.481 OA
ATOM     21  H   UNL     1      10.298   1.431  21.793  0.00  0.00    +0.295 HD
ENDBRANCH  18  20
ENDBRANCH  17  18
ENDBRANCH  16  17
ENDBRANCH  15  16
ENDBRANCH   1  15
TORSDOF 7
ENDMDL
MODEL 2
REMARK VINA RESULT:      -6.3      2.616      3.224
REMARK  Name = 
REMARK  7 active torsions:
REMARK  status: ('A' for Active; 'I' for Inactive)
REMARK    1  A    between atoms: O_1  and  C_2
REMARK    2  A    between atoms: C_2  and  C_4
REMARK    3  A    between atoms: C_4  and  C_5
REMARK    4  A    between atoms: C_5  and  C_6
REMARK    5  A    between atoms: C_6  and  C_7
REMARK    6  A    between atoms: C_9  and  C_12
REMARK    7  A    between atoms: C_14  and  N_18
REMARK                            x       y       z     vdW  Elec       q    Type
REMARK                         _______ _______ _______ _____ _____    ______ ____
ROOT
ATOM      1  C   UNL     1       9.835   1.731  23.091  0.00  0.00    +0.228 A 
ATOM      2  O   UNL     1      10.128   1.423  21.796  0.00  0.00    -0.338 OA
ATOM      3  N   UNL     1       9.769   0.093  21.612  0.00  0.00    -0.056 NA
ATOM      4  C   UNL     1       9.281  -0.279  22.806  0.00  0.00    +0.202 A 
ATOM      5  N   UNL     1       9.318   0.724  23.758  0.00  0.00    -0.191 NA
ENDROOT
BRANCH   4   6
ATOM      6  C   UNL     1       8.774  -1.621  23.083  0.00  0.00    +0.029 A 
ATOM      7  C   UNL     1       7.739  -2.168  22.307  0.00  0.00    +0.012 A 
ATOM      8  C   UNL     1       7.245  -3.452  22.566  0.00  0.00    +0.007 A 
ATOM      9  C   UNL     1       7.781  -4.214  23.605  0.00  0.00    +0.084 A 
ATOM     10  C   UNL     1       8.813  -3.679  24.383  0.00  0.00    +0.274 A 
ATOM     11  C   UNL     1       9.310  -2.391  24.130  0.00  0.00    +0.096 A 
BRANCH  10  12
ATOM     12  N   UNL     1       9.383  -4.476  25.479  0.00  0.00    +0.080 N 
ATOM     13  O   UNL     1      10.411  -5.129  25.243  0.00  0.00    +0.041 OA
ATOM     14  O   UNL     1       8.804  -4.451  26.574  0.00  0.00    -0.576 OA
ENDBRANCH  10  12
ENDBRANCH   4   6
BRANCH   1  15
ATOM     15  C   UNL     1      10.153   3.119  23.510  0.00  0.00    +0.099 C 
BRANCH  15  16
ATOM     16  C   UNL     1      11.628   3.494  23.384  0.00  0.00    +0.020 C 
BRANCH  16  17
ATOM     17  C   UNL     1      11.884   5.003  23.366  0.00  0.00    +0.121 C 
BRANCH  17  18
ATOM     18  C   UNL     1      13.177   5.335  22.656  0.00  0.00    +0.305 C 
ATOM     19  O   UNL     1      13.263   5.865  21.559  0.00  0.00    -0.251 OA
BRANCH  18  20
ATOM     20  O   UNL     1      14.267   4.968  23.367  0.00  0.00    -0.481 OA
ATOM     21  H   UNL     1      14.785   4.249  22.957  0.00  0.00    +0.295 HD
ENDBRANCH  18  20
ENDBRANCH  17  18
ENDBRANCH  16  17
ENDBRANCH  15  16
ENDBRANCH   1  15
TORSDOF 7
ENDMDL
MODEL 3
REMARK VINA RESULT:      -6.3      2.002      2.361
REMARK  Name = 
REMARK  7 active torsions:
REMARK  status: ('A' for Active; 'I' for Inactive)
REMARK    1  A    between atoms: O_1  and  C_2
REMARK    2  A    between atoms: C_2  and  C_4
REMARK    3  A    between atoms: C_4  and  C_5
REMARK    4  A    between atoms: C_5  and  C_6
REMARK    5  A    between atoms: C_6  and  C_7
REMARK    6  A    between atoms: C_9  and  C_12
REMARK    7  A    between atoms: C_14  and  N_18
REMARK                            x       y       z     vdW  Elec       q    Type
REMARK                         _______ _______ _______ _____ _____    ______ ____
ROOT
ATOM      1  C   UNL     1      10.357  -0.280  23.930  0.00  0.00    +0.228 A 
ATOM      2  O   UNL     1      10.608  -0.627  22.637  0.00  0.00    -0.338 OA
ATOM      3  N   UNL     1       9.902  -1.799  22.395  0.00  0.00    -0.056 NA
ATOM      4  C   UNL     1       9.279  -2.049  23.558  0.00  0.00    +0.202 A 
ATOM      5  N   UNL     1       9.553  -1.119  24.544  0.00  0.00    -0.191 NA
ENDROOT
BRANCH   4   6
ATOM      6  C   UNL     1       8.408  -3.203  23.770  0.00  0.00    +0.029 A 
ATOM      7  C   UNL     1       8.541  -3.995  24.922  0.00  0.00    +0.012 A 
ATOM      8  C   UNL     1       7.713  -5.104  25.133  0.00  0.00    +0.007 A 
ATOM      9  C   UNL     1       6.734  -5.437  24.196  0.00  0.00    +0.084 A 
ATOM     10  C   UNL     1       6.593  -4.653  23.046  0.00  0.00    +0.274 A 
ATOM     11  C   UNL     1       7.422  -3.543  22.828  0.00  0.00    +0.096 A 
BRANCH  10  12
ATOM     12  N   UNL     1       5.563  -4.998  22.055  0.00  0.00    +0.080 N 
ATOM     13  O   UNL     1       5.937  -5.253  20.900  0.00  0.00    +0.041 OA
ATOM     14  O   UNL     1       4.382  -5.012  22.429  0.00  0.00    -0.576 OA
ENDBRANCH  10  12
ENDBRANCH   4   6
BRANCH   1  15
ATOM     15  C   UNL     1      11.030   0.954  24.408  0.00  0.00    +0.099 C 
BRANCH  15  16
ATOM     16  C   UNL     1      10.608   2.227  23.676  0.00  0.00    +0.020 C 
BRANCH  16  17
ATOM     17  C   UNL     1       9.091   2.417  23.591  0.00  0.00    +0.121 C 
BRANCH  17  18
ATOM     18  C   UNL     1       8.604   2.331  22.163  0.00  0.00    +0.305 C 
ATOM     19  O   UNL     1       7.459   2.544  21.794  0.00  0.00    -0.251 OA
BRANCH  18  20
ATOM     20  O   UNL     1       9.584   1.972  21.303  0.00  0.00    -0.481 OA
ATOM     21  H   UNL     1       9.268   1.780  20.399  0.00  0.00    +0.295 HD
ENDBRANCH  18  20
ENDBRANCH  17  18
ENDBRANCH  16  17
ENDBRANCH  15  16
ENDBRANCH   1  15
TORSDOF 7
ENDMDL
MODEL 4
REMARK VINA RESULT:      -6.2      2.183      2.844
REMARK  Name = 
REMARK  7 active torsions:
REMARK  status: ('A' for Active; 'I' for Inactive)
REMARK    1  A    between atoms: O_1  and  C_2
REMARK    2  A    between atoms: C_2  and  C_4
REMARK    3  A    between atoms: C_4  and  C_5
REMARK    4  A    between atoms: C_5  and  C_6
REMARK    5  A    between atoms: C_6  and  C_7
REMARK    6  A    between atoms: C_9  and  C_12
REMARK    7  A    between atoms: C_14  and  N_18
REMARK                            x       y       z     vdW  Elec       q    Type
REMARK                         _______ _______ _______ _____ _____    ______ ____
ROOT
ATOM      1  C   UNL     1       9.238  -1.466  22.242  0.00  0.00    +0.228 A 
ATOM      2  O   UNL     1      10.351  -1.871  22.915  0.00  0.00    -0.338 OA
ATOM      3  N   UNL     1       9.944  -2.860  23.800  0.00  0.00    -0.056 NA
ATOM      4  C   UNL     1       8.625  -2.974  23.576  0.00  0.00    +0.202 A 
ATOM      5  N   UNL     1       8.150  -2.105  22.611  0.00  0.00    -0.191 NA
ENDROOT
BRANCH   4   6
ATOM      6  C   UNL     1       7.766  -3.913  24.294  0.00  0.00    +0.029 A 
ATOM      7  C   UNL     1       7.950  -4.142  25.667  0.00  0.00    +0.012 A 
ATOM      8  C   UNL     1       7.133  -5.042  26.364  0.00  0.00    +0.007 A 
ATOM      9  C   UNL     1       6.115  -5.725  25.698  0.00  0.00    +0.084 A 
ATOM     10  C   UNL     1       5.924  -5.503  24.330  0.00  0.00    +0.274 A 
ATOM     11  C   UNL     1       6.740  -4.605  23.627  0.00  0.00    +0.096 A 
BRANCH  10  12
ATOM     12  N   UNL     1       4.852  -6.219  23.622  0.00  0.00    +0.080 N 
ATOM     13  O   UNL     1       4.502  -7.322  24.070  0.00  0.00    +0.041 OA
ATOM     14  O   UNL     1       4.363  -5.683  22.619  0.00  0.00    -0.576 OA
ENDBRANCH  10  12
ENDBRANCH   4   6
BRANCH   1  15
ATOM     15  C   UNL     1       9.446  -0.391  21.239  0.00  0.00    +0.099 C 
BRANCH  15  16
ATOM     16  C   UNL     1       9.018   0.999  21.707  0.00  0.00    +0.020 C 
BRANCH  16  17
ATOM     17  C   UNL     1      10.159   1.831  22.298  0.00  0.00    +0.121 C 
BRANCH  17  18
ATOM     18  C   UNL     1      10.166   1.763  23.808  0.00  0.00    +0.305 C 
ATOM     19  O   UNL     1       9.504   2.474  24.548  0.00  0.00    -0.251 OA
BRANCH  18  20
ATOM     20  O   UNL     1      11.009   0.818  24.280  0.00  0.00    -0.481 OA
ATOM     21  H   UNL     1      11.138   0.847  25.247  0.00  0.00    +0.295 HD
ENDBRANCH  18  20
ENDBRANCH  17  18
ENDBRANCH  16  17
ENDBRANCH  15  16
ENDBRANCH   1  15
TORSDOF 7
ENDMDL
MODEL 5
REMARK VINA RESULT:      -6.2      1.610      2.133
REMARK  Name = 
REMARK  7 active torsions:
REMARK  status: ('A' for Active; 'I' for Inactive)
REMARK    1  A    between atoms: O_1  and  C_2
REMARK    2  A    between atoms: C_2  and  C_4
REMARK    3  A    between atoms: C_4  and  C_5
REMARK    4  A    between atoms: C_5  and  C_6
REMARK    5  A    between atoms: C_6  and  C_7
REMARK    6  A    between atoms: C_9  and  C_12
REMARK    7  A    between atoms: C_14  and  N_18
REMARK                            x       y       z     vdW  Elec       q    Type
REMARK                         _______ _______ _______ _____ _____    ______ ____
ROOT
ATOM      1  C   UNL     1       9.250  -1.752  22.366  0.00  0.00    +0.228 A 
ATOM      2  O   UNL     1      10.160  -2.187  23.282  0.00  0.00    -0.338 OA
ATOM      3  N   UNL     1       9.529  -3.168  24.036  0.00  0.00    -0.056 NA
ATOM      4  C   UNL     1       8.299  -3.248  23.502  0.00  0.00    +0.202 A 
ATOM      5  N   UNL     1       8.090  -2.365  22.458  0.00  0.00    -0.191 NA
ENDROOT
BRANCH   4   6
ATOM      6  C   UNL     1       7.271  -4.166  23.986  0.00  0.00    +0.029 A 
ATOM      7  C   UNL     1       6.206  -4.548  23.155  0.00  0.00    +0.012 A 
ATOM      8  C   UNL     1       5.215  -5.426  23.612  0.00  0.00    +0.007 A 
ATOM      9  C   UNL     1       5.275  -5.939  24.907  0.00  0.00    +0.084 A 
ATOM     10  C   UNL     1       6.333  -5.565  25.743  0.00  0.00    +0.274 A 
ATOM     11  C   UNL     1       7.328  -4.684  25.292  0.00  0.00    +0.096 A 
BRANCH  10  12
ATOM     12  N   UNL     1       6.403  -6.103  27.110  0.00  0.00    +0.080 N 
ATOM     13  O   UNL     1       7.364  -5.761  27.815  0.00  0.00    +0.041 OA
ATOM     14  O   UNL     1       5.501  -6.868  27.477  0.00  0.00    -0.576 OA
ENDBRANCH  10  12
ENDBRANCH   4   6
BRANCH   1  15
ATOM     15  C   UNL     1       9.718  -0.681  21.451  0.00  0.00    +0.099 C 
BRANCH  15  16
ATOM     16  C   UNL     1       9.111   0.694  21.727  0.00  0.00    +0.020 C 
BRANCH  16  17
ATOM     17  C   UNL     1      10.096   1.694  22.335  0.00  0.00    +0.121 C 
BRANCH  17  18
ATOM     18  C   UNL     1      10.077   1.638  23.846  0.00  0.00    +0.305 C 
ATOM     19  O   UNL     1       9.414   2.364  24.570  0.00  0.00    -0.251 OA
BRANCH  18  20
ATOM     20  O   UNL     1      10.899   0.683  24.338  0.00  0.00    -0.481 OA
ATOM     21  H   UNL     1      10.899  -0.145  23.822  0.00  0.00    +0.295 HD
ENDBRANCH  18  20
ENDBRANCH  17  18
ENDBRANCH  16  17
ENDBRANCH  15  16
ENDBRANCH   1  15
TORSDOF 7
ENDMDL
MODEL 6
REMARK VINA RESULT:      -6.1      2.173      2.835
REMARK  Name = 
REMARK  7 active torsions:
REMARK  status: ('A' for Active; 'I' for Inactive)
REMARK    1  A    between atoms: O_1  and  C_2
REMARK    2  A    between atoms: C_2  and  C_4
REMARK    3  A    between atoms: C_4  and  C_5
REMARK    4  A    between atoms: C_5  and  C_6
REMARK    5  A    between atoms: C_6  and  C_7
REMARK    6  A    between atoms: C_9  and  C_12
REMARK    7  A    between atoms: C_14  and  N_18
REMARK                            x       y       z     vdW  Elec       q    Type
REMARK                         _______ _______ _______ _____ _____    ______ ____
ROOT
ATOM      1  C   UNL     1       9.382  -2.703  24.216  0.00  0.00    +0.228 A 
ATOM      2  O   UNL     1      10.209  -3.786  24.224  0.00  0.00    -0.338 OA
ATOM      3  N   UNL     1       9.500  -4.824  24.817  0.00  0.00    -0.056 NA
ATOM      4  C   UNL     1       8.306  -4.281  25.102  0.00  0.00    +0.202 A 
ATOM      5  N   UNL     1       8.204  -2.948  24.746  0.00  0.00    -0.191 NA
ENDROOT
BRANCH   4   6
ATOM      6  C   UNL     1       7.221  -5.019  25.744  0.00  0.00    +0.029 A 
ATOM      7  C   UNL     1       6.098  -5.425  25.005  0.00  0.00    +0.012 A 
ATOM      8  C   UNL     1       5.052  -6.131  25.612  0.00  0.00    +0.007 A 
ATOM      9  C   UNL     1       5.113  -6.445  26.970  0.00  0.00    +0.084 A 
ATOM     10  C   UNL     1       6.228  -6.046  27.715  0.00  0.00    +0.274 A 
ATOM     11  C   UNL     1       7.278  -5.337  27.113  0.00  0.00    +0.096 A 
BRANCH  10  12
ATOM     12  N   UNL     1       6.299  -6.375  29.146  0.00  0.00    +0.080 N 
ATOM     13  O   UNL     1       6.644  -7.525  29.457  0.00  0.00    +0.041 OA
ATOM     14  O   UNL     1       6.010  -5.486  29.959  0.00  0.00    -0.576 OA
ENDBRANCH  10  12
ENDBRANCH   4   6
BRANCH   1  15
ATOM     15  C   UNL     1       9.949  -1.463  23.629  0.00  0.00    +0.099 C 
BRANCH  15  16
ATOM     16  C   UNL     1       9.047  -0.237  23.752  0.00  0.00    +0.020 C 
BRANCH  16  17
ATOM     17  C   UNL     1       9.755   1.086  23.447  0.00  0.00    +0.121 C 
BRANCH  17  18
ATOM     18  C   UNL     1       9.599   1.472  21.994  0.00  0.00    +0.305 C 
ATOM     19  O   UNL     1       8.804   0.973  21.213  0.00  0.00    -0.251 OA
BRANCH  18  20
ATOM     20  O   UNL     1      10.459   2.447  21.623  0.00  0.00    -0.481 OA
ATOM     21  H   UNL     1      11.386   2.151  21.546  0.00  0.00    +0.295 HD
ENDBRANCH  18  20
ENDBRANCH  17  18
ENDBRANCH  16  17
ENDBRANCH  15  16
ENDBRANCH   1  15
TORSDOF 7
ENDMDL
MODEL 7
REMARK VINA RESULT:      -6.0      1.705      2.382
REMARK  Name = 
REMARK  7 active torsions:
REMARK  status: ('A' for Active; 'I' for Inactive)
REMARK    1  A    between atoms: O_1  and  C_2
REMARK    2  A    between atoms: C_2  and  C_4
REMARK    3  A    between atoms: C_4  and  C_5
REMARK    4  A    between atoms: C_5  and  C_6
REMARK    5  A    between atoms: C_6  and  C_7
REMARK    6  A    between atoms: C_9  and  C_12
REMARK    7  A    between atoms: C_14  and  N_18
REMARK                            x       y       z     vdW  Elec       q    Type
REMARK                         _______ _______ _______ _____ _____    ______ ____
ROOT
ATOM      1  C   UNL     1       9.487  -2.430  23.258  0.00  0.00    +0.228 A 
ATOM      2  O   UNL     1      10.228  -3.236  24.068  0.00  0.00    -0.338 OA
ATOM      3  N   UNL     1       9.393  -4.269  24.475  0.00  0.00    -0.056 NA
ATOM      4  C   UNL     1       8.226  -4.002  23.866  0.00  0.00    +0.202 A 
ATOM      5  N   UNL     1       8.251  -2.849  23.103  0.00  0.00    -0.191 NA
ENDROOT
BRANCH   4   6
ATOM      6  C   UNL     1       7.037  -4.839  24.007  0.00  0.00    +0.029 A 
ATOM      7  C   UNL     1       6.317  -5.254  22.876  0.00  0.00    +0.012 A 
ATOM      8  C   UNL     1       5.174  -6.053  23.002  0.00  0.00    +0.007 A 
ATOM      9  C   UNL     1       4.735  -6.455  24.264  0.00  0.00    +0.084 A 
ATOM     10  C   UNL     1       5.446  -6.048  25.397  0.00  0.00    +0.274 A 
ATOM     11  C   UNL     1       6.590  -5.245  25.278  0.00  0.00    +0.096 A 
BRANCH  10  12
ATOM     12  N   UNL     1       4.990  -6.469  26.730  0.00  0.00    +0.080 N 
ATOM     13  O   UNL     1       3.784  -6.342  26.993  0.00  0.00    +0.041 OA
ATOM     14  O   UNL     1       5.834  -6.923  27.514  0.00  0.00    -0.576 OA
ENDBRANCH  10  12
ENDBRANCH   4   6
BRANCH   1  15
ATOM     15  C   UNL     1      10.190  -1.241  22.713  0.00  0.00    +0.099 C 
BRANCH  15  16
ATOM     16  C   UNL     1      10.431  -0.129  23.731  0.00  0.00    +0.020 C 
BRANCH  16  17
ATOM     17  C   UNL     1       9.507   1.080  23.557  0.00  0.00    +0.121 C 
BRANCH  17  18
ATOM     18  C   UNL     1      10.224   2.228  22.883  0.00  0.00    +0.305 C 
ATOM     19  O   UNL     1      10.854   3.101  23.460  0.00  0.00    -0.251 OA
BRANCH  18  20
ATOM     20  O   UNL     1      10.088   2.205  21.538  0.00  0.00    -0.481 OA
ATOM     21  H   UNL     1      10.284   1.337  21.135  0.00  0.00    +0.295 HD
ENDBRANCH  18  20
ENDBRANCH  17  18
ENDBRANCH  16  17
ENDBRANCH  15  16
ENDBRANCH   1  15
TORSDOF 7
ENDMDL
MODEL 8
REMARK VINA RESULT:      -6.0      1.523      2.237
REMARK  Name = 
REMARK  7 active torsions:
REMARK  status: ('A' for Active; 'I' for Inactive)
REMARK    1  A    between atoms: O_1  and  C_2
REMARK    2  A    between atoms: C_2  and  C_4
REMARK    3  A    between atoms: C_4  and  C_5
REMARK    4  A    between atoms: C_5  and  C_6
REMARK    5  A    between atoms: C_6  and  C_7
REMARK    6  A    between atoms: C_9  and  C_12
REMARK    7  A    between atoms: C_14  and  N_18
REMARK                            x       y       z     vdW  Elec       q    Type
REMARK                         _______ _______ _______ _____ _____    ______ ____
ROOT
ATOM      1  C   UNL     1       8.800   0.099  22.010  0.00  0.00    +0.228 A 
ATOM      2  O   UNL     1       9.803  -0.662  21.491  0.00  0.00    -0.338 OA
ATOM      3  N   UNL     1       9.538  -1.975  21.858  0.00  0.00    -0.056 NA
ATOM      4  C   UNL     1       8.394  -1.893  22.555  0.00  0.00    +0.202 A 
ATOM      5  N   UNL     1       7.910  -0.603  22.677  0.00  0.00    -0.191 NA
ENDROOT
BRANCH   4   6
ATOM      6  C   UNL     1       7.728  -3.052  23.146  0.00  0.00    +0.029 A 
ATOM      7  C   UNL     1       6.753  -3.760  22.424  0.00  0.00    +0.012 A 
ATOM      8  C   UNL     1       6.109  -4.871  22.983  0.00  0.00    +0.007 A 
ATOM      9  C   UNL     1       6.431  -5.294  24.273  0.00  0.00    +0.084 A 
ATOM     10  C   UNL     1       7.401  -4.595  24.999  0.00  0.00    +0.274 A 
ATOM     11  C   UNL     1       8.049  -3.481  24.446  0.00  0.00    +0.096 A 
BRANCH  10  12
ATOM     12  N   UNL     1       7.747  -5.036  26.359  0.00  0.00    +0.080 N 
ATOM     13  O   UNL     1       7.168  -6.038  26.804  0.00  0.00    +0.041 OA
ATOM     14  O   UNL     1       8.592  -4.380  26.982  0.00  0.00    -0.576 OA
ENDBRANCH  10  12
ENDBRANCH   4   6
BRANCH   1  15
ATOM     15  C   UNL     1       8.892   1.557  21.744  0.00  0.00    +0.099 C 
BRANCH  15  16
ATOM     16  C   UNL     1      10.192   2.203  22.218  0.00  0.00    +0.020 C 
BRANCH  16  17
ATOM     17  C   UNL     1      10.204   2.549  23.709  0.00  0.00    +0.121 C 
BRANCH  17  18
ATOM     18  C   UNL     1      10.369   1.311  24.561  0.00  0.00    +0.305 C 
ATOM     19  O   UNL     1      11.374   0.619  24.611  0.00  0.00    -0.251 OA
BRANCH  18  20
ATOM     20  O   UNL     1       9.259   1.024  25.278  0.00  0.00    -0.481 OA
ATOM     21  H   UNL     1       9.104   1.628  26.029  0.00  0.00    +0.295 HD
ENDBRANCH  18  20
ENDBRANCH  17  18
ENDBRANCH  16  17
ENDBRANCH  15  16
ENDBRANCH   1  15
TORSDOF 7
ENDMDL
MODEL 9
REMARK VINA RESULT:      -5.9      2.940      3.469
REMARK  Name = 
REMARK  7 active torsions:
REMARK  status: ('A' for Active; 'I' for Inactive)
REMARK    1  A    between atoms: O_1  and  C_2
REMARK    2  A    between atoms: C_2  and  C_4
REMARK    3  A    between atoms: C_4  and  C_5
REMARK    4  A    between atoms: C_5  and  C_6
REMARK    5  A    between atoms: C_6  and  C_7
REMARK    6  A    between atoms: C_9  and  C_12
REMARK    7  A    between atoms: C_14  and  N_18
REMARK                            x       y       z     vdW  Elec       q    Type
REMARK                         _______ _______ _______ _____ _____    ______ ____
ROOT
ATOM      1  C   UNL     1       9.376   1.096  23.218  0.00  0.00    +0.228 A 
ATOM      2  O   UNL     1      10.094   0.751  22.112  0.00  0.00    -0.338 OA
ATOM      3  N   UNL     1       9.946  -0.621  21.953  0.00  0.00    -0.056 NA
ATOM      4  C   UNL     1       9.143  -0.981  22.967  0.00  0.00    +0.202 A 
ATOM      5  N   UNL     1       8.777   0.072  23.784  0.00  0.00    -0.191 NA
ENDROOT
BRANCH   4   6
ATOM      6  C   UNL     1       8.711  -2.357  23.198  0.00  0.00    +0.029 A 
ATOM      7  C   UNL     1       9.201  -3.085  24.295  0.00  0.00    +0.012 A 
ATOM      8  C   UNL     1       8.794  -4.405  24.523  0.00  0.00    +0.007 A 
ATOM      9  C   UNL     1       7.886  -5.019  23.660  0.00  0.00    +0.084 A 
ATOM     10  C   UNL     1       7.392  -4.302  22.565  0.00  0.00    +0.274 A 
ATOM     11  C   UNL     1       7.798  -2.980  22.329  0.00  0.00    +0.096 A 
BRANCH  10  12
ATOM     12  N   UNL     1       6.435  -4.943  21.651  0.00  0.00    +0.080 N 
ATOM     13  O   UNL     1       5.681  -4.207  20.997  0.00  0.00    +0.041 OA
ATOM     14  O   UNL     1       6.434  -6.180  21.588  0.00  0.00    -0.576 OA
ENDBRANCH  10  12
ENDBRANCH   4   6
BRANCH   1  15
ATOM     15  C   UNL     1       9.405   2.535  23.583  0.00  0.00    +0.099 C 
BRANCH  15  16
ATOM     16  C   UNL     1      10.754   3.215  23.361  0.00  0.00    +0.020 C 
BRANCH  16  17
ATOM     17  C   UNL     1      10.751   4.713  23.673  0.00  0.00    +0.121 C 
BRANCH  17  18
ATOM     18  C   UNL     1      12.109   5.331  23.426  0.00  0.00    +0.305 C 
ATOM     19  O   UNL     1      12.812   5.851  24.278  0.00  0.00    -0.251 OA
BRANCH  18  20
ATOM     20  O   UNL     1      12.480   5.261  22.128  0.00  0.00    -0.481 OA
ATOM     21  H   UNL     1      12.037   5.913  21.553  0.00  0.00    +0.295 HD
ENDBRANCH  18  20
ENDBRANCH  17  18
ENDBRANCH  16  17
ENDBRANCH  15  16
ENDBRANCH   1  15
TORSDOF 7
ENDMDL
