MODEL 1
REMARK VINA RESULT:      -5.8      0.000      0.000
REMARK  Name = 
REMARK  3 active torsions:
REMARK  status: ('A' for Active; 'I' for Inactive)
REMARK    1  A    between atoms: O_1  and  C_2
REMARK    2  A    between atoms: C_6  and  C_7
REMARK    3  A    between atoms: C_8  and  C_9
REMARK                            x       y       z     vdW  Elec       q    Type
REMARK                         _______ _______ _______ _____ _____    ______ ____
ROOT
ATOM      1  C   UNL     1       5.790  -5.859  23.610  0.00  0.00    +0.145 A 
ATOM      2  C   UNL     1       5.953  -5.269  24.865  0.00  0.00    +0.061 A 
ATOM      3 BR   UNL     1       5.273  -6.087  26.438  0.00  0.00    -0.046 Br
ATOM      4  C   UNL     1       6.636  -4.055  24.992  0.00  0.00    +0.027 A 
ATOM      5  C   UNL     1       7.160  -3.410  23.863  0.00  0.00    -0.023 A 
ATOM      6  C   UNL     1       7.005  -4.014  22.608  0.00  0.00    +0.027 A 
ATOM      7  C   UNL     1       6.322  -5.227  22.484  0.00  0.00    +0.061 A 
ATOM      8 BR   UNL     1       6.142  -6.001  20.762  0.00  0.00    -0.046 Br
ENDROOT
BRANCH   1   9
ATOM      9  O   UNL     1       5.126  -7.051  23.501  0.00  0.00    -0.505 OA
ATOM     10  H   UNL     1       4.240  -6.939  23.894  0.00  0.00    +0.292 HD
ENDBRANCH   1   9
BRANCH   5  11
ATOM     11  C   UNL     1       7.939  -2.163  23.954  0.00  0.00    +0.008 C 
ATOM     12  C   UNL     1       8.385  -1.459  22.901  0.00  0.00    +0.008 C 
BRANCH  12  13
ATOM     13  C   UNL     1       9.128  -0.192  23.015  0.00  0.00    -0.025 A 
ATOM     14  C   UNL     1       9.593   0.204  24.277  0.00  0.00    +0.008 A 
ATOM     15  C   UNL     1      10.306   1.396  24.435  0.00  0.00    +0.001 A 
ATOM     16  C   UNL     1      10.550   2.214  23.336  0.00  0.00    +0.000 A 
ATOM     17  C   UNL     1      10.073   1.847  22.080  0.00  0.00    +0.001 A 
ATOM     18  C   UNL     1       9.358   0.655  21.922  0.00  0.00    +0.008 A 
ENDBRANCH  12  13
ENDBRANCH   5  11
TORSDOF 3
ENDMDL
MODEL 2
REMARK VINA RESULT:      -5.8      0.190      2.575
REMARK  Name = 
REMARK  3 active torsions:
REMARK  status: ('A' for Active; 'I' for Inactive)
REMARK    1  A    between atoms: O_1  and  C_2
REMARK    2  A    between atoms: C_6  and  C_7
REMARK    3  A    between atoms: C_8  and  C_9
REMARK                            x       y       z     vdW  Elec       q    Type
REMARK                         _______ _______ _______ _____ _____    ______ ____
ROOT
ATOM      1  C   UNL     1       5.830  -5.797  23.585  0.00  0.00    +0.145 A 
ATOM      2  C   UNL     1       6.410  -5.236  22.446  0.00  0.00    +0.061 A 
ATOM      3 BR   UNL     1       6.175  -6.016  20.730  0.00  0.00    -0.046 Br
ATOM      4  C   UNL     1       7.175  -4.069  22.543  0.00  0.00    +0.027 A 
ATOM      5  C   UNL     1       7.379  -3.452  23.785  0.00  0.00    -0.023 A 
ATOM      6  C   UNL     1       6.783  -4.012  24.923  0.00  0.00    +0.027 A 
ATOM      7  C   UNL     1       6.018  -5.178  24.822  0.00  0.00    +0.061 A 
ATOM      8 BR   UNL     1       5.234  -5.893  26.394  0.00  0.00    -0.046 Br
ENDROOT
BRANCH   1   9
ATOM      9  O   UNL     1       5.077  -6.935  23.473  0.00  0.00    -0.505 OA
ATOM     10  H   UNL     1       4.987  -7.324  24.362  0.00  0.00    +0.292 HD
ENDBRANCH   1   9
BRANCH   5  11
ATOM     11  C   UNL     1       8.125  -2.190  23.929  0.00  0.00    +0.008 C 
ATOM     12  C   UNL     1       8.618  -1.470  22.907  0.00  0.00    +0.008 C 
BRANCH  12  13
ATOM     13  C   UNL     1       9.327  -0.189  23.071  0.00  0.00    -0.025 A 
ATOM     14  C   UNL     1       9.399   0.683  21.975  0.00  0.00    +0.008 A 
ATOM     15  C   UNL     1      10.058   1.912  22.082  0.00  0.00    +0.001 A 
ATOM     16  C   UNL     1      10.663   2.277  23.281  0.00  0.00    +0.000 A 
ATOM     17  C   UNL     1      10.620   1.411  24.371  0.00  0.00    +0.001 A 
ATOM     18  C   UNL     1       9.964   0.181  24.264  0.00  0.00    +0.008 A 
ENDBRANCH  12  13
ENDBRANCH   5  11
TORSDOF 3
ENDMDL
MODEL 3
REMARK VINA RESULT:      -5.8      0.236      2.302
REMARK  Name = 
REMARK  3 active torsions:
REMARK  status: ('A' for Active; 'I' for Inactive)
REMARK    1  A    between atoms: O_1  and  C_2
REMARK    2  A    between atoms: C_6  and  C_7
REMARK    3  A    between atoms: C_8  and  C_9
REMARK                            x       y       z     vdW  Elec       q    Type
REMARK                         _______ _______ _______ _____ _____    ______ ____
ROOT
ATOM      1  C   UNL     1       5.830  -5.844  23.595  0.00  0.00    +0.145 A 
ATOM      2  C   UNL     1       6.377  -5.274  22.445  0.00  0.00    +0.061 A 
ATOM      3 BR   UNL     1       6.075  -6.025  20.728  0.00  0.00    -0.046 Br
ATOM      4  C   UNL     1       7.159  -4.117  22.534  0.00  0.00    +0.027 A 
ATOM      5  C   UNL     1       7.412  -3.520  23.777  0.00  0.00    -0.023 A 
ATOM      6  C   UNL     1       6.848  -4.090  24.926  0.00  0.00    +0.027 A 
ATOM      7  C   UNL     1       6.067  -5.246  24.835  0.00  0.00    +0.061 A 
ATOM      8 BR   UNL     1       5.327  -5.976  26.422  0.00  0.00    -0.046 Br
ENDROOT
BRANCH   1   9
ATOM      9  O   UNL     1       5.060  -6.972  23.493  0.00  0.00    -0.505 OA
ATOM     10  H   UNL     1       4.126  -6.709  23.586  0.00  0.00    +0.292 HD
ENDBRANCH   1   9
BRANCH   5  11
ATOM     11  C   UNL     1       8.177  -2.269  23.913  0.00  0.00    +0.008 C 
ATOM     12  C   UNL     1       8.620  -1.526  22.886  0.00  0.00    +0.008 C 
BRANCH  12  13
ATOM     13  C   UNL     1       9.349  -0.256  23.045  0.00  0.00    -0.025 A 
ATOM     14  C   UNL     1      10.003  -0.003  24.259  0.00  0.00    +0.008 A 
ATOM     15  C   UNL     1      10.710   1.187  24.457  0.00  0.00    +0.001 A 
ATOM     16  C   UNL     1      10.762   2.144  23.447  0.00  0.00    +0.000 A 
ATOM     17  C   UNL     1      10.097   1.917  22.244  0.00  0.00    +0.001 A 
ATOM     18  C   UNL     1       9.388   0.729  22.047  0.00  0.00    +0.008 A 
ENDBRANCH  12  13
ENDBRANCH   5  11
TORSDOF 3
ENDMDL
MODEL 4
REMARK VINA RESULT:      -5.6      5.913      8.688
REMARK  Name = 
REMARK  3 active torsions:
REMARK  status: ('A' for Active; 'I' for Inactive)
REMARK    1  A    between atoms: O_1  and  C_2
REMARK    2  A    between atoms: C_6  and  C_7
REMARK    3  A    between atoms: C_8  and  C_9
REMARK                            x       y       z     vdW  Elec       q    Type
REMARK                         _______ _______ _______ _____ _____    ______ ____
ROOT
ATOM      1  C   UNL     1      10.104   5.218  23.975  0.00  0.00    +0.145 A 
ATOM      2  C   UNL     1      11.171   4.437  23.529  0.00  0.00    +0.061 A 
ATOM      3 BR   UNL     1      12.766   5.226  22.869  0.00  0.00    -0.046 Br
ATOM      4  C   UNL     1      11.090   3.041  23.571  0.00  0.00    +0.027 A 
ATOM      5  C   UNL     1       9.935   2.407  24.051  0.00  0.00    -0.023 A 
ATOM      6  C   UNL     1       8.873   3.197  24.509  0.00  0.00    +0.027 A 
ATOM      7  C   UNL     1       8.957   4.592  24.468  0.00  0.00    +0.061 A 
ATOM      8 BR   UNL     1       7.490   5.614  25.101  0.00  0.00    -0.046 Br
ENDROOT
BRANCH   1   9
ATOM      9  O   UNL     1      10.199   6.584  23.936  0.00  0.00    -0.505 OA
ATOM     10  H   UNL     1       9.579   6.909  23.258  0.00  0.00    +0.292 HD
ENDBRANCH   1   9
BRANCH   5  11
ATOM     11  C   UNL     1       9.828   0.943  24.171  0.00  0.00    +0.008 C 
ATOM     12  C   UNL     1       9.225   0.298  25.183  0.00  0.00    +0.008 C 
BRANCH  12  13
ATOM     13  C   UNL     1       9.093  -1.167  25.262  0.00  0.00    -0.025 A 
ATOM     14  C   UNL     1       9.587  -1.945  24.205  0.00  0.00    +0.008 A 
ATOM     15  C   UNL     1       9.488  -3.338  24.236  0.00  0.00    +0.001 A 
ATOM     16  C   UNL     1       8.883  -3.971  25.318  0.00  0.00    +0.000 A 
ATOM     17  C   UNL     1       8.365  -3.211  26.364  0.00  0.00    +0.001 A 
ATOM     18  C   UNL     1       8.462  -1.817  26.332  0.00  0.00    +0.008 A 
ENDBRANCH  12  13
ENDBRANCH   5  11
TORSDOF 3
ENDMDL
MODEL 5
REMARK VINA RESULT:      -5.3      4.835      7.515
REMARK  Name = 
REMARK  3 active torsions:
REMARK  status: ('A' for Active; 'I' for Inactive)
REMARK    1  A    between atoms: O_1  and  C_2
REMARK    2  A    between atoms: C_6  and  C_7
REMARK    3  A    between atoms: C_8  and  C_9
REMARK                            x       y       z     vdW  Elec       q    Type
REMARK                         _______ _______ _______ _____ _____    ______ ____
ROOT
ATOM      1  C   UNL     1       8.290   3.270  22.897  0.00  0.00    +0.145 A 
ATOM      2  C   UNL     1       9.469   2.535  23.032  0.00  0.00    +0.061 A 
ATOM      3 BR   UNL     1      11.135   3.386  23.354  0.00  0.00    -0.046 Br
ATOM      4  C   UNL     1       9.445   1.139  22.942  0.00  0.00    +0.027 A 
ATOM      5  C   UNL     1       8.241   0.459  22.707  0.00  0.00    -0.023 A 
ATOM      6  C   UNL     1       7.060   1.202  22.586  0.00  0.00    +0.027 A 
ATOM      7  C   UNL     1       7.086   2.597  22.677  0.00  0.00    +0.061 A 
ATOM      8 BR   UNL     1       5.457   3.554  22.507  0.00  0.00    -0.046 Br
ENDROOT
BRANCH   1   9
ATOM      9  O   UNL     1       8.327   4.635  22.995  0.00  0.00    -0.505 OA
ATOM     10  H   UNL     1       9.249   4.922  22.859  0.00  0.00    +0.292 HD
ENDBRANCH   1   9
BRANCH   5  11
ATOM     11  C   UNL     1       8.157  -1.010  22.666  0.00  0.00    +0.008 C 
ATOM     12  C   UNL     1       7.014  -1.712  22.592  0.00  0.00    +0.008 C 
BRANCH  12  13
ATOM     13  C   UNL     1       6.954  -3.181  22.510  0.00  0.00    -0.025 A 
ATOM     14  C   UNL     1       7.806  -3.935  23.330  0.00  0.00    +0.008 A 
ATOM     15  C   UNL     1       7.785  -5.332  23.291  0.00  0.00    +0.001 A 
ATOM     16  C   UNL     1       6.920  -5.993  22.423  0.00  0.00    +0.000 A 
ATOM     17  C   UNL     1       6.085  -5.257  21.585  0.00  0.00    +0.001 A 
ATOM     18  C   UNL     1       6.108  -3.860  21.622  0.00  0.00    +0.008 A 
ENDBRANCH  12  13
ENDBRANCH   5  11
TORSDOF 3
ENDMDL
MODEL 6
REMARK VINA RESULT:      -5.2      1.792      3.050
REMARK  Name = 
REMARK  3 active torsions:
REMARK  status: ('A' for Active; 'I' for Inactive)
REMARK    1  A    between atoms: O_1  and  C_2
REMARK    2  A    between atoms: C_6  and  C_7
REMARK    3  A    between atoms: C_8  and  C_9
REMARK                            x       y       z     vdW  Elec       q    Type
REMARK                         _______ _______ _______ _____ _____    ______ ____
ROOT
ATOM      1  C   UNL     1       5.332  -6.213  26.320  0.00  0.00    +0.145 A 
ATOM      2  C   UNL     1       5.331  -5.682  25.030  0.00  0.00    +0.061 A 
ATOM      3 BR   UNL     1       4.188  -6.366  23.677  0.00  0.00    -0.046 Br
ATOM      4  C   UNL     1       6.175  -4.613  24.705  0.00  0.00    +0.027 A 
ATOM      5  C   UNL     1       7.038  -4.069  25.667  0.00  0.00    -0.023 A 
ATOM      6  C   UNL     1       7.024  -4.599  26.964  0.00  0.00    +0.027 A 
ATOM      7  C   UNL     1       6.179  -5.665  27.285  0.00  0.00    +0.061 A 
ATOM      8 BR   UNL     1       6.200  -6.344  29.056  0.00  0.00    -0.046 Br
ENDROOT
BRANCH   1   9
ATOM      9  O   UNL     1       4.496  -7.254  26.625  0.00  0.00    -0.505 OA
ATOM     10  H   UNL     1       5.011  -8.079  26.574  0.00  0.00    +0.292 HD
ENDBRANCH   1   9
BRANCH   5  11
ATOM     11  C   UNL     1       7.898  -2.906  25.389  0.00  0.00    +0.008 C 
ATOM     12  C   UNL     1       8.157  -2.418  24.165  0.00  0.00    +0.008 C 
BRANCH  12  13
ATOM     13  C   UNL     1       8.988  -1.229  23.912  0.00  0.00    -0.025 A 
ATOM     14  C   UNL     1       9.599  -0.592  25.002  0.00  0.00    +0.008 A 
ATOM     15  C   UNL     1      10.400   0.538  24.813  0.00  0.00    +0.001 A 
ATOM     16  C   UNL     1      10.589   1.054  23.534  0.00  0.00    +0.000 A 
ATOM     17  C   UNL     1       9.968   0.447  22.444  0.00  0.00    +0.001 A 
ATOM     18  C   UNL     1       9.166  -0.682  22.633  0.00  0.00    +0.008 A 
ENDBRANCH  12  13
ENDBRANCH   5  11
TORSDOF 3
ENDMDL
MODEL 7
REMARK VINA RESULT:      -5.2      5.123      7.725
REMARK  Name = 
REMARK  3 active torsions:
REMARK  status: ('A' for Active; 'I' for Inactive)
REMARK    1  A    between atoms: O_1  and  C_2
REMARK    2  A    between atoms: C_6  and  C_7
REMARK    3  A    between atoms: C_8  and  C_9
REMARK                            x       y       z     vdW  Elec       q    Type
REMARK                         _______ _______ _______ _____ _____    ______ ____
ROOT
ATOM      1  C   UNL     1       8.788   3.697  23.233  0.00  0.00    +0.145 A 
ATOM      2  C   UNL     1      10.045   3.185  23.559  0.00  0.00    +0.061 A 
ATOM      3 BR   UNL     1      11.612   4.249  23.428  0.00  0.00    -0.046 Br
ATOM      4  C   UNL     1      10.176   1.865  24.005  0.00  0.00    +0.027 A 
ATOM      5  C   UNL     1       9.051   1.037  24.122  0.00  0.00    -0.023 A 
ATOM      6  C   UNL     1       7.791   1.561  23.805  0.00  0.00    +0.027 A 
ATOM      7  C   UNL     1       7.663   2.881  23.361  0.00  0.00    +0.061 A 
ATOM      8 BR   UNL     1       5.933   3.540  22.947  0.00  0.00    -0.046 Br
ENDROOT
BRANCH   1   9
ATOM      9  O   UNL     1       8.674   4.993  22.805  0.00  0.00    -0.505 OA
ATOM     10  H   UNL     1       9.537   5.428  22.928  0.00  0.00    +0.292 HD
ENDBRANCH   1   9
BRANCH   5  11
ATOM     11  C   UNL     1       9.132  -0.338  24.644  0.00  0.00    +0.008 C 
ATOM     12  C   UNL     1       8.282  -1.329  24.329  0.00  0.00    +0.008 C 
BRANCH  12  13
ATOM     13  C   UNL     1       8.406  -2.708  24.831  0.00  0.00    -0.025 A 
ATOM     14  C   UNL     1       8.357  -3.766  23.911  0.00  0.00    +0.008 A 
ATOM     15  C   UNL     1       8.473  -5.092  24.338  0.00  0.00    +0.001 A 
ATOM     16  C   UNL     1       8.626  -5.378  25.691  0.00  0.00    +0.000 A 
ATOM     17  C   UNL     1       8.651  -4.339  26.620  0.00  0.00    +0.001 A 
ATOM     18  C   UNL     1       8.533  -3.014  26.193  0.00  0.00    +0.008 A 
ENDBRANCH  12  13
ENDBRANCH   5  11
TORSDOF 3
ENDMDL
MODEL 8
REMARK VINA RESULT:      -5.2      2.185      2.942
REMARK  Name = 
REMARK  3 active torsions:
REMARK  status: ('A' for Active; 'I' for Inactive)
REMARK    1  A    between atoms: O_1  and  C_2
REMARK    2  A    between atoms: C_6  and  C_7
REMARK    3  A    between atoms: C_8  and  C_9
REMARK                            x       y       z     vdW  Elec       q    Type
REMARK                         _______ _______ _______ _____ _____    ______ ____
ROOT
ATOM      1  C   UNL     1       4.972  -6.515  27.039  0.00  0.00    +0.145 A 
ATOM      2  C   UNL     1       5.897  -5.871  27.864  0.00  0.00    +0.061 A 
ATOM      3 BR   UNL     1       5.984  -6.235  29.725  0.00  0.00    -0.046 Br
ATOM      4  C   UNL     1       6.796  -4.943  27.327  0.00  0.00    +0.027 A 
ATOM      5  C   UNL     1       6.775  -4.639  25.959  0.00  0.00    -0.023 A 
ATOM      6  C   UNL     1       5.854  -5.298  25.135  0.00  0.00    +0.027 A 
ATOM      7  C   UNL     1       4.957  -6.226  25.673  0.00  0.00    +0.061 A 
ATOM      8 BR   UNL     1       3.731  -7.089  24.512  0.00  0.00    -0.046 Br
ENDROOT
BRANCH   1   9
ATOM      9  O   UNL     1       4.103  -7.426  27.576  0.00  0.00    -0.505 OA
ATOM     10  H   UNL     1       4.554  -7.871  28.318  0.00  0.00    +0.292 HD
ENDBRANCH   1   9
BRANCH   5  11
ATOM     11  C   UNL     1       7.741  -3.715  25.340  0.00  0.00    +0.008 C 
ATOM     12  C   UNL     1       7.498  -2.969  24.249  0.00  0.00    +0.008 C 
BRANCH  12  13
ATOM     13  C   UNL     1       8.464  -2.020  23.670  0.00  0.00    -0.025 A 
ATOM     14  C   UNL     1       9.271  -1.268  24.537  0.00  0.00    +0.008 A 
ATOM     15  C   UNL     1      10.205  -0.358  24.035  0.00  0.00    +0.001 A 
ATOM     16  C   UNL     1      10.336  -0.178  22.661  0.00  0.00    +0.000 A 
ATOM     17  C   UNL     1       9.524  -0.900  21.788  0.00  0.00    +0.001 A 
ATOM     18  C   UNL     1       8.589  -1.809  22.290  0.00  0.00    +0.008 A 
ENDBRANCH  12  13
ENDBRANCH   5  11
TORSDOF 3
ENDMDL
MODEL 9
REMARK VINA RESULT:      -5.0      1.456      1.987
REMARK  Name = 
REMARK  3 active torsions:
REMARK  status: ('A' for Active; 'I' for Inactive)
REMARK    1  A    between atoms: O_1  and  C_2
REMARK    2  A    between atoms: C_6  and  C_7
REMARK    3  A    between atoms: C_8  and  C_9
REMARK                            x       y       z     vdW  Elec       q    Type
REMARK                         _______ _______ _______ _____ _____    ______ ____
ROOT
ATOM      1  C   UNL     1       5.545  -5.774  25.734  0.00  0.00    +0.145 A 
ATOM      2  C   UNL     1       6.409  -5.244  26.693  0.00  0.00    +0.061 A 
ATOM      3 BR   UNL     1       6.517  -5.977  28.441  0.00  0.00    -0.046 Br
ATOM      4  C   UNL     1       7.230  -4.155  26.379  0.00  0.00    +0.027 A 
ATOM      5  C   UNL     1       7.191  -3.577  25.103  0.00  0.00    -0.023 A 
ATOM      6  C   UNL     1       6.331  -4.123  24.141  0.00  0.00    +0.027 A 
ATOM      7  C   UNL     1       5.512  -5.211  24.457  0.00  0.00    +0.061 A 
ATOM      8 BR   UNL     1       4.367  -5.911  23.116  0.00  0.00    -0.046 Br
ENDROOT
BRANCH   1   9
ATOM      9  O   UNL     1       4.752  -6.844  26.052  0.00  0.00    -0.505 OA
ATOM     10  H   UNL     1       4.095  -6.954  25.341  0.00  0.00    +0.292 HD
ENDBRANCH   1   9
BRANCH   5  11
ATOM     11  C   UNL     1       8.080  -2.471  24.708  0.00  0.00    +0.008 C 
ATOM     12  C   UNL     1       7.694  -1.388  24.013  0.00  0.00    +0.008 C 
BRANCH  12  13
ATOM     13  C   UNL     1       8.591  -0.273  23.664  0.00  0.00    -0.025 A 
ATOM     14  C   UNL     1       8.881  -0.041  22.312  0.00  0.00    +0.008 A 
ATOM     15  C   UNL     1       9.724   1.007  21.930  0.00  0.00    +0.001 A 
ATOM     16  C   UNL     1      10.298   1.828  22.897  0.00  0.00    +0.000 A 
ATOM     17  C   UNL     1      10.039   1.595  24.246  0.00  0.00    +0.001 A 
ATOM     18  C   UNL     1       9.198   0.546  24.627  0.00  0.00    +0.008 A 
ENDBRANCH  12  13
ENDBRANCH   5  11
TORSDOF 3
ENDMDL
