MODEL 1
REMARK VINA RESULT:      -6.3      0.000      0.000
REMARK  Name = 
REMARK  7 active torsions:
REMARK  status: ('A' for Active; 'I' for Inactive)
REMARK    1  A    between atoms: CA_2  and  N_3
REMARK    2  A    between atoms: CA_2  and  C_12
REMARK    3  A    between atoms: CA_2  and  CE_14
REMARK    4  A    between atoms: C_4  and  C_6
REMARK    5  A    between atoms: C_6  and  C_7
REMARK    6  A    between atoms: CA_19  and  C_21
REMARK    7  A    between atoms: C_21  and  O_22
REMARK                            x       y       z     vdW  Elec       q    Type
REMARK                         _______ _______ _______ _____ _____    ______ ____
ROOT
ATOM      1  CA  MET A   1       6.343  -1.769  24.018  0.00  0.00    +0.170 C 
ENDROOT
BRANCH   1   2
ATOM      2  CE  MET A   1       5.935  -3.207  24.434  0.00  0.00    +0.190 C 
ATOM      3  N   MET A   1       7.050  -3.846  25.132  0.00  0.00    -0.265 NA
ATOM      4  CA  MET A   1       7.731  -4.780  24.560  0.00  0.00    +0.121 C 
ATOM      5  CB  MET A   1       7.529  -5.438  23.230  0.00  0.00    +0.073 C 
ATOM      6  CG  MET A   1       6.286  -5.117  22.430  0.00  0.00    +0.077 C 
ATOM      7  SD  MET A   1       4.979  -4.148  23.214  0.00  0.00    -0.132 S 
BRANCH   4   8
ATOM      8  C   MET A   1       8.950  -5.271  25.356  0.00  0.00    +0.351 C 
ATOM      9  OXT MET A   1      10.097  -5.080  25.012  0.00  0.00    -0.244 OA
BRANCH   8  10
ATOM     10  O   MET A   1       8.551  -5.923  26.463  0.00  0.00    -0.476 OA
ATOM     11  H   MET A   1       7.698  -5.522  26.756  0.00  0.00    +0.295 HD
ENDBRANCH   8  10
ENDBRANCH   4   8
ENDBRANCH   1   2
BRANCH   1  12
ATOM     12  N   MET A   1       7.796  -1.548  23.992  0.00  0.00    -0.303 N 
ATOM     13  H   MET A   1       8.244  -1.166  24.820  0.00  0.00    +0.149 HD
ATOM     14  C   UNK A   0       8.555  -1.783  22.864  0.00  0.00    +0.218 C 
ATOM     15  O   UNK A   0       8.076  -2.228  21.823  0.00  0.00    -0.275 OA
BRANCH  14  16
ATOM     16  C   UNK A   0      10.026  -1.436  23.002  0.00  0.00    +0.138 C 
BRANCH  16  17
ATOM     17  C   UNK A   0      10.193   0.052  23.027  0.00  0.00    -0.001 A 
ATOM     18  S   UNK A   0      10.778   0.838  24.436  0.00  0.00    -0.101 S 
ATOM     19  C   UNK A   0      10.700   2.375  23.690  0.00  0.00    +0.045 A 
ATOM     20  C   UNK A   0      10.240   2.297  22.395  0.00  0.00    +0.008 A 
ATOM     21  C   UNK A   0       9.947   0.957  22.012  0.00  0.00    +0.011 A 
ENDBRANCH  16  17
ENDBRANCH  14  16
ENDBRANCH   1  12
BRANCH   1  22
ATOM     22  C   MET A   1       5.721  -0.651  24.835  0.00  0.00    +0.248 C 
ATOM     23  O   MET A   1       4.743  -0.778  25.568  0.00  0.00    -0.299 OA
ENDBRANCH   1  22
TORSDOF 7
ENDMDL
MODEL 2
REMARK VINA RESULT:      -6.2      2.170      2.750
REMARK  Name = 
REMARK  7 active torsions:
REMARK  status: ('A' for Active; 'I' for Inactive)
REMARK    1  A    between atoms: CA_2  and  N_3
REMARK    2  A    between atoms: CA_2  and  C_12
REMARK    3  A    between atoms: CA_2  and  CE_14
REMARK    4  A    between atoms: C_4  and  C_6
REMARK    5  A    between atoms: C_6  and  C_7
REMARK    6  A    between atoms: CA_19  and  C_21
REMARK    7  A    between atoms: C_21  and  O_22
REMARK                            x       y       z     vdW  Elec       q    Type
REMARK                         _______ _______ _______ _____ _____    ______ ____
ROOT
ATOM      1  CA  MET A   1       7.664  -3.570  22.929  0.00  0.00    +0.170 C 
ENDROOT
BRANCH   1   2
ATOM      2  CE  MET A   1       6.732  -3.283  24.136  0.00  0.00    +0.190 C 
ATOM      3  N   MET A   1       7.352  -3.788  25.360  0.00  0.00    -0.265 NA
ATOM      4  CA  MET A   1       6.892  -4.843  25.940  0.00  0.00    +0.121 C 
ATOM      5  CB  MET A   1       5.693  -5.677  25.606  0.00  0.00    +0.073 C 
ATOM      6  CG  MET A   1       4.747  -5.205  24.524  0.00  0.00    +0.077 C 
ATOM      7  SD  MET A   1       4.960  -3.542  23.852  0.00  0.00    -0.132 S 
BRANCH   4   8
ATOM      8  C   MET A   1       7.715  -5.333  27.140  0.00  0.00    +0.351 C 
ATOM      9  OXT MET A   1       7.263  -6.028  28.026  0.00  0.00    -0.244 OA
BRANCH   8  10
ATOM     10  O   MET A   1       8.980  -4.883  27.052  0.00  0.00    -0.476 OA
ATOM     11  H   MET A   1       9.254  -4.580  27.951  0.00  0.00    +0.295 HD
ENDBRANCH   8  10
ENDBRANCH   4   8
ENDBRANCH   1   2
BRANCH   1  12
ATOM     12  N   MET A   1       8.150  -2.358  22.253  0.00  0.00    -0.303 N 
ATOM     13  H   MET A   1       7.562  -1.928  21.544  0.00  0.00    +0.149 HD
ATOM     14  C   UNK A   0       9.397  -1.827  22.505  0.00  0.00    +0.218 C 
ATOM     15  O   UNK A   0      10.166  -2.305  23.336  0.00  0.00    -0.275 OA
BRANCH  14  16
ATOM     16  C   UNK A   0       9.754  -0.612  21.667  0.00  0.00    +0.138 C 
BRANCH  16  17
ATOM     17  C   UNK A   0       9.516   0.635  22.461  0.00  0.00    -0.001 A 
ATOM     18  S   UNK A   0       8.280   1.735  22.004  0.00  0.00    -0.101 S 
ATOM     19  C   UNK A   0       8.627   2.771  23.319  0.00  0.00    +0.045 A 
ATOM     20  C   UNK A   0       9.659   2.296  24.094  0.00  0.00    +0.008 A 
ATOM     21  C   UNK A   0      10.173   1.062  23.599  0.00  0.00    +0.011 A 
ENDBRANCH  16  17
ENDBRANCH  14  16
ENDBRANCH   1  12
BRANCH   1  22
ATOM     22  C   MET A   1       7.093  -4.493  21.867  0.00  0.00    +0.248 C 
ATOM     23  O   MET A   1       7.239  -5.713  21.845  0.00  0.00    -0.299 OA
ENDBRANCH   1  22
TORSDOF 7
ENDMDL
MODEL 3
REMARK VINA RESULT:      -6.2      2.528      3.003
REMARK  Name = 
REMARK  7 active torsions:
REMARK  status: ('A' for Active; 'I' for Inactive)
REMARK    1  A    between atoms: CA_2  and  N_3
REMARK    2  A    between atoms: CA_2  and  C_12
REMARK    3  A    between atoms: CA_2  and  CE_14
REMARK    4  A    between atoms: C_4  and  C_6
REMARK    5  A    between atoms: C_6  and  C_7
REMARK    6  A    between atoms: CA_19  and  C_21
REMARK    7  A    between atoms: C_21  and  O_22
REMARK                            x       y       z     vdW  Elec       q    Type
REMARK                         _______ _______ _______ _____ _____    ______ ____
ROOT
ATOM      1  CA  MET A   1       7.678  -3.027  24.920  0.00  0.00    +0.170 C 
ENDROOT
BRANCH   1   2
ATOM      2  CE  MET A   1       7.710  -4.569  25.079  0.00  0.00    +0.190 C 
ATOM      3  N   MET A   1       6.744  -5.174  24.164  0.00  0.00    -0.265 NA
ATOM      4  CA  MET A   1       5.649  -5.686  24.613  0.00  0.00    +0.121 C 
ATOM      5  CB  MET A   1       5.177  -5.858  26.024  0.00  0.00    +0.073 C 
ATOM      6  CG  MET A   1       6.121  -5.534  27.161  0.00  0.00    +0.077 C 
ATOM      7  SD  MET A   1       7.853  -5.192  26.777  0.00  0.00    -0.132 S 
BRANCH   4   8
ATOM      8  C   MET A   1       4.670  -6.168  23.532  0.00  0.00    +0.351 C 
ATOM      9  OXT MET A   1       4.306  -5.481  22.601  0.00  0.00    -0.244 OA
BRANCH   8  10
ATOM     10  O   MET A   1       4.297  -7.438  23.774  0.00  0.00    -0.476 OA
ATOM     11  H   MET A   1       4.967  -8.032  23.357  0.00  0.00    +0.295 HD
ENDBRANCH   8  10
ENDBRANCH   4   8
ENDBRANCH   1   2
BRANCH   1  12
ATOM     12  N   MET A   1       8.904  -2.464  24.336  0.00  0.00    -0.303 N 
ATOM     13  H   MET A   1       9.682  -2.249  24.953  0.00  0.00    +0.149 HD
ATOM     14  C   UNK A   0       9.006  -2.164  22.993  0.00  0.00    +0.218 C 
ATOM     15  O   UNK A   0       8.099  -2.382  22.194  0.00  0.00    -0.275 OA
BRANCH  14  16
ATOM     16  C   UNK A   0      10.323  -1.529  22.581  0.00  0.00    +0.138 C 
BRANCH  16  17
ATOM     17  C   UNK A   0      10.253  -0.047  22.786  0.00  0.00    -0.001 A 
ATOM     18  S   UNK A   0      10.740   0.648  24.277  0.00  0.00    -0.101 S 
ATOM     19  C   UNK A   0      10.404   2.231  23.723  0.00  0.00    +0.045 A 
ATOM     20  C   UNK A   0       9.933   2.236  22.431  0.00  0.00    +0.008 A 
ATOM     21  C   UNK A   0       9.846   0.921  21.889  0.00  0.00    +0.011 A 
ENDBRANCH  16  17
ENDBRANCH  14  16
ENDBRANCH   1  12
BRANCH   1  22
ATOM     22  C   MET A   1       7.370  -2.245  26.185  0.00  0.00    +0.248 C 
ATOM     23  O   MET A   1       8.163  -1.507  26.765  0.00  0.00    -0.299 OA
ENDBRANCH   1  22
TORSDOF 7
ENDMDL
MODEL 4
REMARK VINA RESULT:      -6.2      2.584      6.326
REMARK  Name = 
REMARK  7 active torsions:
REMARK  status: ('A' for Active; 'I' for Inactive)
REMARK    1  A    between atoms: CA_2  and  N_3
REMARK    2  A    between atoms: CA_2  and  C_12
REMARK    3  A    between atoms: CA_2  and  CE_14
REMARK    4  A    between atoms: C_4  and  C_6
REMARK    5  A    between atoms: C_6  and  C_7
REMARK    6  A    between atoms: CA_19  and  C_21
REMARK    7  A    between atoms: C_21  and  O_22
REMARK                            x       y       z     vdW  Elec       q    Type
REMARK                         _______ _______ _______ _____ _____    ______ ____
ROOT
ATOM      1  CA  MET A   1       8.192  -1.579  22.331  0.00  0.00    +0.170 C 
ENDROOT
BRANCH   1   2
ATOM      2  CE  MET A   1       7.818  -0.443  23.320  0.00  0.00    +0.190 C 
ATOM      3  N   MET A   1       8.467   0.799  22.902  0.00  0.00    -0.265 NA
ATOM      4  CA  MET A   1       9.463   1.274  23.570  0.00  0.00    +0.121 C 
ATOM      5  CB  MET A   1      10.083   0.788  24.843  0.00  0.00    +0.073 C 
ATOM      6  CG  MET A   1       9.422  -0.342  25.600  0.00  0.00    +0.077 C 
ATOM      7  SD  MET A   1       7.785  -0.895  25.076  0.00  0.00    -0.132 S 
BRANCH   4   8
ATOM      8  C   MET A   1      10.127   2.510  22.947  0.00  0.00    +0.351 C 
ATOM      9  OXT MET A   1      10.453   3.490  23.584  0.00  0.00    -0.244 OA
BRANCH   8  10
ATOM     10  O   MET A   1      10.289   2.335  21.623  0.00  0.00    -0.476 OA
ATOM     11  H   MET A   1      11.236   2.515  21.411  0.00  0.00    +0.295 HD
ENDBRANCH   8  10
ENDBRANCH   4   8
ENDBRANCH   1   2
BRANCH   1  12
ATOM     12  N   MET A   1       8.080  -2.927  22.907  0.00  0.00    -0.303 N 
ATOM     13  H   MET A   1       8.749  -3.209  23.619  0.00  0.00    +0.149 HD
ATOM     14  C   UNK A   0       7.141  -3.837  22.468  0.00  0.00    +0.218 C 
ATOM     15  O   UNK A   0       6.314  -3.570  21.599  0.00  0.00    -0.275 OA
BRANCH  14  16
ATOM     16  C   UNK A   0       7.216  -5.201  23.131  0.00  0.00    +0.138 C 
BRANCH  16  17
ATOM     17  C   UNK A   0       7.333  -5.034  24.615  0.00  0.00    -0.001 A 
ATOM     18  S   UNK A   0       5.977  -4.539  25.544  0.00  0.00    -0.101 S 
ATOM     19  C   UNK A   0       6.867  -4.611  27.002  0.00  0.00    +0.045 A 
ATOM     20  C   UNK A   0       8.169  -5.004  26.793  0.00  0.00    +0.008 A 
ATOM     21  C   UNK A   0       8.438  -5.248  25.415  0.00  0.00    +0.011 A 
ENDBRANCH  16  17
ENDBRANCH  14  16
ENDBRANCH   1  12
BRANCH   1  22
ATOM     22  C   MET A   1       9.564  -1.463  21.691  0.00  0.00    +0.248 C 
ATOM     23  O   MET A   1      10.620  -1.784  22.231  0.00  0.00    -0.299 OA
ENDBRANCH   1  22
TORSDOF 7
ENDMDL
MODEL 5
REMARK VINA RESULT:      -6.1      2.231      3.598
REMARK  Name = 
REMARK  7 active torsions:
REMARK  status: ('A' for Active; 'I' for Inactive)
REMARK    1  A    between atoms: CA_2  and  N_3
REMARK    2  A    between atoms: CA_2  and  C_12
REMARK    3  A    between atoms: CA_2  and  CE_14
REMARK    4  A    between atoms: C_4  and  C_6
REMARK    5  A    between atoms: C_6  and  C_7
REMARK    6  A    between atoms: CA_19  and  C_21
REMARK    7  A    between atoms: C_21  and  O_22
REMARK                            x       y       z     vdW  Elec       q    Type
REMARK                         _______ _______ _______ _____ _____    ______ ____
ROOT
ATOM      1  CA  MET A   1       8.385  -3.905  25.329  0.00  0.00    +0.170 C 
ENDROOT
BRANCH   1   2
ATOM      2  CE  MET A   1       6.957  -4.507  25.270  0.00  0.00    +0.190 C 
ATOM      3  N   MET A   1       6.788  -5.238  24.014  0.00  0.00    -0.265 NA
ATOM      4  CA  MET A   1       6.047  -4.760  23.073  0.00  0.00    +0.121 C 
ATOM      5  CB  MET A   1       5.196  -3.527  23.054  0.00  0.00    +0.073 C 
ATOM      6  CG  MET A   1       5.013  -2.739  24.332  0.00  0.00    +0.077 C 
ATOM      7  SD  MET A   1       5.619  -3.445  25.880  0.00  0.00    -0.132 S 
BRANCH   4   8
ATOM      8  C   MET A   1       6.063  -5.565  21.766  0.00  0.00    +0.351 C 
ATOM      9  OXT MET A   1       5.907  -5.069  20.670  0.00  0.00    -0.244 OA
BRANCH   8  10
ATOM     10  O   MET A   1       6.275  -6.869  22.024  0.00  0.00    -0.476 OA
ATOM     11  H   MET A   1       6.733  -7.258  21.241  0.00  0.00    +0.295 HD
ENDBRANCH   8  10
ENDBRANCH   4   8
ENDBRANCH   1   2
BRANCH   1  12
ATOM     12  N   MET A   1       8.802  -3.242  24.085  0.00  0.00    -0.303 N 
ATOM     13  H   MET A   1       8.705  -3.747  23.209  0.00  0.00    +0.149 HD
ATOM     14  C   UNK A   0       9.375  -1.987  24.079  0.00  0.00    +0.218 C 
ATOM     15  O   UNK A   0       9.538  -1.327  25.103  0.00  0.00    -0.275 OA
BRANCH  14  16
ATOM     16  C   UNK A   0       9.802  -1.488  22.710  0.00  0.00    +0.138 C 
BRANCH  16  17
ATOM     17  C   UNK A   0       9.090  -0.208  22.396  0.00  0.00    -0.001 A 
ATOM     18  S   UNK A   0       7.436  -0.010  22.806  0.00  0.00    -0.101 S 
ATOM     19  C   UNK A   0       7.407   1.584  22.186  0.00  0.00    +0.045 A 
ATOM     20  C   UNK A   0       8.628   1.963  21.679  0.00  0.00    +0.008 A 
ATOM     21  C   UNK A   0       9.600   0.929  21.800  0.00  0.00    +0.011 A 
ENDBRANCH  16  17
ENDBRANCH  14  16
ENDBRANCH   1  12
BRANCH   1  22
ATOM     22  C   MET A   1       9.486  -4.872  25.727  0.00  0.00    +0.248 C 
ATOM     23  O   MET A   1      10.441  -5.180  25.017  0.00  0.00    -0.299 OA
ENDBRANCH   1  22
TORSDOF 7
ENDMDL
MODEL 6
REMARK VINA RESULT:      -6.0      2.224      3.287
REMARK  Name = 
REMARK  7 active torsions:
REMARK  status: ('A' for Active; 'I' for Inactive)
REMARK    1  A    between atoms: CA_2  and  N_3
REMARK    2  A    between atoms: CA_2  and  C_12
REMARK    3  A    between atoms: CA_2  and  CE_14
REMARK    4  A    between atoms: C_4  and  C_6
REMARK    5  A    between atoms: C_6  and  C_7
REMARK    6  A    between atoms: CA_19  and  C_21
REMARK    7  A    between atoms: C_21  and  O_22
REMARK                            x       y       z     vdW  Elec       q    Type
REMARK                         _______ _______ _______ _____ _____    ______ ____
ROOT
ATOM      1  CA  MET A   1       8.162  -3.543  24.829  0.00  0.00    +0.170 C 
ENDROOT
BRANCH   1   2
ATOM      2  CE  MET A   1       6.781  -3.534  24.122  0.00  0.00    +0.190 C 
ATOM      3  N   MET A   1       5.933  -4.578  24.695  0.00  0.00    -0.265 NA
ATOM      4  CA  MET A   1       5.670  -5.648  24.025  0.00  0.00    +0.121 C 
ATOM      5  CB  MET A   1       6.042  -6.018  22.622  0.00  0.00    +0.073 C 
ATOM      6  CG  MET A   1       6.709  -4.987  21.741  0.00  0.00    +0.077 C 
ATOM      7  SD  MET A   1       6.808  -3.281  22.326  0.00  0.00    -0.132 S 
BRANCH   4   8
ATOM      8  C   MET A   1       4.877  -6.714  24.796  0.00  0.00    +0.351 C 
ATOM      9  OXT MET A   1       4.847  -6.784  26.006  0.00  0.00    -0.244 OA
BRANCH   8  10
ATOM     10  O   MET A   1       4.236  -7.529  23.938  0.00  0.00    -0.476 OA
ATOM     11  H   MET A   1       3.268  -7.361  24.031  0.00  0.00    +0.295 HD
ENDBRANCH   8  10
ENDBRANCH   4   8
ENDBRANCH   1   2
BRANCH   1  12
ATOM     12  N   MET A   1       9.063  -2.469  24.386  0.00  0.00    -0.303 N 
ATOM     13  H   MET A   1       9.666  -2.639  23.586  0.00  0.00    +0.149 HD
ATOM     14  C   UNK A   0       9.159  -1.268  25.058  0.00  0.00    +0.218 C 
ATOM     15  O   UNK A   0       8.473  -1.002  26.042  0.00  0.00    -0.275 OA
BRANCH  14  16
ATOM     16  C   UNK A   0      10.189  -0.304  24.496  0.00  0.00    +0.138 C 
BRANCH  16  17
ATOM     17  C   UNK A   0       9.571   0.510  23.401  0.00  0.00    -0.001 A 
ATOM     18  S   UNK A   0       8.715   1.952  23.765  0.00  0.00    -0.101 S 
ATOM     19  C   UNK A   0       8.387   2.252  22.114  0.00  0.00    +0.045 A 
ATOM     20  C   UNK A   0       8.916   1.279  21.298  0.00  0.00    +0.008 A 
ATOM     21  C   UNK A   0       9.600   0.273  22.040  0.00  0.00    +0.011 A 
ENDBRANCH  16  17
ENDBRANCH  14  16
ENDBRANCH   1  12
BRANCH   1  22
ATOM     22  C   MET A   1       8.929  -4.851  24.747  0.00  0.00    +0.248 C 
ATOM     23  O   MET A   1      10.133  -4.973  24.959  0.00  0.00    -0.299 OA
ENDBRANCH   1  22
TORSDOF 7
ENDMDL
MODEL 7
REMARK VINA RESULT:      -6.0      2.601      3.306
REMARK  Name = 
REMARK  7 active torsions:
REMARK  status: ('A' for Active; 'I' for Inactive)
REMARK    1  A    between atoms: CA_2  and  N_3
REMARK    2  A    between atoms: CA_2  and  C_12
REMARK    3  A    between atoms: CA_2  and  CE_14
REMARK    4  A    between atoms: C_4  and  C_6
REMARK    5  A    between atoms: C_6  and  C_7
REMARK    6  A    between atoms: CA_19  and  C_21
REMARK    7  A    between atoms: C_21  and  O_22
REMARK                            x       y       z     vdW  Elec       q    Type
REMARK                         _______ _______ _______ _____ _____    ______ ____
ROOT
ATOM      1  CA  MET A   1       8.048  -3.552  23.012  0.00  0.00    +0.170 C 
ENDROOT
BRANCH   1   2
ATOM      2  CE  MET A   1       7.912  -4.958  23.651  0.00  0.00    +0.190 C 
ATOM      3  N   MET A   1       6.639  -5.555  23.248  0.00  0.00    -0.265 NA
ATOM      4  CA  MET A   1       5.671  -5.665  24.094  0.00  0.00    +0.121 C 
ATOM      5  CB  MET A   1       5.630  -5.335  25.554  0.00  0.00    +0.073 C 
ATOM      6  CG  MET A   1       6.909  -4.935  26.255  0.00  0.00    +0.077 C 
ATOM      7  SD  MET A   1       8.473  -5.110  25.369  0.00  0.00    -0.132 S 
BRANCH   4   8
ATOM      8  C   MET A   1       4.354  -6.190  23.503  0.00  0.00    +0.351 C 
ATOM      9  OXT MET A   1       3.616  -5.522  22.810  0.00  0.00    -0.244 OA
BRANCH   8  10
ATOM     10  O   MET A   1       4.159  -7.471  23.864  0.00  0.00    -0.476 OA
ATOM     11  H   MET A   1       3.187  -7.643  23.847  0.00  0.00    +0.295 HD
ENDBRANCH   8  10
ENDBRANCH   4   8
ENDBRANCH   1   2
BRANCH   1  12
ATOM     12  N   MET A   1       8.398  -2.495  23.972  0.00  0.00    -0.303 N 
ATOM     13  H   MET A   1       7.752  -2.294  24.731  0.00  0.00    +0.149 HD
ATOM     14  C   UNK A   0       9.538  -1.730  23.839  0.00  0.00    +0.218 C 
ATOM     15  O   UNK A   0      10.354  -1.907  22.936  0.00  0.00    -0.275 OA
BRANCH  14  16
ATOM     16  C   UNK A   0       9.703  -0.643  24.886  0.00  0.00    +0.138 C 
BRANCH  16  17
ATOM     17  C   UNK A   0       9.691   0.700  24.223  0.00  0.00    -0.001 A 
ATOM     18  S   UNK A   0       8.257   1.297  23.493  0.00  0.00    -0.101 S 
ATOM     19  C   UNK A   0       9.021   2.757  23.036  0.00  0.00    +0.045 A 
ATOM     20  C   UNK A   0      10.338   2.797  23.430  0.00  0.00    +0.008 A 
ATOM     21  C   UNK A   0      10.726   1.609  24.115  0.00  0.00    +0.011 A 
ENDBRANCH  16  17
ENDBRANCH  14  16
ENDBRANCH   1  12
BRANCH   1  22
ATOM     22  C   MET A   1       6.844  -3.074  22.220  0.00  0.00    +0.248 C 
ATOM     23  O   MET A   1       6.041  -2.227  22.604  0.00  0.00    -0.299 OA
ENDBRANCH   1  22
TORSDOF 7
ENDMDL
MODEL 8
REMARK VINA RESULT:      -5.9      2.450      3.538
REMARK  Name = 
REMARK  7 active torsions:
REMARK  status: ('A' for Active; 'I' for Inactive)
REMARK    1  A    between atoms: CA_2  and  N_3
REMARK    2  A    between atoms: CA_2  and  C_12
REMARK    3  A    between atoms: CA_2  and  CE_14
REMARK    4  A    between atoms: C_4  and  C_6
REMARK    5  A    between atoms: C_6  and  C_7
REMARK    6  A    between atoms: CA_19  and  C_21
REMARK    7  A    between atoms: C_21  and  O_22
REMARK                            x       y       z     vdW  Elec       q    Type
REMARK                         _______ _______ _______ _____ _____    ______ ____
ROOT
ATOM      1  CA  MET A   1       9.421  -1.172  24.103  0.00  0.00    +0.170 C 
ENDROOT
BRANCH   1   2
ATOM      2  CE  MET A   1       8.068  -1.850  24.443  0.00  0.00    +0.190 C 
ATOM      3  N   MET A   1       8.307  -3.016  25.292  0.00  0.00    -0.265 NA
ATOM      4  CA  MET A   1       8.174  -4.209  24.818  0.00  0.00    +0.121 C 
ATOM      5  CB  MET A   1       7.710  -4.659  23.467  0.00  0.00    +0.073 C 
ATOM      6  CG  MET A   1       7.166  -3.634  22.496  0.00  0.00    +0.077 C 
ATOM      7  SD  MET A   1       6.867  -1.954  23.087  0.00  0.00    -0.132 S 
BRANCH   4   8
ATOM      8  C   MET A   1       8.580  -5.335  25.780  0.00  0.00    +0.351 C 
ATOM      9  OXT MET A   1       7.820  -5.844  26.576  0.00  0.00    -0.244 OA
BRANCH   8  10
ATOM     10  O   MET A   1       9.874  -5.657  25.600  0.00  0.00    -0.476 OA
ATOM     11  H   MET A   1      10.069  -5.586  24.635  0.00  0.00    +0.295 HD
ENDBRANCH   8  10
ENDBRANCH   4   8
ENDBRANCH   1   2
BRANCH   1  12
ATOM     12  N   MET A   1       9.283   0.182  23.546  0.00  0.00    -0.303 N 
ATOM     13  H   MET A   1       8.525   0.365  22.895  0.00  0.00    +0.149 HD
ATOM     14  C   UNK A   0      10.184   1.187  23.830  0.00  0.00    +0.218 C 
ATOM     15  O   UNK A   0      11.133   1.031  24.595  0.00  0.00    -0.275 OA
BRANCH  14  16
ATOM     16  C   UNK A   0       9.920   2.500  23.114  0.00  0.00    +0.138 C 
BRANCH  16  17
ATOM     17  C   UNK A   0       9.300   3.477  24.066  0.00  0.00    -0.001 A 
ATOM     18  S   UNK A   0       9.722   5.139  24.004  0.00  0.00    -0.101 S 
ATOM     19  C   UNK A   0       8.653   5.525  25.281  0.00  0.00    +0.045 A 
ATOM     20  C   UNK A   0       7.985   4.416  25.748  0.00  0.00    +0.008 A 
ATOM     21  C   UNK A   0       8.359   3.234  25.047  0.00  0.00    +0.011 A 
ENDBRANCH  16  17
ENDBRANCH  14  16
ENDBRANCH   1  12
BRANCH   1  22
ATOM     22  C   MET A   1      10.333  -1.960  23.180  0.00  0.00    +0.248 C 
ATOM     23  O   MET A   1      10.412  -1.797  21.964  0.00  0.00    -0.299 OA
ENDBRANCH   1  22
TORSDOF 7
ENDMDL
MODEL 9
REMARK VINA RESULT:      -5.9      2.451      3.134
REMARK  Name = 
REMARK  7 active torsions:
REMARK  status: ('A' for Active; 'I' for Inactive)
REMARK    1  A    between atoms: CA_2  and  N_3
REMARK    2  A    between atoms: CA_2  and  C_12
REMARK    3  A    between atoms: CA_2  and  CE_14
REMARK    4  A    between atoms: C_4  and  C_6
REMARK    5  A    between atoms: C_6  and  C_7
REMARK    6  A    between atoms: CA_19  and  C_21
REMARK    7  A    between atoms: C_21  and  O_22
REMARK                            x       y       z     vdW  Elec       q    Type
REMARK                         _______ _______ _______ _____ _____    ______ ____
ROOT
ATOM      1  CA  MET A   1       8.583  -2.935  23.553  0.00  0.00    +0.170 C 
ENDROOT
BRANCH   1   2
ATOM      2  CE  MET A   1       8.766  -2.853  25.091  0.00  0.00    +0.190 C 
ATOM      3  N   MET A   1       8.361  -4.120  25.699  0.00  0.00    -0.265 NA
ATOM      4  CA  MET A   1       7.263  -4.203  26.371  0.00  0.00    +0.121 C 
ATOM      5  CB  MET A   1       6.281  -3.134  26.739  0.00  0.00    +0.073 C 
ATOM      6  CG  MET A   1       6.615  -1.690  26.435  0.00  0.00    +0.077 C 
ATOM      7  SD  MET A   1       8.282  -1.287  25.868  0.00  0.00    -0.132 S 
BRANCH   4   8
ATOM      8  C   MET A   1       6.898  -5.618  26.841  0.00  0.00    +0.351 C 
ATOM      9  OXT MET A   1       5.966  -6.254  26.396  0.00  0.00    -0.244 OA
BRANCH   8  10
ATOM     10  O   MET A   1       7.754  -6.028  27.795  0.00  0.00    -0.476 OA
ATOM     11  H   MET A   1       8.626  -6.197  27.362  0.00  0.00    +0.295 HD
ENDBRANCH   8  10
ENDBRANCH   4   8
ENDBRANCH   1   2
BRANCH   1  12
ATOM     12  N   MET A   1       8.615  -1.628  22.881  0.00  0.00    -0.303 N 
ATOM     13  H   MET A   1       7.761  -1.079  22.845  0.00  0.00    +0.149 HD
ATOM     14  C   UNK A   0       9.746  -1.156  22.248  0.00  0.00    +0.218 C 
ATOM     15  O   UNK A   0      10.808  -1.775  22.238  0.00  0.00    -0.275 OA
BRANCH  14  16
ATOM     16  C   UNK A   0       9.575   0.182  21.552  0.00  0.00    +0.138 C 
BRANCH  16  17
ATOM     17  C   UNK A   0       9.177   1.223  22.553  0.00  0.00    -0.001 A 
ATOM     18  S   UNK A   0      10.190   1.575  23.893  0.00  0.00    -0.101 S 
ATOM     19  C   UNK A   0       9.118   2.776  24.470  0.00  0.00    +0.045 A 
ATOM     20  C   UNK A   0       8.013   2.913  23.663  0.00  0.00    +0.008 A 
ATOM     21  C   UNK A   0       8.046   2.017  22.556  0.00  0.00    +0.011 A 
ENDBRANCH  16  17
ENDBRANCH  14  16
ENDBRANCH   1  12
BRANCH   1  22
ATOM     22  C   MET A   1       7.339  -3.666  23.081  0.00  0.00    +0.248 C 
ATOM     23  O   MET A   1       7.305  -4.463  22.147  0.00  0.00    -0.299 OA
ENDBRANCH   1  22
TORSDOF 7
ENDMDL
