MODEL 1
REMARK VINA RESULT:      -6.4      0.000      0.000
REMARK  Name = 
REMARK  9 active torsions:
REMARK  status: ('A' for Active; 'I' for Inactive)
REMARK    1  A    between atoms: C_1  and  O_2
REMARK    2  A    between atoms: O_2  and  C_3
REMARK    3  A    between atoms: C_5  and  N_12
REMARK    4  A    between atoms: C_7  and  O_8
REMARK    5  A    between atoms: O_8  and  C_9
REMARK    6  A    between atoms: C_10  and  O_11
REMARK    7  A    between atoms: N_13  and  C_14
REMARK    8  A    between atoms: C_19  and  C_20
REMARK    9  A    between atoms: C_20  and  O_21
REMARK                            x       y       z     vdW  Elec       q    Type
REMARK                         _______ _______ _______ _____ _____    ______ ____
ROOT
ATOM      1  C   UNL     1       5.436  -5.384  23.213  0.00  0.00    +0.167 A 
ATOM      2  C   UNL     1       5.183  -6.296  24.260  0.00  0.00    +0.201 A 
ATOM      3  C   UNL     1       5.599  -6.016  25.565  0.00  0.00    +0.167 A 
ATOM      4  C   UNL     1       6.272  -4.809  25.808  0.00  0.00    +0.079 A 
ATOM      5  C   UNL     1       6.538  -3.893  24.785  0.00  0.00    +0.093 A 
ATOM      6  C   UNL     1       6.123  -4.197  23.486  0.00  0.00    +0.079 A 
ENDROOT
BRANCH   1   8
ATOM      7  C   UNL     1       6.081  -5.906  20.982  0.00  0.00    +0.277 C 
ATOM      8  O   UNL     1       5.048  -5.763  21.951  0.00  0.00    -0.491 OA
ENDBRANCH   1   8
BRANCH   2   9
ATOM      9  O   UNL     1       4.505  -7.441  23.931  0.00  0.00    -0.501 OA
ATOM     10  H   UNL     1       3.847  -7.200  23.262  0.00  0.00    +0.292 HD
ENDBRANCH   2   9
BRANCH   3  11
ATOM     11  O   UNL     1       5.452  -6.747  26.709  0.00  0.00    -0.491 OA
ATOM     12  C   UNL     1       4.317  -6.586  27.539  0.00  0.00    +0.277 C 
ENDBRANCH   3  11
BRANCH   5  13
ATOM     13  N   UNL     1       7.292  -2.722  24.995  0.00  0.00    -0.149 NA
ATOM     14  N   UNL     1       7.315  -1.985  23.986  0.00  0.00    -0.148 NA
BRANCH  14  15
ATOM     15  C   UNL     1       8.096  -0.824  24.217  0.00  0.00    +0.100 A 
ATOM     16  C   UNL     1       9.465  -0.796  23.896  0.00  0.00    +0.086 A 
ATOM     17  C   UNL     1      10.227   0.359  24.167  0.00  0.00    +0.017 A 
ATOM     18  C   UNL     1       9.643   1.472  24.769  0.00  0.00    +0.001 A 
ATOM     19  C   UNL     1       8.294   1.449  25.099  0.00  0.00    +0.002 A 
ATOM     20  C   UNL     1       7.529   0.310  24.831  0.00  0.00    +0.030 A 
BRANCH  16  21
ATOM     21  C   UNL     1      10.189  -1.920  23.244  0.00  0.00    +0.339 C 
ATOM     22  O   UNL     1      10.832  -1.767  22.218  0.00  0.00    -0.245 OA
BRANCH  21  23
ATOM     23  O   UNL     1      10.157  -3.093  23.905  0.00  0.00    -0.477 OA
ATOM     24  H   UNL     1       9.487  -3.143  24.615  0.00  0.00    +0.295 HD
ENDBRANCH  21  23
ENDBRANCH  16  21
ENDBRANCH  14  15
ENDBRANCH   5  13
TORSDOF 7
ENDMDL
MODEL 2
REMARK VINA RESULT:      -6.2      0.403      2.854
REMARK  Name = 
REMARK  9 active torsions:
REMARK  status: ('A' for Active; 'I' for Inactive)
REMARK    1  A    between atoms: C_1  and  O_2
REMARK    2  A    between atoms: O_2  and  C_3
REMARK    3  A    between atoms: C_5  and  N_12
REMARK    4  A    between atoms: C_7  and  O_8
REMARK    5  A    between atoms: O_8  and  C_9
REMARK    6  A    between atoms: C_10  and  O_11
REMARK    7  A    between atoms: N_13  and  C_14
REMARK    8  A    between atoms: C_19  and  C_20
REMARK    9  A    between atoms: C_20  and  O_21
REMARK                            x       y       z     vdW  Elec       q    Type
REMARK                         _______ _______ _______ _____ _____    ______ ____
ROOT
ATOM      1  C   UNL     1       5.671  -5.983  25.548  0.00  0.00    +0.167 A 
ATOM      2  C   UNL     1       5.216  -6.347  24.263  0.00  0.00    +0.201 A 
ATOM      3  C   UNL     1       5.513  -5.554  23.151  0.00  0.00    +0.167 A 
ATOM      4  C   UNL     1       6.274  -4.391  23.344  0.00  0.00    +0.079 A 
ATOM      5  C   UNL     1       6.731  -4.008  24.609  0.00  0.00    +0.093 A 
ATOM      6  C   UNL     1       6.414  -4.810  25.709  0.00  0.00    +0.079 A 
ENDROOT
BRANCH   1   8
ATOM      7  C   UNL     1       4.668  -6.136  27.701  0.00  0.00    +0.277 C 
ATOM      8  O   UNL     1       5.285  -6.785  26.594  0.00  0.00    -0.491 OA
ENDBRANCH   1   8
BRANCH   2   9
ATOM      9  O   UNL     1       4.493  -7.509  24.169  0.00  0.00    -0.501 OA
ATOM     10  H   UNL     1       3.557  -7.263  24.197  0.00  0.00    +0.292 HD
ENDBRANCH   2   9
BRANCH   3  11
ATOM     11  O   UNL     1       5.181  -5.723  21.838  0.00  0.00    -0.491 OA
ATOM     12  C   UNL     1       6.167  -5.683  20.823  0.00  0.00    +0.277 C 
ENDBRANCH   3  11
BRANCH   5  13
ATOM     13  N   UNL     1       7.416  -2.798  24.832  0.00  0.00    -0.149 NA
ATOM     14  N   UNL     1       7.430  -2.066  23.819  0.00  0.00    -0.148 NA
BRANCH  14  15
ATOM     15  C   UNL     1       8.142  -0.865  24.064  0.00  0.00    +0.100 A 
ATOM     16  C   UNL     1       9.454  -0.689  23.588  0.00  0.00    +0.086 A 
ATOM     17  C   UNL     1      10.152   0.502  23.875  0.00  0.00    +0.017 A 
ATOM     18  C   UNL     1       9.564   1.505  24.643  0.00  0.00    +0.001 A 
ATOM     19  C   UNL     1       8.273   1.335  25.126  0.00  0.00    +0.002 A 
ATOM     20  C   UNL     1       7.570   0.160  24.844  0.00  0.00    +0.030 A 
BRANCH  16  21
ATOM     21  C   UNL     1      10.175  -1.686  22.754  0.00  0.00    +0.339 C 
ATOM     22  O   UNL     1      10.681  -2.688  23.234  0.00  0.00    -0.245 OA
BRANCH  21  23
ATOM     23  O   UNL     1      10.160  -1.454  21.426  0.00  0.00    -0.477 OA
ATOM     24  H   UNL     1      10.118  -2.257  20.872  0.00  0.00    +0.295 HD
ENDBRANCH  21  23
ENDBRANCH  16  21
ENDBRANCH  14  15
ENDBRANCH   5  13
TORSDOF 7
ENDMDL
MODEL 3
REMARK VINA RESULT:      -6.2      1.780      2.186
REMARK  Name = 
REMARK  9 active torsions:
REMARK  status: ('A' for Active; 'I' for Inactive)
REMARK    1  A    between atoms: C_1  and  O_2
REMARK    2  A    between atoms: O_2  and  C_3
REMARK    3  A    between atoms: C_5  and  N_12
REMARK    4  A    between atoms: C_7  and  O_8
REMARK    5  A    between atoms: O_8  and  C_9
REMARK    6  A    between atoms: C_10  and  O_11
REMARK    7  A    between atoms: N_13  and  C_14
REMARK    8  A    between atoms: C_19  and  C_20
REMARK    9  A    between atoms: C_20  and  O_21
REMARK                            x       y       z     vdW  Elec       q    Type
REMARK                         _______ _______ _______ _____ _____    ______ ____
ROOT
ATOM      1  C   UNL     1       5.611  -5.092  23.119  0.00  0.00    +0.167 A 
ATOM      2  C   UNL     1       5.428  -6.036  24.152  0.00  0.00    +0.201 A 
ATOM      3  C   UNL     1       5.896  -5.777  25.444  0.00  0.00    +0.167 A 
ATOM      4  C   UNL     1       6.549  -4.559  25.687  0.00  0.00    +0.079 A 
ATOM      5  C   UNL     1       6.747  -3.613  24.677  0.00  0.00    +0.093 A 
ATOM      6  C   UNL     1       6.280  -3.895  23.390  0.00  0.00    +0.079 A 
ENDROOT
BRANCH   1   8
ATOM      7  C   UNL     1       6.179  -5.756  20.904  0.00  0.00    +0.277 C 
ATOM      8  O   UNL     1       5.175  -5.449  21.866  0.00  0.00    -0.491 OA
ENDBRANCH   1   8
BRANCH   2   9
ATOM      9  O   UNL     1       4.763  -7.189  23.824  0.00  0.00    -0.501 OA
ATOM     10  H   UNL     1       4.158  -6.972  23.101  0.00  0.00    +0.292 HD
ENDBRANCH   2   9
BRANCH   3  11
ATOM     11  O   UNL     1       5.819  -6.539  26.574  0.00  0.00    -0.491 OA
ATOM     12  C   UNL     1       4.606  -6.662  27.292  0.00  0.00    +0.277 C 
ENDBRANCH   3  11
BRANCH   5  13
ATOM     13  N   UNL     1       7.481  -2.428  24.883  0.00  0.00    -0.149 NA
ATOM     14  N   UNL     1       7.857  -1.910  23.809  0.00  0.00    -0.148 NA
BRANCH  14  15
ATOM     15  C   UNL     1       8.611  -0.732  24.045  0.00  0.00    +0.100 A 
ATOM     16  C   UNL     1       8.054   0.541  23.831  0.00  0.00    +0.086 A 
ATOM     17  C   UNL     1       8.836   1.695  24.041  0.00  0.00    +0.017 A 
ATOM     18  C   UNL     1      10.167   1.590  24.441  0.00  0.00    +0.001 A 
ATOM     19  C   UNL     1      10.729   0.336  24.643  0.00  0.00    +0.002 A 
ATOM     20  C   UNL     1       9.961  -0.814  24.442  0.00  0.00    +0.030 A 
BRANCH  16  21
ATOM     21  C   UNL     1       6.645   0.772  23.415  0.00  0.00    +0.339 C 
ATOM     22  O   UNL     1       6.356   1.520  22.494  0.00  0.00    -0.245 OA
BRANCH  21  23
ATOM     23  O   UNL     1       5.719   0.038  24.063  0.00  0.00    -0.477 OA
ATOM     24  H   UNL     1       6.040  -0.395  24.879  0.00  0.00    +0.295 HD
ENDBRANCH  21  23
ENDBRANCH  16  21
ENDBRANCH  14  15
ENDBRANCH   5  13
TORSDOF 7
ENDMDL
MODEL 4
REMARK VINA RESULT:      -6.1      1.683      2.781
REMARK  Name = 
REMARK  9 active torsions:
REMARK  status: ('A' for Active; 'I' for Inactive)
REMARK    1  A    between atoms: C_1  and  O_2
REMARK    2  A    between atoms: O_2  and  C_3
REMARK    3  A    between atoms: C_5  and  N_12
REMARK    4  A    between atoms: C_7  and  O_8
REMARK    5  A    between atoms: O_8  and  C_9
REMARK    6  A    between atoms: C_10  and  O_11
REMARK    7  A    between atoms: N_13  and  C_14
REMARK    8  A    between atoms: C_19  and  C_20
REMARK    9  A    between atoms: C_20  and  O_21
REMARK                            x       y       z     vdW  Elec       q    Type
REMARK                         _______ _______ _______ _____ _____    ______ ____
ROOT
ATOM      1  C   UNL     1       6.275  -5.328  25.067  0.00  0.00    +0.167 A 
ATOM      2  C   UNL     1       5.071  -5.868  24.567  0.00  0.00    +0.201 A 
ATOM      3  C   UNL     1       4.460  -5.320  23.435  0.00  0.00    +0.167 A 
ATOM      4  C   UNL     1       5.073  -4.223  22.810  0.00  0.00    +0.079 A 
ATOM      5  C   UNL     1       6.263  -3.669  23.291  0.00  0.00    +0.093 A 
ATOM      6  C   UNL     1       6.852  -4.225  24.429  0.00  0.00    +0.079 A 
ENDROOT
BRANCH   1   8
ATOM      7  C   UNL     1       7.828  -5.178  26.865  0.00  0.00    +0.277 C 
ATOM      8  O   UNL     1       6.777  -5.887  26.217  0.00  0.00    -0.491 OA
ENDBRANCH   1   8
BRANCH   2   9
ATOM      9  O   UNL     1       4.555  -6.948  25.234  0.00  0.00    -0.501 OA
ATOM     10  H   UNL     1       4.062  -7.473  24.586  0.00  0.00    +0.292 HD
ENDBRANCH   2   9
BRANCH   3  11
ATOM     11  O   UNL     1       3.313  -5.686  22.792  0.00  0.00    -0.491 OA
ATOM     12  C   UNL     1       2.042  -5.329  23.302  0.00  0.00    +0.277 C 
ENDBRANCH   3  11
BRANCH   5  13
ATOM     13  N   UNL     1       6.841  -2.513  22.730  0.00  0.00    -0.149 NA
ATOM     14  N   UNL     1       7.147  -1.666  23.597  0.00  0.00    -0.148 NA
BRANCH  14  15
ATOM     15  C   UNL     1       7.706  -0.506  23.005  0.00  0.00    +0.100 A 
ATOM     16  C   UNL     1       9.077  -0.434  22.701  0.00  0.00    +0.086 A 
ATOM     17  C   UNL     1       9.614   0.744  22.144  0.00  0.00    +0.017 A 
ATOM     18  C   UNL     1       8.804   1.853  21.907  0.00  0.00    +0.001 A 
ATOM     19  C   UNL     1       7.450   1.796  22.215  0.00  0.00    +0.002 A 
ATOM     20  C   UNL     1       6.908   0.630  22.764  0.00  0.00    +0.030 A 
BRANCH  16  21
ATOM     21  C   UNL     1      10.032  -1.557  22.902  0.00  0.00    +0.339 C 
ATOM     22  O   UNL     1      10.965  -1.759  22.141  0.00  0.00    -0.245 OA
BRANCH  21  23
ATOM     23  O   UNL     1       9.848  -2.282  24.023  0.00  0.00    -0.477 OA
ATOM     24  H   UNL     1       9.452  -3.163  23.879  0.00  0.00    +0.295 HD
ENDBRANCH  21  23
ENDBRANCH  16  21
ENDBRANCH  14  15
ENDBRANCH   5  13
TORSDOF 7
ENDMDL
MODEL 5
REMARK VINA RESULT:      -5.9      2.411      3.469
REMARK  Name = 
REMARK  9 active torsions:
REMARK  status: ('A' for Active; 'I' for Inactive)
REMARK    1  A    between atoms: C_1  and  O_2
REMARK    2  A    between atoms: O_2  and  C_3
REMARK    3  A    between atoms: C_5  and  N_12
REMARK    4  A    between atoms: C_7  and  O_8
REMARK    5  A    between atoms: O_8  and  C_9
REMARK    6  A    between atoms: C_10  and  O_11
REMARK    7  A    between atoms: N_13  and  C_14
REMARK    8  A    between atoms: C_19  and  C_20
REMARK    9  A    between atoms: C_20  and  O_21
REMARK                            x       y       z     vdW  Elec       q    Type
REMARK                         _______ _______ _______ _____ _____    ______ ____
ROOT
ATOM      1  C   UNL     1       8.108  -4.176  23.733  0.00  0.00    +0.167 A 
ATOM      2  C   UNL     1       6.880  -4.726  23.306  0.00  0.00    +0.201 A 
ATOM      3  C   UNL     1       5.819  -3.895  22.933  0.00  0.00    +0.167 A 
ATOM      4  C   UNL     1       6.006  -2.505  22.993  0.00  0.00    +0.079 A 
ATOM      5  C   UNL     1       7.212  -1.939  23.418  0.00  0.00    +0.093 A 
ATOM      6  C   UNL     1       8.256  -2.787  23.796  0.00  0.00    +0.079 A 
ENDROOT
BRANCH   1   8
ATOM      7  C   UNL     1       9.445  -5.019  25.513  0.00  0.00    +0.277 C 
ATOM      8  O   UNL     1       9.077  -5.061  24.138  0.00  0.00    -0.491 OA
ENDBRANCH   1   8
BRANCH   2   9
ATOM      9  O   UNL     1       6.796  -6.093  23.264  0.00  0.00    -0.501 OA
ATOM     10  H   UNL     1       6.045  -6.349  23.820  0.00  0.00    +0.292 HD
ENDBRANCH   2   9
BRANCH   3  11
ATOM     11  O   UNL     1       4.568  -4.213  22.491  0.00  0.00    -0.491 OA
ATOM     12  C   UNL     1       3.608  -4.784  23.360  0.00  0.00    +0.277 C 
ENDBRANCH   3  11
BRANCH   5  13
ATOM     13  N   UNL     1       7.383  -0.549  23.572  0.00  0.00    -0.149 NA
ATOM     14  N   UNL     1       8.205  -0.079  22.755  0.00  0.00    -0.148 NA
BRANCH  14  15
ATOM     15  C   UNL     1       8.374   1.316  22.944  0.00  0.00    +0.100 A 
ATOM     16  C   UNL     1       9.317   1.815  23.861  0.00  0.00    +0.086 A 
ATOM     17  C   UNL     1       9.442   3.205  24.055  0.00  0.00    +0.017 A 
ATOM     18  C   UNL     1       8.627   4.097  23.360  0.00  0.00    +0.001 A 
ATOM     19  C   UNL     1       7.685   3.613  22.461  0.00  0.00    +0.002 A 
ATOM     20  C   UNL     1       7.556   2.236  22.258  0.00  0.00    +0.030 A 
BRANCH  16  21
ATOM     21  C   UNL     1      10.244   0.958  24.648  0.00  0.00    +0.339 C 
ATOM     22  O   UNL     1      11.454   0.993  24.485  0.00  0.00    -0.245 OA
BRANCH  21  23
ATOM     23  O   UNL     1       9.668   0.206  25.606  0.00  0.00    -0.477 OA
ATOM     24  H   UNL     1       9.895  -0.744  25.571  0.00  0.00    +0.295 HD
ENDBRANCH  21  23
ENDBRANCH  16  21
ENDBRANCH  14  15
ENDBRANCH   5  13
TORSDOF 7
ENDMDL
MODEL 6
REMARK VINA RESULT:      -5.9      1.833      3.511
REMARK  Name = 
REMARK  9 active torsions:
REMARK  status: ('A' for Active; 'I' for Inactive)
REMARK    1  A    between atoms: C_1  and  O_2
REMARK    2  A    between atoms: O_2  and  C_3
REMARK    3  A    between atoms: C_5  and  N_12
REMARK    4  A    between atoms: C_7  and  O_8
REMARK    5  A    between atoms: O_8  and  C_9
REMARK    6  A    between atoms: C_10  and  O_11
REMARK    7  A    between atoms: N_13  and  C_14
REMARK    8  A    between atoms: C_19  and  C_20
REMARK    9  A    between atoms: C_20  and  O_21
REMARK                            x       y       z     vdW  Elec       q    Type
REMARK                         _______ _______ _______ _____ _____    ______ ____
ROOT
ATOM      1  C   UNL     1       6.085  -5.778  25.367  0.00  0.00    +0.167 A 
ATOM      2  C   UNL     1       5.523  -6.052  24.101  0.00  0.00    +0.201 A 
ATOM      3  C   UNL     1       5.793  -5.224  23.008  0.00  0.00    +0.167 A 
ATOM      4  C   UNL     1       6.635  -4.118  23.199  0.00  0.00    +0.079 A 
ATOM      5  C   UNL     1       7.198  -3.824  24.445  0.00  0.00    +0.093 A 
ATOM      6  C   UNL     1       6.907  -4.659  25.527  0.00  0.00    +0.079 A 
ENDROOT
BRANCH   1   8
ATOM      7  C   UNL     1       4.997  -6.010  27.471  0.00  0.00    +0.277 C 
ATOM      8  O   UNL     1       5.721  -6.606  26.400  0.00  0.00    -0.491 OA
ENDBRANCH   1   8
BRANCH   2   9
ATOM      9  O   UNL     1       4.727  -7.164  24.006  0.00  0.00    -0.501 OA
ATOM     10  H   UNL     1       4.293  -7.130  23.141  0.00  0.00    +0.292 HD
ENDBRANCH   2   9
BRANCH   3  11
ATOM     11  O   UNL     1       5.365  -5.310  21.714  0.00  0.00    -0.491 OA
ATOM     12  C   UNL     1       6.160  -5.928  20.720  0.00  0.00    +0.277 C 
ENDBRANCH   3  11
BRANCH   5  13
ATOM     13  N   UNL     1       7.969  -2.667  24.674  0.00  0.00    -0.149 NA
ATOM     14  N   UNL     1       7.769  -1.785  23.811  0.00  0.00    -0.148 NA
BRANCH  14  15
ATOM     15  C   UNL     1       8.571  -0.641  24.053  0.00  0.00    +0.100 A 
ATOM     16  C   UNL     1       8.110   0.649  23.737  0.00  0.00    +0.086 A 
ATOM     17  C   UNL     1       8.941   1.767  23.955  0.00  0.00    +0.017 A 
ATOM     18  C   UNL     1      10.228   1.607  24.466  0.00  0.00    +0.001 A 
ATOM     19  C   UNL     1      10.696   0.336  24.771  0.00  0.00    +0.002 A 
ATOM     20  C   UNL     1       9.879  -0.778  24.561  0.00  0.00    +0.030 A 
BRANCH  16  21
ATOM     21  C   UNL     1       6.754   0.937  23.197  0.00  0.00    +0.339 C 
ATOM     22  O   UNL     1       6.588   1.586  22.176  0.00  0.00    -0.245 OA
BRANCH  21  23
ATOM     23  O   UNL     1       5.731   0.365  23.861  0.00  0.00    -0.477 OA
ATOM     24  H   UNL     1       5.998  -0.224  24.593  0.00  0.00    +0.295 HD
ENDBRANCH  21  23
ENDBRANCH  16  21
ENDBRANCH  14  15
ENDBRANCH   5  13
TORSDOF 7
ENDMDL
MODEL 7
REMARK VINA RESULT:      -5.9      3.019      7.234
REMARK  Name = 
REMARK  9 active torsions:
REMARK  status: ('A' for Active; 'I' for Inactive)
REMARK    1  A    between atoms: C_1  and  O_2
REMARK    2  A    between atoms: O_2  and  C_3
REMARK    3  A    between atoms: C_5  and  N_12
REMARK    4  A    between atoms: C_7  and  O_8
REMARK    5  A    between atoms: O_8  and  C_9
REMARK    6  A    between atoms: C_10  and  O_11
REMARK    7  A    between atoms: N_13  and  C_14
REMARK    8  A    between atoms: C_19  and  C_20
REMARK    9  A    between atoms: C_20  and  O_21
REMARK                            x       y       z     vdW  Elec       q    Type
REMARK                         _______ _______ _______ _____ _____    ______ ____
ROOT
ATOM      1  C   UNL     1       7.300   2.446  22.384  0.00  0.00    +0.167 A 
ATOM      2  C   UNL     1       8.533   2.783  22.980  0.00  0.00    +0.201 A 
ATOM      3  C   UNL     1       9.342   1.796  23.551  0.00  0.00    +0.167 A 
ATOM      4  C   UNL     1       8.897   0.465  23.516  0.00  0.00    +0.079 A 
ATOM      5  C   UNL     1       7.676   0.109  22.935  0.00  0.00    +0.093 A 
ATOM      6  C   UNL     1       6.878   1.113  22.379  0.00  0.00    +0.079 A 
ENDROOT
BRANCH   1   8
ATOM      7  C   UNL     1       5.334   3.771  22.599  0.00  0.00    +0.277 C 
ATOM      8  O   UNL     1       6.540   3.483  21.899  0.00  0.00    -0.491 OA
ENDBRANCH   1   8
BRANCH   2   9
ATOM      9  O   UNL     1       8.892   4.106  22.953  0.00  0.00    -0.501 OA
ATOM     10  H   UNL     1       8.807   4.442  23.857  0.00  0.00    +0.292 HD
ENDBRANCH   2   9
BRANCH   3  11
ATOM     11  O   UNL     1      10.556   1.902  24.165  0.00  0.00    -0.491 OA
ATOM     12  C   UNL     1      11.285   0.750  24.547  0.00  0.00    +0.277 C 
ENDBRANCH   3  11
BRANCH   5  13
ATOM     13  N   UNL     1       7.174  -1.206  22.974  0.00  0.00    -0.149 NA
ATOM     14  N   UNL     1       7.974  -2.034  22.487  0.00  0.00    -0.148 NA
BRANCH  14  15
ATOM     15  C   UNL     1       7.437  -3.346  22.519  0.00  0.00    +0.100 A 
ATOM     16  C   UNL     1       7.907  -4.301  23.438  0.00  0.00    +0.086 A 
ATOM     17  C   UNL     1       7.380  -5.609  23.425  0.00  0.00    +0.017 A 
ATOM     18  C   UNL     1       6.406  -5.975  22.498  0.00  0.00    +0.001 A 
ATOM     19  C   UNL     1       5.943  -5.041  21.579  0.00  0.00    +0.002 A 
ATOM     20  C   UNL     1       6.457  -3.741  21.586  0.00  0.00    +0.030 A 
BRANCH  16  21
ATOM     21  C   UNL     1       8.934  -4.019  24.476  0.00  0.00    +0.339 C 
ATOM     22  O   UNL     1       9.869  -4.777  24.684  0.00  0.00    -0.245 OA
BRANCH  21  23
ATOM     23  O   UNL     1       8.811  -2.836  25.109  0.00  0.00    -0.477 OA
ATOM     24  H   UNL     1       8.110  -2.255  24.756  0.00  0.00    +0.295 HD
ENDBRANCH  21  23
ENDBRANCH  16  21
ENDBRANCH  14  15
ENDBRANCH   5  13
TORSDOF 7
ENDMDL
MODEL 8
REMARK VINA RESULT:      -5.8      3.035      7.346
REMARK  Name = 
REMARK  9 active torsions:
REMARK  status: ('A' for Active; 'I' for Inactive)
REMARK    1  A    between atoms: C_1  and  O_2
REMARK    2  A    between atoms: O_2  and  C_3
REMARK    3  A    between atoms: C_5  and  N_12
REMARK    4  A    between atoms: C_7  and  O_8
REMARK    5  A    between atoms: O_8  and  C_9
REMARK    6  A    between atoms: C_10  and  O_11
REMARK    7  A    between atoms: N_13  and  C_14
REMARK    8  A    between atoms: C_19  and  C_20
REMARK    9  A    between atoms: C_20  and  O_21
REMARK                            x       y       z     vdW  Elec       q    Type
REMARK                         _______ _______ _______ _____ _____    ______ ____
ROOT
ATOM      1  C   UNL     1       9.271   1.690  23.570  0.00  0.00    +0.167 A 
ATOM      2  C   UNL     1       8.495   2.739  23.032  0.00  0.00    +0.201 A 
ATOM      3  C   UNL     1       7.213   2.492  22.533  0.00  0.00    +0.167 A 
ATOM      4  C   UNL     1       6.718   1.179  22.581  0.00  0.00    +0.079 A 
ATOM      5  C   UNL     1       7.471   0.124  23.105  0.00  0.00    +0.093 A 
ATOM      6  C   UNL     1       8.755   0.391  23.590  0.00  0.00    +0.079 A 
ENDROOT
BRANCH   1   8
ATOM      7  C   UNL     1      11.331   0.939  24.498  0.00  0.00    +0.277 C 
ATOM      8  O   UNL     1      10.543   2.007  23.984  0.00  0.00    -0.491 OA
ENDBRANCH   1   8
BRANCH   2   9
ATOM      9  O   UNL     1       9.055   3.990  23.041  0.00  0.00    -0.501 OA
ATOM     10  H   UNL     1       8.849   4.387  23.900  0.00  0.00    +0.292 HD
ENDBRANCH   2   9
BRANCH   3  11
ATOM     11  O   UNL     1       6.305   3.349  21.982  0.00  0.00    -0.491 OA
ATOM     12  C   UNL     1       5.005   3.486  22.526  0.00  0.00    +0.277 C 
ENDBRANCH   3  11
BRANCH   5  13
ATOM     13  N   UNL     1       7.026  -1.211  23.077  0.00  0.00    -0.149 NA
ATOM     14  N   UNL     1       7.867  -1.982  22.566  0.00  0.00    -0.148 NA
BRANCH  14  15
ATOM     15  C   UNL     1       7.386  -3.315  22.530  0.00  0.00    +0.100 A 
ATOM     16  C   UNL     1       7.881  -4.290  23.415  0.00  0.00    +0.086 A 
ATOM     17  C   UNL     1       7.411  -5.616  23.336  0.00  0.00    +0.017 A 
ATOM     18  C   UNL     1       6.469  -5.981  22.375  0.00  0.00    +0.001 A 
ATOM     19  C   UNL     1       5.983  -5.028  21.490  0.00  0.00    +0.002 A 
ATOM     20  C   UNL     1       6.440  -3.709  21.563  0.00  0.00    +0.030 A 
BRANCH  16  21
ATOM     21  C   UNL     1       8.878  -4.011  24.484  0.00  0.00    +0.339 C 
ATOM     22  O   UNL     1       9.850  -4.726  24.665  0.00  0.00    -0.245 OA
BRANCH  21  23
ATOM     23  O   UNL     1       8.681  -2.874  25.180  0.00  0.00    -0.477 OA
ATOM     24  H   UNL     1       8.413  -2.106  24.640  0.00  0.00    +0.295 HD
ENDBRANCH  21  23
ENDBRANCH  16  21
ENDBRANCH  14  15
ENDBRANCH   5  13
TORSDOF 7
ENDMDL
MODEL 9
REMARK VINA RESULT:      -5.8      1.850      2.329
REMARK  Name = 
REMARK  9 active torsions:
REMARK  status: ('A' for Active; 'I' for Inactive)
REMARK    1  A    between atoms: C_1  and  O_2
REMARK    2  A    between atoms: O_2  and  C_3
REMARK    3  A    between atoms: C_5  and  N_12
REMARK    4  A    between atoms: C_7  and  O_8
REMARK    5  A    between atoms: O_8  and  C_9
REMARK    6  A    between atoms: C_10  and  O_11
REMARK    7  A    between atoms: N_13  and  C_14
REMARK    8  A    between atoms: C_19  and  C_20
REMARK    9  A    between atoms: C_20  and  O_21
REMARK                            x       y       z     vdW  Elec       q    Type
REMARK                         _______ _______ _______ _____ _____    ______ ____
ROOT
ATOM      1  C   UNL     1       5.933  -5.063  22.731  0.00  0.00    +0.167 A 
ATOM      2  C   UNL     1       5.800  -5.805  23.924  0.00  0.00    +0.201 A 
ATOM      3  C   UNL     1       6.461  -5.405  25.089  0.00  0.00    +0.167 A 
ATOM      4  C   UNL     1       7.255  -4.248  25.043  0.00  0.00    +0.079 A 
ATOM      5  C   UNL     1       7.404  -3.501  23.871  0.00  0.00    +0.093 A 
ATOM      6  C   UNL     1       6.744  -3.924  22.715  0.00  0.00    +0.079 A 
ENDROOT
BRANCH   1   8
ATOM      7  C   UNL     1       6.130  -5.917  20.518  0.00  0.00    +0.277 C 
ATOM      8  O   UNL     1       5.299  -5.558  21.617  0.00  0.00    -0.491 OA
ENDBRANCH   1   8
BRANCH   2   9
ATOM      9  O   UNL     1       4.991  -6.910  23.877  0.00  0.00    -0.501 OA
ATOM     10  H   UNL     1       4.422  -6.879  24.661  0.00  0.00    +0.292 HD
ENDBRANCH   2   9
BRANCH   3  11
ATOM     11  O   UNL     1       6.465  -5.966  26.334  0.00  0.00    -0.491 OA
ATOM     12  C   UNL     1       6.853  -5.219  27.471  0.00  0.00    +0.277 C 
ENDBRANCH   3  11
BRANCH   5  13
ATOM     13  N   UNL     1       8.270  -2.393  23.785  0.00  0.00    -0.149 NA
ATOM     14  N   UNL     1       7.660  -1.333  23.523  0.00  0.00    -0.148 NA
BRANCH  14  15
ATOM     15  C   UNL     1       8.555  -0.238  23.421  0.00  0.00    +0.100 A 
ATOM     16  C   UNL     1       8.837   0.574  24.534  0.00  0.00    +0.086 A 
ATOM     17  C   UNL     1       9.705   1.678  24.397  0.00  0.00    +0.017 A 
ATOM     18  C   UNL     1      10.276   1.986  23.164  0.00  0.00    +0.001 A 
ATOM     19  C   UNL     1       9.994   1.195  22.057  0.00  0.00    +0.002 A 
ATOM     20  C   UNL     1       9.139   0.097  22.183  0.00  0.00    +0.030 A 
BRANCH  16  21
ATOM     21  C   UNL     1       8.293   0.334  25.897  0.00  0.00    +0.339 C 
ATOM     22  O   UNL     1       7.543   1.127  26.444  0.00  0.00    -0.245 OA
BRANCH  21  23
ATOM     23  O   UNL     1       8.615  -0.852  26.450  0.00  0.00    -0.477 OA
ATOM     24  H   UNL     1       8.227  -1.629  26.003  0.00  0.00    +0.295 HD
ENDBRANCH  21  23
ENDBRANCH  16  21
ENDBRANCH  14  15
ENDBRANCH   5  13
TORSDOF 7
ENDMDL
