MODEL 1
REMARK VINA RESULT:      -6.2      0.000      0.000
REMARK  Name = 
REMARK  3 active torsions:
REMARK  status: ('A' for Active; 'I' for Inactive)
REMARK    1  A    between atoms: N_1  and  S_2
REMARK    2  A    between atoms: S_2  and  C_5
REMARK    3  A    between atoms: C_8  and  N_9
REMARK                            x       y       z     vdW  Elec       q    Type
REMARK                         _______ _______ _______ _____ _____    ______ ____
ROOT
ATOM      1  C   UNL     1       8.844  -3.155  25.215  0.00  0.00    +0.105 A 
ATOM      2  C   UNL     1       8.633  -2.116  26.120  0.00  0.00    +0.030 A 
ATOM      3  C   UNL     1       9.067  -0.822  25.810  0.00  0.00    +0.025 A 
ATOM      4  C   UNL     1       9.705  -0.547  24.597  0.00  0.00    +0.033 A 
ATOM      5  C   UNL     1       9.863  -1.598  23.681  0.00  0.00    +0.025 A 
ATOM      6  C   UNL     1       9.439  -2.900  23.979  0.00  0.00    +0.030 A 
ENDROOT
BRANCH   4   7
ATOM      7  N   UNL     1      10.147   0.728  24.222  0.00  0.00    -0.298 N 
ATOM      8  H   UNL     1      11.146   0.879  24.333  0.00  0.00    +0.154 HD
ATOM      9  C   UNL     1       9.523   1.953  23.998  0.00  0.00    +0.143 A 
ATOM     10  C   UNL     1       8.165   2.108  23.704  0.00  0.00    +0.154 A 
ATOM     11  N   UNL     1       7.577   3.304  23.434  0.00  0.00    -0.257 NA
ATOM     12  C   UNL     1       8.414   4.363  23.452  0.00  0.00    +0.151 A 
ATOM     13  C   UNL     1       9.760   4.223  23.734  0.00  0.00    +0.149 A 
ATOM     14 CL   UNL     1      10.822   5.568  23.745  0.00  0.00    -0.060 Cl
ATOM     15  N   UNL     1      10.339   3.032  24.009  0.00  0.00    -0.217 NA
ENDBRANCH   4   7
BRANCH   1  16
ATOM     16  S   UNL     1       8.415  -4.805  25.672  0.00  0.00    +0.056 S 
ATOM     17  O   UNL     1       8.320  -4.894  27.110  0.00  0.00    -0.153 OA
ATOM     18  O   UNL     1       7.380  -5.285  24.789  0.00  0.00    -0.153 OA
BRANCH  16  19
ATOM     19  N   UNL     1       9.818  -5.639  25.271  0.00  0.00    -0.204 NA
ATOM     20  H   UNL     1      10.630  -5.172  25.675  0.00  0.00    +0.144 HD
ATOM     21  H   UNL     1       9.725  -6.617  25.546  0.00  0.00    +0.144 HD
ENDBRANCH  16  19
ENDBRANCH   1  16
TORSDOF 3
ENDMDL
MODEL 2
REMARK VINA RESULT:      -6.1      5.324      7.615
REMARK  Name = 
REMARK  3 active torsions:
REMARK  status: ('A' for Active; 'I' for Inactive)
REMARK    1  A    between atoms: N_1  and  S_2
REMARK    2  A    between atoms: S_2  and  C_5
REMARK    3  A    between atoms: C_8  and  N_9
REMARK                            x       y       z     vdW  Elec       q    Type
REMARK                         _______ _______ _______ _____ _____    ______ ____
ROOT
ATOM      1  C   UNL     1       9.038   2.447  23.241  0.00  0.00    +0.105 A 
ATOM      2  C   UNL     1       9.853   1.825  22.295  0.00  0.00    +0.030 A 
ATOM      3  C   UNL     1       9.607   0.496  21.930  0.00  0.00    +0.025 A 
ATOM      4  C   UNL     1       8.547  -0.222  22.492  0.00  0.00    +0.033 A 
ATOM      5  C   UNL     1       7.712   0.440  23.405  0.00  0.00    +0.025 A 
ATOM      6  C   UNL     1       7.949   1.767  23.785  0.00  0.00    +0.030 A 
ENDROOT
BRANCH   4   7
ATOM      7  N   UNL     1       8.240  -1.547  22.155  0.00  0.00    -0.298 N 
ATOM      8  H   UNL     1       7.721  -1.653  21.288  0.00  0.00    +0.154 HD
ATOM      9  C   UNL     1       8.215  -2.753  22.852  0.00  0.00    +0.143 A 
ATOM     10  C   UNL     1       8.911  -2.996  24.039  0.00  0.00    +0.154 A 
ATOM     11  N   UNL     1       8.924  -4.194  24.683  0.00  0.00    -0.257 NA
ATOM     12  C   UNL     1       8.213  -5.169  24.076  0.00  0.00    +0.151 A 
ATOM     13  C   UNL     1       7.525  -4.944  22.898  0.00  0.00    +0.149 A 
ATOM     14 CL   UNL     1       6.634  -6.186  22.125  0.00  0.00    -0.060 Cl
ATOM     15  N   UNL     1       7.511  -3.748  22.266  0.00  0.00    -0.217 NA
ENDBRANCH   4   7
BRANCH   1  16
ATOM     16  S   UNL     1       9.438   4.074  23.794  0.00  0.00    +0.056 S 
ATOM     17  O   UNL     1       8.811   4.312  25.074  0.00  0.00    -0.153 OA
ATOM     18  O   UNL     1      10.837   4.325  23.552  0.00  0.00    -0.153 OA
BRANCH  16  19
ATOM     19  N   UNL     1       8.581   5.020  22.702  0.00  0.00    -0.204 NA
ATOM     20  H   UNL     1       9.225   5.556  22.121  0.00  0.00    +0.144 HD
ATOM     21  H   UNL     1       7.938   4.433  22.171  0.00  0.00    +0.144 HD
ENDBRANCH  16  19
ENDBRANCH   1  16
TORSDOF 3
ENDMDL
MODEL 3
REMARK VINA RESULT:      -6.0      1.514      2.044
REMARK  Name = 
REMARK  3 active torsions:
REMARK  status: ('A' for Active; 'I' for Inactive)
REMARK    1  A    between atoms: N_1  and  S_2
REMARK    2  A    between atoms: S_2  and  C_5
REMARK    3  A    between atoms: C_8  and  N_9
REMARK                            x       y       z     vdW  Elec       q    Type
REMARK                         _______ _______ _______ _____ _____    ______ ____
ROOT
ATOM      1  C   UNL     1       8.742  -2.521  23.489  0.00  0.00    +0.105 A 
ATOM      2  C   UNL     1       8.844  -1.991  22.204  0.00  0.00    +0.030 A 
ATOM      3  C   UNL     1       9.439  -0.739  22.012  0.00  0.00    +0.025 A 
ATOM      4  C   UNL     1       9.946  -0.008  23.091  0.00  0.00    +0.033 A 
ATOM      5  C   UNL     1       9.876  -0.584  24.369  0.00  0.00    +0.025 A 
ATOM      6  C   UNL     1       9.278  -1.833  24.578  0.00  0.00    +0.030 A 
ENDROOT
BRANCH   4   7
ATOM      7  N   UNL     1      10.568   1.241  22.962  0.00  0.00    -0.298 N 
ATOM      8  H   UNL     1      11.548   1.199  22.698  0.00  0.00    +0.154 HD
ATOM      9  C   UNL     1      10.263   2.533  23.383  0.00  0.00    +0.143 A 
ATOM     10  C   UNL     1       8.982   2.973  23.726  0.00  0.00    +0.154 A 
ATOM     11  N   UNL     1       8.686   4.251  24.083  0.00  0.00    -0.257 NA
ATOM     12  C   UNL     1       9.737   5.100  24.070  0.00  0.00    +0.151 A 
ATOM     13  C   UNL     1      11.008   4.679  23.726  0.00  0.00    +0.149 A 
ATOM     14 CL   UNL     1      12.337   5.761  23.699  0.00  0.00    -0.060 Cl
ATOM     15  N   UNL     1      11.298   3.405  23.378  0.00  0.00    -0.217 NA
ENDBRANCH   4   7
BRANCH   1  16
ATOM     16  S   UNL     1       7.870  -4.036  23.736  0.00  0.00    +0.056 S 
ATOM     17  O   UNL     1       6.901  -3.863  24.794  0.00  0.00    -0.153 OA
ATOM     18  O   UNL     1       7.533  -4.601  22.453  0.00  0.00    -0.153 OA
BRANCH  16  19
ATOM     19  N   UNL     1       9.070  -5.011  24.394  0.00  0.00    -0.204 NA
ATOM     20  H   UNL     1       9.936  -4.904  23.866  0.00  0.00    +0.144 HD
ATOM     21  H   UNL     1       9.166  -4.811  25.389  0.00  0.00    +0.144 HD
ENDBRANCH  16  19
ENDBRANCH   1  16
TORSDOF 3
ENDMDL
MODEL 4
REMARK VINA RESULT:      -5.8      5.599      7.561
REMARK  Name = 
REMARK  3 active torsions:
REMARK  status: ('A' for Active; 'I' for Inactive)
REMARK    1  A    between atoms: N_1  and  S_2
REMARK    2  A    between atoms: S_2  and  C_5
REMARK    3  A    between atoms: C_8  and  N_9
REMARK                            x       y       z     vdW  Elec       q    Type
REMARK                         _______ _______ _______ _____ _____    ______ ____
ROOT
ATOM      1  C   UNL     1       9.536   3.937  24.113  0.00  0.00    +0.105 A 
ATOM      2  C   UNL     1      10.478   3.047  23.600  0.00  0.00    +0.030 A 
ATOM      3  C   UNL     1      10.368   1.680  23.877  0.00  0.00    +0.025 A 
ATOM      4  C   UNL     1       9.318   1.184  24.656  0.00  0.00    +0.033 A 
ATOM      5  C   UNL     1       8.355   2.092  25.120  0.00  0.00    +0.025 A 
ATOM      6  C   UNL     1       8.454   3.464  24.856  0.00  0.00    +0.030 A 
ENDROOT
BRANCH   4   7
ATOM      7  N   UNL     1       9.144  -0.174  24.953  0.00  0.00    -0.298 N 
ATOM      8  H   UNL     1       9.582  -0.477  25.818  0.00  0.00    +0.154 HD
ATOM      9  C   UNL     1       8.760  -1.294  24.220  0.00  0.00    +0.143 A 
ATOM     10  C   UNL     1       8.039  -1.249  23.024  0.00  0.00    +0.154 A 
ATOM     11  N   UNL     1       7.622  -2.351  22.343  0.00  0.00    -0.257 NA
ATOM     12  C   UNL     1       7.943  -3.528  22.923  0.00  0.00    +0.151 A 
ATOM     13  C   UNL     1       8.650  -3.587  24.110  0.00  0.00    +0.149 A 
ATOM     14 CL   UNL     1       9.046  -5.081  24.848  0.00  0.00    -0.060 Cl
ATOM     15  N   UNL     1       9.068  -2.488  24.778  0.00  0.00    -0.217 NA
ENDBRANCH   4   7
BRANCH   1  16
ATOM     16  S   UNL     1       9.759   5.672  23.872  0.00  0.00    +0.056 S 
ATOM     17  O   UNL     1       9.217   6.386  25.005  0.00  0.00    -0.153 OA
ATOM     18  O   UNL     1      11.086   5.910  23.360  0.00  0.00    -0.153 OA
BRANCH  16  19
ATOM     19  N   UNL     1       8.691   5.975  22.610  0.00  0.00    -0.204 NA
ATOM     20  H   UNL     1       9.039   6.741  22.033  0.00  0.00    +0.144 HD
ATOM     21  H   UNL     1       8.520   5.114  22.092  0.00  0.00    +0.144 HD
ENDBRANCH  16  19
ENDBRANCH   1  16
TORSDOF 3
ENDMDL
MODEL 5
REMARK VINA RESULT:      -5.7      5.640      7.389
REMARK  Name = 
REMARK  3 active torsions:
REMARK  status: ('A' for Active; 'I' for Inactive)
REMARK    1  A    between atoms: N_1  and  S_2
REMARK    2  A    between atoms: S_2  and  C_5
REMARK    3  A    between atoms: C_8  and  N_9
REMARK                            x       y       z     vdW  Elec       q    Type
REMARK                         _______ _______ _______ _____ _____    ______ ____
ROOT
ATOM      1  C   UNL     1       9.293   2.412  23.553  0.00  0.00    +0.105 A 
ATOM      2  C   UNL     1       9.031   1.556  24.622  0.00  0.00    +0.030 A 
ATOM      3  C   UNL     1       8.762   0.204  24.382  0.00  0.00    +0.025 A 
ATOM      4  C   UNL     1       8.760  -0.311  23.082  0.00  0.00    +0.033 A 
ATOM      5  C   UNL     1       9.074   0.559  22.027  0.00  0.00    +0.025 A 
ATOM      6  C   UNL     1       9.340   1.916  22.251  0.00  0.00    +0.030 A 
ENDROOT
BRANCH   4   7
ATOM      7  N   UNL     1       8.515  -1.657  22.778  0.00  0.00    -0.298 N 
ATOM      8  H   UNL     1       9.255  -2.112  22.250  0.00  0.00    +0.154 HD
ATOM      9  C   UNL     1       7.383  -2.467  22.768  0.00  0.00    +0.143 A 
ATOM     10  C   UNL     1       6.210  -2.197  23.479  0.00  0.00    +0.154 A 
ATOM     11  N   UNL     1       5.129  -3.023  23.505  0.00  0.00    -0.257 NA
ATOM     12  C   UNL     1       5.270  -4.162  22.793  0.00  0.00    +0.151 A 
ATOM     13  C   UNL     1       6.427  -4.444  22.091  0.00  0.00    +0.149 A 
ATOM     14 CL   UNL     1       6.607  -5.895  21.199  0.00  0.00    -0.060 Cl
ATOM     15  N   UNL     1       7.496  -3.616  22.063  0.00  0.00    -0.217 NA
ENDBRANCH   4   7
BRANCH   1  16
ATOM     16  S   UNL     1       9.496   4.140  23.855  0.00  0.00    +0.056 S 
ATOM     17  O   UNL     1       8.871   4.483  25.110  0.00  0.00    -0.153 OA
ATOM     18  O   UNL     1      10.848   4.520  23.525  0.00  0.00    -0.153 OA
BRANCH  16  19
ATOM     19  N   UNL     1       8.504   4.806  22.673  0.00  0.00    -0.204 NA
ATOM     20  H   UNL     1       8.513   4.220  21.837  0.00  0.00    +0.144 HD
ATOM     21  H   UNL     1       7.573   4.962  23.057  0.00  0.00    +0.144 HD
ENDBRANCH  16  19
ENDBRANCH   1  16
TORSDOF 3
ENDMDL
MODEL 6
REMARK VINA RESULT:      -5.7      5.724      7.774
REMARK  Name = 
REMARK  3 active torsions:
REMARK  status: ('A' for Active; 'I' for Inactive)
REMARK    1  A    between atoms: N_1  and  S_2
REMARK    2  A    between atoms: S_2  and  C_5
REMARK    3  A    between atoms: C_8  and  N_9
REMARK                            x       y       z     vdW  Elec       q    Type
REMARK                         _______ _______ _______ _____ _____    ______ ____
ROOT
ATOM      1  C   UNL     1       8.771   0.148  23.254  0.00  0.00    +0.105 A 
ATOM      2  C   UNL     1       7.499   0.264  23.813  0.00  0.00    +0.030 A 
ATOM      3  C   UNL     1       6.538  -0.724  23.571  0.00  0.00    +0.025 A 
ATOM      4  C   UNL     1       6.834  -1.839  22.780  0.00  0.00    +0.033 A 
ATOM      5  C   UNL     1       8.135  -1.958  22.268  0.00  0.00    +0.025 A 
ATOM      6  C   UNL     1       9.106  -0.975  22.497  0.00  0.00    +0.030 A 
ENDROOT
BRANCH   4   7
ATOM      7  N   UNL     1       5.922  -2.869  22.515  0.00  0.00    -0.298 N 
ATOM      8  H   UNL     1       5.274  -2.675  21.757  0.00  0.00    +0.154 HD
ATOM      9  C   UNL     1       5.483  -3.990  23.215  0.00  0.00    +0.143 A 
ATOM     10  C   UNL     1       6.186  -4.597  24.259  0.00  0.00    +0.154 A 
ATOM     11  N   UNL     1       5.774  -5.724  24.900  0.00  0.00    -0.257 NA
ATOM     12  C   UNL     1       4.616  -6.246  24.439  0.00  0.00    +0.151 A 
ATOM     13  C   UNL     1       3.915  -5.659  23.402  0.00  0.00    +0.149 A 
ATOM     14 CL   UNL     1       2.452  -6.329  22.813  0.00  0.00    -0.060 Cl
ATOM     15  N   UNL     1       4.325  -4.534  22.774  0.00  0.00    -0.217 NA
ENDBRANCH   4   7
BRANCH   1  16
ATOM     16  S   UNL     1       9.930   1.464  23.454  0.00  0.00    +0.056 S 
ATOM     17  O   UNL     1       9.291   2.566  24.133  0.00  0.00    -0.153 OA
ATOM     18  O   UNL     1      11.197   0.917  23.872  0.00  0.00    -0.153 OA
BRANCH  16  19
ATOM     19  N   UNL     1      10.127   1.981  21.867  0.00  0.00    -0.204 NA
ATOM     20  H   UNL     1      10.835   1.415  21.399  0.00  0.00    +0.144 HD
ATOM     21  H   UNL     1       9.224   1.986  21.394  0.00  0.00    +0.144 HD
ENDBRANCH  16  19
ENDBRANCH   1  16
TORSDOF 3
ENDMDL
MODEL 7
REMARK VINA RESULT:      -5.7      5.351      7.642
REMARK  Name = 
REMARK  3 active torsions:
REMARK  status: ('A' for Active; 'I' for Inactive)
REMARK    1  A    between atoms: N_1  and  S_2
REMARK    2  A    between atoms: S_2  and  C_5
REMARK    3  A    between atoms: C_8  and  N_9
REMARK                            x       y       z     vdW  Elec       q    Type
REMARK                         _______ _______ _______ _____ _____    ______ ____
ROOT
ATOM      1  C   UNL     1       8.913   0.591  23.580  0.00  0.00    +0.105 A 
ATOM      2  C   UNL     1       7.523   0.498  23.594  0.00  0.00    +0.030 A 
ATOM      3  C   UNL     1       6.909  -0.751  23.740  0.00  0.00    +0.025 A 
ATOM      4  C   UNL     1       7.669  -1.916  23.883  0.00  0.00    +0.033 A 
ATOM      5  C   UNL     1       9.066  -1.792  23.915  0.00  0.00    +0.025 A 
ATOM      6  C   UNL     1       9.695  -0.549  23.764  0.00  0.00    +0.030 A 
ENDROOT
BRANCH   4   7
ATOM      7  N   UNL     1       7.115  -3.192  24.051  0.00  0.00    -0.298 N 
ATOM      8  H   UNL     1       6.635  -3.554  23.233  0.00  0.00    +0.154 HD
ATOM      9  C   UNL     1       6.803  -3.986  25.152  0.00  0.00    +0.143 A 
ATOM     10  C   UNL     1       7.367  -3.835  26.422  0.00  0.00    +0.154 A 
ATOM     11  N   UNL     1       7.096  -4.650  27.477  0.00  0.00    -0.257 NA
ATOM     12  C   UNL     1       6.235  -5.655  27.208  0.00  0.00    +0.151 A 
ATOM     13  C   UNL     1       5.676  -5.820  25.954  0.00  0.00    +0.149 A 
ATOM     14 CL   UNL     1       4.592  -7.102  25.614  0.00  0.00    -0.060 Cl
ATOM     15  N   UNL     1       5.943  -5.002  24.911  0.00  0.00    -0.217 NA
ENDBRANCH   4   7
BRANCH   1  16
ATOM     16  S   UNL     1       9.676   2.150  23.259  0.00  0.00    +0.056 S 
ATOM     17  O   UNL     1       8.702   3.203  23.429  0.00  0.00    -0.153 OA
ATOM     18  O   UNL     1      10.975   2.178  23.886  0.00  0.00    -0.153 OA
BRANCH  16  19
ATOM     19  N   UNL     1       9.941   2.059  21.602  0.00  0.00    -0.204 NA
ATOM     20  H   UNL     1       9.123   1.665  21.137  0.00  0.00    +0.144 HD
ATOM     21  H   UNL     1      10.214   2.976  21.248  0.00  0.00    +0.144 HD
ENDBRANCH  16  19
ENDBRANCH   1  16
TORSDOF 3
ENDMDL
MODEL 8
REMARK VINA RESULT:      -5.6      5.322      7.910
REMARK  Name = 
REMARK  3 active torsions:
REMARK  status: ('A' for Active; 'I' for Inactive)
REMARK    1  A    between atoms: N_1  and  S_2
REMARK    2  A    between atoms: S_2  and  C_5
REMARK    3  A    between atoms: C_8  and  N_9
REMARK                            x       y       z     vdW  Elec       q    Type
REMARK                         _______ _______ _______ _____ _____    ______ ____
ROOT
ATOM      1  C   UNL     1       9.153  -0.719  24.001  0.00  0.00    +0.105 A 
ATOM      2  C   UNL     1       9.775  -1.962  23.889  0.00  0.00    +0.030 A 
ATOM      3  C   UNL     1       9.007  -3.131  23.925  0.00  0.00    +0.025 A 
ATOM      4  C   UNL     1       7.617  -3.077  24.063  0.00  0.00    +0.033 A 
ATOM      5  C   UNL     1       7.009  -1.815  24.125  0.00  0.00    +0.025 A 
ATOM      6  C   UNL     1       7.764  -0.635  24.096  0.00  0.00    +0.030 A 
ENDROOT
BRANCH   4   7
ATOM      7  N   UNL     1       6.793  -4.210  24.088  0.00  0.00    -0.298 N 
ATOM      8  H   UNL     1       6.279  -4.377  23.228  0.00  0.00    +0.154 HD
ATOM      9  C   UNL     1       6.272  -5.018  25.096  0.00  0.00    +0.143 A 
ATOM     10  C   UNL     1       6.803  -5.118  26.385  0.00  0.00    +0.154 A 
ATOM     11  N   UNL     1       6.319  -5.951  27.345  0.00  0.00    -0.257 NA
ATOM     12  C   UNL     1       5.272  -6.712  26.959  0.00  0.00    +0.151 A 
ATOM     13  C   UNL     1       4.741  -6.628  25.685  0.00  0.00    +0.149 A 
ATOM     14 CL   UNL     1       3.420  -7.602  25.194  0.00  0.00    -0.060 Cl
ATOM     15  N   UNL     1       5.222  -5.792  24.736  0.00  0.00    -0.217 NA
ENDBRANCH   4   7
BRANCH   1  16
ATOM     16  S   UNL     1      10.140   0.741  24.091  0.00  0.00    +0.056 S 
ATOM     17  O   UNL     1      11.304   0.482  24.906  0.00  0.00    -0.153 OA
ATOM     18  O   UNL     1      10.221   1.337  22.780  0.00  0.00    -0.153 OA
BRANCH  16  19
ATOM     19  N   UNL     1       9.167   1.747  25.020  0.00  0.00    -0.204 NA
ATOM     20  H   UNL     1       8.228   1.357  25.093  0.00  0.00    +0.144 HD
ATOM     21  H   UNL     1       9.614   1.919  25.921  0.00  0.00    +0.144 HD
ENDBRANCH  16  19
ENDBRANCH   1  16
TORSDOF 3
ENDMDL
MODEL 9
REMARK VINA RESULT:      -5.5      1.311      2.078
REMARK  Name = 
REMARK  3 active torsions:
REMARK  status: ('A' for Active; 'I' for Inactive)
REMARK    1  A    between atoms: N_1  and  S_2
REMARK    2  A    between atoms: S_2  and  C_5
REMARK    3  A    between atoms: C_8  and  N_9
REMARK                            x       y       z     vdW  Elec       q    Type
REMARK                         _______ _______ _______ _____ _____    ______ ____
ROOT
ATOM      1  C   UNL     1       8.689  -2.941  25.420  0.00  0.00    +0.105 A 
ATOM      2  C   UNL     1       9.022  -2.267  24.247  0.00  0.00    +0.030 A 
ATOM      3  C   UNL     1       8.976  -0.868  24.209  0.00  0.00    +0.025 A 
ATOM      4  C   UNL     1       8.609  -0.129  25.337  0.00  0.00    +0.033 A 
ATOM      5  C   UNL     1       8.325  -0.827  26.521  0.00  0.00    +0.025 A 
ATOM      6  C   UNL     1       8.361  -2.226  26.572  0.00  0.00    +0.030 A 
ENDROOT
BRANCH   4   7
ATOM      7  N   UNL     1       8.560   1.271  25.368  0.00  0.00    -0.298 N 
ATOM      8  H   UNL     1       7.737   1.656  25.822  0.00  0.00    +0.154 HD
ATOM      9  C   UNL     1       9.218   2.288  24.680  0.00  0.00    +0.143 A 
ATOM     10  C   UNL     1      10.442   2.136  24.023  0.00  0.00    +0.154 A 
ATOM     11  N   UNL     1      11.103   3.149  23.400  0.00  0.00    -0.257 NA
ATOM     12  C   UNL     1      10.491   4.351  23.472  0.00  0.00    +0.151 A 
ATOM     13  C   UNL     1       9.284   4.517  24.125  0.00  0.00    +0.149 A 
ATOM     14 CL   UNL     1       8.517   6.045  24.224  0.00  0.00    -0.060 Cl
ATOM     15  N   UNL     1       8.628   3.505  24.736  0.00  0.00    -0.217 NA
ENDBRANCH   4   7
BRANCH   1  16
ATOM     16  S   UNL     1       8.619  -4.705  25.418  0.00  0.00    +0.056 S 
ATOM     17  O   UNL     1       7.239  -5.128  25.357  0.00  0.00    -0.153 OA
ATOM     18  O   UNL     1       9.633  -5.216  24.530  0.00  0.00    -0.153 OA
BRANCH  16  19
ATOM     19  N   UNL     1       9.119  -5.063  26.982  0.00  0.00    -0.204 NA
ATOM     20  H   UNL     1      10.138  -5.093  27.025  0.00  0.00    +0.144 HD
ATOM     21  H   UNL     1       8.698  -4.403  27.635  0.00  0.00    +0.144 HD
ENDBRANCH  16  19
ENDBRANCH   1  16
TORSDOF 3
ENDMDL
