MODEL 1
REMARK VINA RESULT:      -7.3      0.000      0.000
REMARK  Name = 
REMARK  25 active torsions:
REMARK  status: ('A' for Active; 'I' for Inactive)
REMARK    1  A    between atoms: N_1  and  CA_2
REMARK    2  A    between atoms: CA_2  and  C_4
REMARK    3  A    between atoms: CA_2  and  C_62
REMARK    4  A    between atoms: C_4  and  C_5
REMARK    5  A    between atoms: C_5  and  C_7
REMARK    6  A    between atoms: C_7  and  O_9
REMARK    7  A    between atoms: C_7  and  C_10
REMARK    8  A    between atoms: N_13  and  C_19
REMARK    9  A    between atoms: C_15  and  C_16
REMARK   10  A    between atoms: C_22  and  C_24
REMARK   11  A    between atoms: C_24  and  O_25
REMARK   12  A    between atoms: O_25  and  P_26
REMARK   13  A    between atoms: P_26  and  O_27
REMARK   14  A    between atoms: P_26  and  O_29
REMARK   15  A    between atoms: O_29  and  P_30
REMARK   16  A    between atoms: P_30  and  O_31
REMARK   17  A    between atoms: P_30  and  O_33
REMARK   18  A    between atoms: O_33  and  C_34
REMARK   19  A    between atoms: C_34  and  C_35
REMARK   20  A    between atoms: C_38  and  N_46
REMARK   21  A    between atoms: C_40  and  O_42
REMARK   22  A    between atoms: C_43  and  O_45
REMARK   23  A    between atoms: C_56  and  O_58
REMARK   24  A    between atoms: C_59  and  O_61
REMARK   25  A    between atoms: C_62  and  O_63
REMARK                            x       y       z     vdW  Elec       q    Type
REMARK                         _______ _______ _______ _____ _____    ______ ____
ROOT
ATOM      1  C   UNL     1       7.082   0.574  25.850  0.00  0.00    +0.439 C 
ATOM      2  C   UNL     1       7.352   0.209  27.315  0.00  0.00    +0.244 C 
ATOM      3  C   UNL     1       5.992  -0.176  27.885  0.00  0.00    +0.183 C 
ATOM      4  C   UNL     1       5.020  -0.102  26.711  0.00  0.00    +0.183 C 
ATOM      5  O   UNL     1       5.830  -0.066  25.516  0.00  0.00    -0.309 OA
ENDROOT
BRANCH   1   9
ATOM      6  C   UNL     1       7.160   4.831  25.179  0.00  0.00    +0.011 A 
ATOM      7  C   UNL     1       6.903   3.937  24.132  0.00  0.00    +0.106 A 
ATOM      8  C   UNL     1       6.842   2.562  24.391  0.00  0.00    +0.325 A 
ATOM      9  N   UNL     1       7.049   2.061  25.636  0.00  0.00    -0.173 N 
ATOM     10  C   UNL     1       7.186   2.905  26.681  0.00  0.00    +0.312 A 
ATOM     11  C   UNL     1       7.248   4.278  26.470  0.00  0.00    +0.077 A 
BRANCH   7  12
ATOM     12  C   UNL     1       6.813   4.294  22.699  0.00  0.00    +0.248 C 
ATOM     13  O   UNL     1       7.693   3.892  21.948  0.00  0.00    -0.270 OA
ATOM     14  N   UNL     1       5.780   5.038  22.234  0.00  0.00    -0.325 N 
ATOM     15  H   UNL     1       5.752   5.228  21.244  0.00  0.00    +0.145 HD
ATOM     16  H   UNL     1       4.891   5.163  22.680  0.00  0.00    +0.145 HD
ENDBRANCH   7  12
BRANCH   6  17
ATOM     17  C   UNL     1       7.347   6.337  25.028  0.00  0.00    +0.211 C 
BRANCH  17  18
ATOM     18  C   UNL     1       8.522   6.660  24.079  0.00  0.00    +0.168 C 
ATOM     19  O   UNL     1       8.342   6.985  22.900  0.00  0.00    -0.294 OA
BRANCH  18  20
ATOM     20  C   UNL     1       9.933   6.593  24.649  0.00  0.00    +0.107 C 
BRANCH  20  21
ATOM     21  CA  UNL     1      10.928   5.954  23.665  0.00  0.00    +0.168 C 
BRANCH  21  22
ATOM     22  N   UNL     1      10.632   4.530  23.347  0.00  0.00    -0.318 NA
ATOM     23  H1  UNL     1      10.518   4.442  22.324  0.00  0.00    +0.119 HD
ATOM     24  H2  UNL     1      11.462   3.966  23.553  0.00  0.00    +0.119 HD
ENDBRANCH  21  22
BRANCH  21  25
ATOM     25  C   UNL     1      12.335   6.042  24.266  0.00  0.00    +0.322 C 
ATOM     26  OXT UNL     1      12.595   6.588  25.325  0.00  0.00    -0.249 OA
BRANCH  25  27
ATOM     27  O   UNL     1      13.242   5.324  23.563  0.00  0.00    -0.480 OA
ATOM     28  H   UNL     1      13.787   5.979  23.056  0.00  0.00    +0.295 HD
ENDBRANCH  25  27
ENDBRANCH  21  25
ENDBRANCH  20  21
ENDBRANCH  18  20
ENDBRANCH  17  18
BRANCH  17  29
ATOM     29  O   UNL     1       6.115   6.844  24.518  0.00  0.00    -0.380 OA
ATOM     30  H   UNL     1       5.605   6.121  24.113  0.00  0.00    +0.211 HD
ENDBRANCH  17  29
ENDBRANCH   6  17
ENDBRANCH   1   9
BRANCH   2  31
ATOM     31  O   UNL     1       8.294  -0.870  27.392  0.00  0.00    -0.380 OA
ATOM     32  H   UNL     1       9.209  -0.535  27.423  0.00  0.00    +0.210 HD
ENDBRANCH   2  31
BRANCH   3  33
ATOM     33  O   UNL     1       5.606   0.781  28.866  0.00  0.00    -0.386 OA
ATOM     34  H   UNL     1       6.152   0.647  29.665  0.00  0.00    +0.210 HD
ENDBRANCH   3  33
BRANCH   4  35
ATOM     35  C   UNL     1       4.014  -1.268  26.743  0.00  0.00    +0.206 C 
BRANCH  35  36
ATOM     36  O   UNL     1       4.685  -2.504  26.918  0.00  0.00    -0.284 OA
BRANCH  36  37
ATOM     37  P   UNL     1       4.320  -3.748  25.875  0.00  0.00    +0.483 P 
ATOM     38  O   UNL     1       2.797  -3.577  25.717  0.00  0.00    -0.227 OA
BRANCH  37  39
ATOM     39  O   UNL     1       4.518  -2.672  24.536  0.00  0.00    -0.302 OA
ATOM     40  H   UNL     1       5.297  -2.136  24.799  0.00  0.00    +0.222 HD
ENDBRANCH  37  39
BRANCH  37  41
ATOM     41  O   UNL     1       4.123  -4.824  27.216  0.00  0.00    -0.186 OA
BRANCH  41  42
ATOM     42  P   UNL     1       5.446  -5.701  26.593  0.00  0.00    +0.483 P 
ATOM     43  O   UNL     1       5.533  -5.553  25.102  0.00  0.00    -0.227 OA
BRANCH  42  44
ATOM     44  O   UNL     1       4.957  -7.187  27.011  0.00  0.00    -0.302 OA
ATOM     45  H   UNL     1       5.246  -7.868  26.362  0.00  0.00    +0.222 HD
ENDBRANCH  42  44
BRANCH  42  46
ATOM     46  O   UNL     1       6.917  -5.832  27.285  0.00  0.00    -0.284 OA
BRANCH  46  47
ATOM     47  C   UNL     1       7.591  -4.527  27.143  0.00  0.00    +0.206 C 
BRANCH  47  48
ATOM     48  C   UNL     1       8.784  -4.199  26.247  0.00  0.00    +0.178 C 
ATOM     49  C   UNL     1       9.175  -5.200  25.172  0.00  0.00    +0.178 C 
ATOM     50  C   UNL     1       8.697  -4.573  23.870  0.00  0.00    +0.195 C 
ATOM     51  C   UNL     1       8.097  -3.219  24.294  0.00  0.00    +0.253 C 
ATOM     52  O   UNL     1       8.581  -2.947  25.617  0.00  0.00    -0.346 OA
BRANCH  51  53
ATOM     53  N   UNL     1       8.421  -2.059  23.503  0.00  0.00    -0.286 N 
ATOM     54  C   UNL     1       9.269  -1.034  23.813  0.00  0.00    +0.167 A 
ATOM     55  N   UNL     1       9.998  -0.867  24.930  0.00  0.00    -0.216 NA
ATOM     56  C   UNL     1      10.661   0.308  24.889  0.00  0.00    +0.225 A 
ATOM     57  N   UNL     1      10.662   1.244  23.912  0.00  0.00    -0.219 NA
ATOM     58  C   UNL     1       9.935   1.009  22.798  0.00  0.00    +0.147 A 
ATOM     59  N   UNL     1       9.923   1.956  21.786  0.00  0.00    -0.341 N 
ATOM     60  H   UNL     1       9.123   1.873  21.166  0.00  0.00    +0.144 HD
ATOM     61  H   UNL     1      10.151   2.881  22.129  0.00  0.00    +0.144 HD
ATOM     62  C   UNL     1       9.192  -0.178  22.726  0.00  0.00    +0.147 A 
ATOM     63  N   UNL     1       8.362  -0.680  21.749  0.00  0.00    -0.231 NA
ATOM     64  C   UNL     1       7.928  -1.823  22.241  0.00  0.00    +0.203 A 
ENDBRANCH  51  53
BRANCH  50  65
ATOM     65  O   UNL     1       7.707  -5.412  23.272  0.00  0.00    -0.385 OA
ATOM     66  H   UNL     1       8.112  -5.771  22.455  0.00  0.00    +0.210 HD
ENDBRANCH  50  65
BRANCH  49  67
ATOM     67  O   UNL     1      10.612  -5.330  25.141  0.00  0.00    -0.386 OA
ATOM     68  H   UNL     1      10.971  -5.209  26.039  0.00  0.00    +0.210 HD
ENDBRANCH  49  67
ENDBRANCH  47  48
ENDBRANCH  46  47
ENDBRANCH  42  46
ENDBRANCH  41  42
ENDBRANCH  37  41
ENDBRANCH  36  37
ENDBRANCH  35  36
ENDBRANCH   4  35
TORSDOF 25
ENDMDL
MODEL 2
REMARK VINA RESULT:      -7.3      1.554      2.222
REMARK  Name = 
REMARK  25 active torsions:
REMARK  status: ('A' for Active; 'I' for Inactive)
REMARK    1  A    between atoms: N_1  and  CA_2
REMARK    2  A    between atoms: CA_2  and  C_4
REMARK    3  A    between atoms: CA_2  and  C_62
REMARK    4  A    between atoms: C_4  and  C_5
REMARK    5  A    between atoms: C_5  and  C_7
REMARK    6  A    between atoms: C_7  and  O_9
REMARK    7  A    between atoms: C_7  and  C_10
REMARK    8  A    between atoms: N_13  and  C_19
REMARK    9  A    between atoms: C_15  and  C_16
REMARK   10  A    between atoms: C_22  and  C_24
REMARK   11  A    between atoms: C_24  and  O_25
REMARK   12  A    between atoms: O_25  and  P_26
REMARK   13  A    between atoms: P_26  and  O_27
REMARK   14  A    between atoms: P_26  and  O_29
REMARK   15  A    between atoms: O_29  and  P_30
REMARK   16  A    between atoms: P_30  and  O_31
REMARK   17  A    between atoms: P_30  and  O_33
REMARK   18  A    between atoms: O_33  and  C_34
REMARK   19  A    between atoms: C_34  and  C_35
REMARK   20  A    between atoms: C_38  and  N_46
REMARK   21  A    between atoms: C_40  and  O_42
REMARK   22  A    between atoms: C_43  and  O_45
REMARK   23  A    between atoms: C_56  and  O_58
REMARK   24  A    between atoms: C_59  and  O_61
REMARK   25  A    between atoms: C_62  and  O_63
REMARK                            x       y       z     vdW  Elec       q    Type
REMARK                         _______ _______ _______ _____ _____    ______ ____
ROOT
ATOM      1  C   UNL     1       6.276   1.107  27.773  0.00  0.00    +0.439 C 
ATOM      2  C   UNL     1       4.795   1.293  28.121  0.00  0.00    +0.244 C 
ATOM      3  C   UNL     1       4.053   0.292  27.242  0.00  0.00    +0.183 C 
ATOM      4  C   UNL     1       5.137  -0.482  26.498  0.00  0.00    +0.183 C 
ATOM      5  O   UNL     1       6.376  -0.211  27.189  0.00  0.00    -0.309 OA
ENDROOT
BRANCH   1   9
ATOM      6  C   UNL     1       7.591   4.160  25.027  0.00  0.00    +0.011 A 
ATOM      7  C   UNL     1       6.537   4.393  25.919  0.00  0.00    +0.106 A 
ATOM      8  C   UNL     1       6.161   3.395  26.829  0.00  0.00    +0.325 A 
ATOM      9  N   UNL     1       6.780   2.187  26.856  0.00  0.00    -0.173 N 
ATOM     10  C   UNL     1       7.870   1.977  26.086  0.00  0.00    +0.312 A 
ATOM     11  C   UNL     1       8.279   2.941  25.173  0.00  0.00    +0.077 A 
BRANCH   7  12
ATOM     12  C   UNL     1       5.656   5.582  25.918  0.00  0.00    +0.248 C 
ATOM     13  O   UNL     1       4.570   5.495  25.359  0.00  0.00    -0.270 OA
ATOM     14  N   UNL     1       6.040   6.729  26.528  0.00  0.00    -0.325 N 
ATOM     15  H   UNL     1       5.390   7.500  26.523  0.00  0.00    +0.145 HD
ATOM     16  H   UNL     1       6.742   6.817  27.239  0.00  0.00    +0.145 HD
ENDBRANCH   7  12
BRANCH   6  17
ATOM     17  C   UNL     1       8.042   5.114  23.926  0.00  0.00    +0.211 C 
BRANCH  17  18
ATOM     18  C   UNL     1       9.087   6.120  24.453  0.00  0.00    +0.168 C 
ATOM     19  O   UNL     1       8.924   6.741  25.510  0.00  0.00    -0.294 OA
BRANCH  18  20
ATOM     20  C   UNL     1      10.360   6.312  23.639  0.00  0.00    +0.107 C 
BRANCH  20  21
ATOM     21  CA  UNL     1      11.592   5.712  24.338  0.00  0.00    +0.168 C 
BRANCH  21  22
ATOM     22  N   UNL     1      12.529   6.730  24.888  0.00  0.00    -0.318 NA
ATOM     23  H1  UNL     1      12.040   7.640  24.919  0.00  0.00    +0.119 HD
ATOM     24  H2  UNL     1      12.712   6.514  25.872  0.00  0.00    +0.119 HD
ENDBRANCH  21  22
BRANCH  21  25
ATOM     25  C   UNL     1      12.350   4.841  23.330  0.00  0.00    +0.322 C 
ATOM     26  OXT UNL     1      13.563   4.838  23.201  0.00  0.00    -0.249 OA
BRANCH  25  27
ATOM     27  O   UNL     1      11.537   3.968  22.690  0.00  0.00    -0.480 OA
ATOM     28  H   UNL     1      10.930   3.593  23.377  0.00  0.00    +0.295 HD
ENDBRANCH  25  27
ENDBRANCH  21  25
ENDBRANCH  20  21
ENDBRANCH  18  20
ENDBRANCH  17  18
BRANCH  17  29
ATOM     29  O   UNL     1       8.585   4.298  22.889  0.00  0.00    -0.380 OA
ATOM     30  H   UNL     1       8.125   3.442  22.870  0.00  0.00    +0.211 HD
ENDBRANCH  17  29
ENDBRANCH   6  17
ENDBRANCH   1   9
BRANCH   2  31
ATOM     31  O   UNL     1       4.578   1.048  29.517  0.00  0.00    -0.380 OA
ATOM     32  H   UNL     1       4.947   1.769  30.061  0.00  0.00    +0.210 HD
ENDBRANCH   2  31
BRANCH   3  33
ATOM     33  O   UNL     1       3.256   0.997  26.297  0.00  0.00    -0.386 OA
ATOM     34  H   UNL     1       2.704   0.354  25.811  0.00  0.00    +0.210 HD
ENDBRANCH   3  33
BRANCH   4  35
ATOM     35  C   UNL     1       4.794  -1.980  26.406  0.00  0.00    +0.206 C 
BRANCH  35  36
ATOM     36  O   UNL     1       4.392  -2.322  25.090  0.00  0.00    -0.284 OA
BRANCH  36  37
ATOM     37  P   UNL     1       4.526  -3.912  24.619  0.00  0.00    +0.483 P 
ATOM     38  O   UNL     1       3.148  -4.156  23.973  0.00  0.00    -0.227 OA
BRANCH  37  39
ATOM     39  O   UNL     1       5.091  -3.395  23.068  0.00  0.00    -0.302 OA
ATOM     40  H   UNL     1       6.019  -3.715  23.055  0.00  0.00    +0.222 HD
ENDBRANCH  37  39
BRANCH  37  41
ATOM     41  O   UNL     1       3.961  -4.428  26.171  0.00  0.00    -0.186 OA
BRANCH  41  42
ATOM     42  P   UNL     1       5.141  -5.656  26.093  0.00  0.00    +0.483 P 
ATOM     43  O   UNL     1       5.531  -5.936  24.672  0.00  0.00    -0.227 OA
BRANCH  42  44
ATOM     44  O   UNL     1       4.258  -6.865  26.712  0.00  0.00    -0.302 OA
ATOM     45  H   UNL     1       3.331  -6.591  26.894  0.00  0.00    +0.222 HD
ENDBRANCH  42  44
BRANCH  42  46
ATOM     46  O   UNL     1       6.391  -5.847  27.123  0.00  0.00    -0.284 OA
BRANCH  46  47
ATOM     47  C   UNL     1       7.186  -4.605  27.089  0.00  0.00    +0.206 C 
BRANCH  47  48
ATOM     48  C   UNL     1       8.522  -4.385  26.382  0.00  0.00    +0.178 C 
ATOM     49  C   UNL     1       8.935  -5.370  25.300  0.00  0.00    +0.178 C 
ATOM     50  C   UNL     1       8.721  -4.619  23.994  0.00  0.00    +0.195 C 
ATOM     51  C   UNL     1       8.234  -3.224  24.429  0.00  0.00    +0.253 C 
ATOM     52  O   UNL     1       8.560  -3.086  25.820  0.00  0.00    -0.346 OA
BRANCH  51  53
ATOM     53  N   UNL     1       8.801  -2.075  23.770  0.00  0.00    -0.286 N 
ATOM     54  C   UNL     1       8.163  -0.946  23.339  0.00  0.00    +0.167 A 
ATOM     55  N   UNL     1       6.856  -0.645  23.428  0.00  0.00    -0.216 NA
ATOM     56  C   UNL     1       6.602   0.536  22.826  0.00  0.00    +0.225 A 
ATOM     57  N   UNL     1       7.467   1.369  22.204  0.00  0.00    -0.219 NA
ATOM     58  C   UNL     1       8.774   1.031  22.171  0.00  0.00    +0.147 A 
ATOM     59  N   UNL     1       9.676   1.872  21.537  0.00  0.00    -0.341 N 
ATOM     60  H   UNL     1      10.536   1.408  21.265  0.00  0.00    +0.144 HD
ATOM     61  H   UNL     1       9.225   2.459  20.846  0.00  0.00    +0.144 HD
ATOM     62  C   UNL     1       9.162  -0.183  22.757  0.00  0.00    +0.147 A 
ATOM     63  N   UNL     1      10.390  -0.794  22.867  0.00  0.00    -0.231 NA
ATOM     64  C   UNL     1      10.140  -1.924  23.499  0.00  0.00    +0.203 A 
ENDBRANCH  51  53
BRANCH  50  65
ATOM     65  O   UNL     1       7.729  -5.292  23.215  0.00  0.00    -0.385 OA
ATOM     66  H   UNL     1       7.011  -4.642  23.070  0.00  0.00    +0.210 HD
ENDBRANCH  50  65
BRANCH  49  67
ATOM     67  O   UNL     1      10.337  -5.681  25.448  0.00  0.00    -0.386 OA
ATOM     68  H   UNL     1      10.807  -4.907  25.809  0.00  0.00    +0.210 HD
ENDBRANCH  49  67
ENDBRANCH  47  48
ENDBRANCH  46  47
ENDBRANCH  42  46
ENDBRANCH  41  42
ENDBRANCH  37  41
ENDBRANCH  36  37
ENDBRANCH  35  36
ENDBRANCH   4  35
TORSDOF 25
ENDMDL
MODEL 3
REMARK VINA RESULT:      -7.2      1.504      1.857
REMARK  Name = 
REMARK  25 active torsions:
REMARK  status: ('A' for Active; 'I' for Inactive)
REMARK    1  A    between atoms: N_1  and  CA_2
REMARK    2  A    between atoms: CA_2  and  C_4
REMARK    3  A    between atoms: CA_2  and  C_62
REMARK    4  A    between atoms: C_4  and  C_5
REMARK    5  A    between atoms: C_5  and  C_7
REMARK    6  A    between atoms: C_7  and  O_9
REMARK    7  A    between atoms: C_7  and  C_10
REMARK    8  A    between atoms: N_13  and  C_19
REMARK    9  A    between atoms: C_15  and  C_16
REMARK   10  A    between atoms: C_22  and  C_24
REMARK   11  A    between atoms: C_24  and  O_25
REMARK   12  A    between atoms: O_25  and  P_26
REMARK   13  A    between atoms: P_26  and  O_27
REMARK   14  A    between atoms: P_26  and  O_29
REMARK   15  A    between atoms: O_29  and  P_30
REMARK   16  A    between atoms: P_30  and  O_31
REMARK   17  A    between atoms: P_30  and  O_33
REMARK   18  A    between atoms: O_33  and  C_34
REMARK   19  A    between atoms: C_34  and  C_35
REMARK   20  A    between atoms: C_38  and  N_46
REMARK   21  A    between atoms: C_40  and  O_42
REMARK   22  A    between atoms: C_43  and  O_45
REMARK   23  A    between atoms: C_56  and  O_58
REMARK   24  A    between atoms: C_59  and  O_61
REMARK   25  A    between atoms: C_62  and  O_63
REMARK                            x       y       z     vdW  Elec       q    Type
REMARK                         _______ _______ _______ _____ _____    ______ ____
ROOT
ATOM      1  C   UNL     1       6.121  -0.164  25.661  0.00  0.00    +0.439 C 
ATOM      2  C   UNL     1       6.539  -0.549  27.085  0.00  0.00    +0.244 C 
ATOM      3  C   UNL     1       5.304  -1.202  27.698  0.00  0.00    +0.183 C 
ATOM      4  C   UNL     1       4.267  -1.244  26.580  0.00  0.00    +0.183 C 
ATOM      5  O   UNL     1       4.985  -1.001  25.350  0.00  0.00    -0.309 OA
ENDROOT
BRANCH   1   9
ATOM      6  C   UNL     1       5.395   4.062  25.227  0.00  0.00    +0.011 A 
ATOM      7  C   UNL     1       5.086   3.164  24.197  0.00  0.00    +0.106 A 
ATOM      8  C   UNL     1       5.294   1.792  24.385  0.00  0.00    +0.325 A 
ATOM      9  N   UNL     1       5.813   1.302  25.540  0.00  0.00    -0.173 N 
ATOM     10  C   UNL     1       6.015   2.131  26.587  0.00  0.00    +0.312 A 
ATOM     11  C   UNL     1       5.817   3.500  26.445  0.00  0.00    +0.077 A 
BRANCH   7  12
ATOM     12  C   UNL     1       4.666   3.537  22.828  0.00  0.00    +0.248 C 
ATOM     13  O   UNL     1       3.467   3.649  22.603  0.00  0.00    -0.270 OA
ATOM     14  N   UNL     1       5.585   3.756  21.857  0.00  0.00    -0.325 N 
ATOM     15  H   UNL     1       5.246   4.036  20.949  0.00  0.00    +0.145 HD
ATOM     16  H   UNL     1       6.554   3.975  21.995  0.00  0.00    +0.145 HD
ENDBRANCH   7  12
BRANCH   6  17
ATOM     17  C   UNL     1       5.310   5.582  25.127  0.00  0.00    +0.211 C 
BRANCH  17  18
ATOM     18  C   UNL     1       6.360   6.136  24.139  0.00  0.00    +0.168 C 
ATOM     19  O   UNL     1       6.041   6.635  23.055  0.00  0.00    -0.294 OA
BRANCH  18  20
ATOM     20  C   UNL     1       7.824   6.076  24.555  0.00  0.00    +0.107 C 
BRANCH  20  21
ATOM     21  CA  UNL     1       8.751   5.753  23.371  0.00  0.00    +0.168 C 
BRANCH  21  22
ATOM     22  N   UNL     1       8.467   4.444  22.722  0.00  0.00    -0.318 NA
ATOM     23  H1  UNL     1       9.310   4.147  22.203  0.00  0.00    +0.119 HD
ATOM     24  H2  UNL     1       8.360   3.730  23.449  0.00  0.00    +0.119 HD
ENDBRANCH  21  22
BRANCH  21  25
ATOM     25  C   UNL     1      10.200   5.749  23.871  0.00  0.00    +0.322 C 
ATOM     26  OXT UNL     1      10.596   6.390  24.830  0.00  0.00    -0.249 OA
BRANCH  25  27
ATOM     27  O   UNL     1      10.968   4.846  23.218  0.00  0.00    -0.480 OA
ATOM     28  H   UNL     1      11.876   5.240  23.157  0.00  0.00    +0.295 HD
ENDBRANCH  25  27
ENDBRANCH  21  25
ENDBRANCH  20  21
ENDBRANCH  18  20
ENDBRANCH  17  18
BRANCH  17  29
ATOM     29  O   UNL     1       3.984   5.880  24.693  0.00  0.00    -0.380 OA
ATOM     30  H   UNL     1       3.866   6.844  24.636  0.00  0.00    +0.211 HD
ENDBRANCH  17  29
ENDBRANCH   6  17
ENDBRANCH   1   9
BRANCH   2  31
ATOM     31  O   UNL     1       7.660  -1.444  27.050  0.00  0.00    -0.380 OA
ATOM     32  H   UNL     1       8.305  -1.224  27.746  0.00  0.00    +0.210 HD
ENDBRANCH   2  31
BRANCH   3  33
ATOM     33  O   UNL     1       4.815  -0.382  28.753  0.00  0.00    -0.386 OA
ATOM     34  H   UNL     1       5.551  -0.188  29.366  0.00  0.00    +0.210 HD
ENDBRANCH   3  33
BRANCH   4  35
ATOM     35  C   UNL     1       3.486  -2.571  26.590  0.00  0.00    +0.206 C 
BRANCH  35  36
ATOM     36  O   UNL     1       4.078  -3.507  25.704  0.00  0.00    -0.284 OA
BRANCH  36  37
ATOM     37  P   UNL     1       4.183  -5.093  26.196  0.00  0.00    +0.483 P 
ATOM     38  O   UNL     1       2.757  -5.345  26.721  0.00  0.00    -0.227 OA
BRANCH  37  39
ATOM     39  O   UNL     1       3.632  -5.603  24.638  0.00  0.00    -0.302 OA
ATOM     40  H   UNL     1       4.391  -6.124  24.296  0.00  0.00    +0.222 HD
ENDBRANCH  37  39
BRANCH  37  41
ATOM     41  O   UNL     1       4.735  -4.581  27.754  0.00  0.00    -0.186 OA
BRANCH  41  42
ATOM     42  P   UNL     1       6.268  -5.181  27.309  0.00  0.00    +0.483 P 
ATOM     43  O   UNL     1       6.136  -6.373  26.407  0.00  0.00    -0.227 OA
BRANCH  42  44
ATOM     44  O   UNL     1       6.785  -5.610  28.783  0.00  0.00    -0.302 OA
ATOM     45  H   UNL     1       7.347  -4.915  29.195  0.00  0.00    +0.222 HD
ENDBRANCH  42  44
BRANCH  42  46
ATOM     46  O   UNL     1       7.580  -4.280  26.951  0.00  0.00    -0.284 OA
BRANCH  46  47
ATOM     47  C   UNL     1       8.453  -5.096  26.086  0.00  0.00    +0.206 C 
BRANCH  47  48
ATOM     48  C   UNL     1       8.710  -4.904  24.593  0.00  0.00    +0.178 C 
ATOM     49  C   UNL     1       7.557  -5.130  23.629  0.00  0.00    +0.178 C 
ATOM     50  C   UNL     1       7.135  -3.733  23.198  0.00  0.00    +0.195 C 
ATOM     51  C   UNL     1       8.119  -2.795  23.923  0.00  0.00    +0.253 C 
ATOM     52  O   UNL     1       9.222  -3.605  24.356  0.00  0.00    -0.346 OA
BRANCH  51  53
ATOM     53  N   UNL     1       8.692  -1.707  23.173  0.00  0.00    -0.286 N 
ATOM     54  C   UNL     1       9.180  -0.520  23.642  0.00  0.00    +0.167 A 
ATOM     55  N   UNL     1       9.238  -0.090  24.914  0.00  0.00    -0.216 NA
ATOM     56  C   UNL     1       9.729   1.166  24.965  0.00  0.00    +0.225 A 
ATOM     57  N   UNL     1      10.135   1.956  23.944  0.00  0.00    -0.219 NA
ATOM     58  C   UNL     1      10.083   1.460  22.689  0.00  0.00    +0.147 A 
ATOM     59  N   UNL     1      10.495   2.255  21.630  0.00  0.00    -0.341 N 
ATOM     60  H   UNL     1      10.120   1.958  20.734  0.00  0.00    +0.144 HD
ATOM     61  H   UNL     1      10.440   3.241  21.852  0.00  0.00    +0.144 HD
ATOM     62  C   UNL     1       9.581   0.164  22.506  0.00  0.00    +0.147 A 
ATOM     63  N   UNL     1       9.395  -0.593  21.371  0.00  0.00    -0.231 NA
ATOM     64  C   UNL     1       8.875  -1.722  21.810  0.00  0.00    +0.203 A 
ENDBRANCH  51  53
BRANCH  50  65
ATOM     65  O   UNL     1       5.790  -3.492  23.615  0.00  0.00    -0.385 OA
ATOM     66  H   UNL     1       5.580  -2.576  23.339  0.00  0.00    +0.210 HD
ENDBRANCH  50  65
BRANCH  49  67
ATOM     67  O   UNL     1       8.032  -5.862  22.479  0.00  0.00    -0.386 OA
ATOM     68  H   UNL     1       7.915  -5.322  21.676  0.00  0.00    +0.210 HD
ENDBRANCH  49  67
ENDBRANCH  47  48
ENDBRANCH  46  47
ENDBRANCH  42  46
ENDBRANCH  41  42
ENDBRANCH  37  41
ENDBRANCH  36  37
ENDBRANCH  35  36
ENDBRANCH   4  35
TORSDOF 25
ENDMDL
MODEL 4
REMARK VINA RESULT:      -7.1      2.718      4.437
REMARK  Name = 
REMARK  25 active torsions:
REMARK  status: ('A' for Active; 'I' for Inactive)
REMARK    1  A    between atoms: N_1  and  CA_2
REMARK    2  A    between atoms: CA_2  and  C_4
REMARK    3  A    between atoms: CA_2  and  C_62
REMARK    4  A    between atoms: C_4  and  C_5
REMARK    5  A    between atoms: C_5  and  C_7
REMARK    6  A    between atoms: C_7  and  O_9
REMARK    7  A    between atoms: C_7  and  C_10
REMARK    8  A    between atoms: N_13  and  C_19
REMARK    9  A    between atoms: C_15  and  C_16
REMARK   10  A    between atoms: C_22  and  C_24
REMARK   11  A    between atoms: C_24  and  O_25
REMARK   12  A    between atoms: O_25  and  P_26
REMARK   13  A    between atoms: P_26  and  O_27
REMARK   14  A    between atoms: P_26  and  O_29
REMARK   15  A    between atoms: O_29  and  P_30
REMARK   16  A    between atoms: P_30  and  O_31
REMARK   17  A    between atoms: P_30  and  O_33
REMARK   18  A    between atoms: O_33  and  C_34
REMARK   19  A    between atoms: C_34  and  C_35
REMARK   20  A    between atoms: C_38  and  N_46
REMARK   21  A    between atoms: C_40  and  O_42
REMARK   22  A    between atoms: C_43  and  O_45
REMARK   23  A    between atoms: C_56  and  O_58
REMARK   24  A    between atoms: C_59  and  O_61
REMARK   25  A    between atoms: C_62  and  O_63
REMARK                            x       y       z     vdW  Elec       q    Type
REMARK                         _______ _______ _______ _____ _____    ______ ____
ROOT
ATOM      1  C   UNL     1       8.111  -0.363  24.153  0.00  0.00    +0.439 C 
ATOM      2  C   UNL     1       9.231  -0.938  25.027  0.00  0.00    +0.244 C 
ATOM      3  C   UNL     1       8.549  -1.346  26.329  0.00  0.00    +0.183 C 
ATOM      4  C   UNL     1       7.064  -1.072  26.115  0.00  0.00    +0.183 C 
ATOM      5  O   UNL     1       6.883  -0.901  24.692  0.00  0.00    -0.309 OA
ENDROOT
BRANCH   1   9
ATOM      6  C   UNL     1       8.162   3.940  23.912  0.00  0.00    +0.011 A 
ATOM      7  C   UNL     1       6.970   3.221  23.767  0.00  0.00    +0.106 A 
ATOM      8  C   UNL     1       6.979   1.826  23.893  0.00  0.00    +0.325 A 
ATOM      9  N   UNL     1       8.126   1.140  24.132  0.00  0.00    -0.173 N 
ATOM     10  C   UNL     1       9.268   1.815  24.387  0.00  0.00    +0.312 A 
ATOM     11  C   UNL     1       9.302   3.200  24.277  0.00  0.00    +0.077 A 
BRANCH   7  12
ATOM     12  C   UNL     1       5.668   3.788  23.350  0.00  0.00    +0.248 C 
ATOM     13  O   UNL     1       4.827   3.998  24.214  0.00  0.00    -0.270 OA
ATOM     14  N   UNL     1       5.422   4.074  22.048  0.00  0.00    -0.325 N 
ATOM     15  H   UNL     1       4.530   4.487  21.823  0.00  0.00    +0.145 HD
ATOM     16  H   UNL     1       6.110   4.216  21.332  0.00  0.00    +0.145 HD
ENDBRANCH   7  12
BRANCH   6  17
ATOM     17  C   UNL     1       8.316   5.444  23.707  0.00  0.00    +0.211 C 
BRANCH  17  18
ATOM     18  C   UNL     1       9.658   5.950  24.279  0.00  0.00    +0.168 C 
ATOM     19  O   UNL     1       9.801   6.218  25.478  0.00  0.00    -0.294 OA
BRANCH  18  20
ATOM     20  C   UNL     1      10.831   6.088  23.318  0.00  0.00    +0.107 C 
BRANCH  20  21
ATOM     21  CA  UNL     1      12.156   5.628  23.950  0.00  0.00    +0.168 C 
BRANCH  21  22
ATOM     22  N   UNL     1      12.747   6.613  24.897  0.00  0.00    -0.318 NA
ATOM     23  H1  UNL     1      12.171   7.470  24.876  0.00  0.00    +0.119 HD
ATOM     24  H2  UNL     1      12.634   6.262  25.853  0.00  0.00    +0.119 HD
ENDBRANCH  21  22
BRANCH  21  25
ATOM     25  C   UNL     1      13.166   5.358  22.828  0.00  0.00    +0.322 C 
ATOM     26  OXT UNL     1      12.944   5.555  21.644  0.00  0.00    -0.249 OA
BRANCH  25  27
ATOM     27  O   UNL     1      14.384   5.009  23.303  0.00  0.00    -0.480 OA
ATOM     28  H   UNL     1      14.272   4.851  24.275  0.00  0.00    +0.295 HD
ENDBRANCH  25  27
ENDBRANCH  21  25
ENDBRANCH  20  21
ENDBRANCH  18  20
ENDBRANCH  17  18
BRANCH  17  29
ATOM     29  O   UNL     1       8.236   5.666  22.301  0.00  0.00    -0.380 OA
ATOM     30  H   UNL     1       8.399   4.832  21.827  0.00  0.00    +0.211 HD
ENDBRANCH  17  29
ENDBRANCH   6  17
ENDBRANCH   1   9
BRANCH   2  31
ATOM     31  O   UNL     1       9.851  -2.053  24.371  0.00  0.00    -0.380 OA
ATOM     32  H   UNL     1      10.810  -2.071  24.541  0.00  0.00    +0.210 HD
ENDBRANCH   2  31
BRANCH   3  33
ATOM     33  O   UNL     1       9.025  -0.521  27.386  0.00  0.00    -0.386 OA
ATOM     34  H   UNL     1       8.480   0.289  27.421  0.00  0.00    +0.210 HD
ENDBRANCH   3  33
BRANCH   4  35
ATOM     35  C   UNL     1       6.195  -2.191  26.720  0.00  0.00    +0.206 C 
BRANCH  35  36
ATOM     36  O   UNL     1       5.203  -1.648  27.575  0.00  0.00    -0.284 OA
BRANCH  36  37
ATOM     37  P   UNL     1       3.644  -1.551  27.003  0.00  0.00    +0.483 P 
ATOM     38  O   UNL     1       3.048  -0.468  27.924  0.00  0.00    -0.227 OA
BRANCH  37  39
ATOM     39  O   UNL     1       4.126  -0.284  25.929  0.00  0.00    -0.302 OA
ATOM     40  H   UNL     1       3.298   0.229  25.808  0.00  0.00    +0.222 HD
ENDBRANCH  37  39
BRANCH  37  41
ATOM     41  O   UNL     1       3.162  -2.818  28.078  0.00  0.00    -0.186 OA
BRANCH  41  42
ATOM     42  P   UNL     1       1.834  -3.074  27.039  0.00  0.00    +0.483 P 
ATOM     43  O   UNL     1       2.185  -2.718  25.624  0.00  0.00    -0.227 OA
BRANCH  42  44
ATOM     44  O   UNL     1       0.821  -1.989  27.687  0.00  0.00    -0.302 OA
ATOM     45  H   UNL     1      -0.033  -1.944  27.202  0.00  0.00    +0.222 HD
ENDBRANCH  42  44
BRANCH  42  46
ATOM     46  O   UNL     1       0.784  -4.319  27.119  0.00  0.00    -0.284 OA
BRANCH  46  47
ATOM     47  C   UNL     1       1.179  -5.297  26.087  0.00  0.00    +0.206 C 
BRANCH  47  48
ATOM     48  C   UNL     1       2.236  -6.393  26.212  0.00  0.00    +0.178 C 
ATOM     49  C   UNL     1       2.456  -7.320  25.028  0.00  0.00    +0.178 C 
ATOM     50  C   UNL     1       3.770  -6.855  24.415  0.00  0.00    +0.195 C 
ATOM     51  C   UNL     1       4.235  -5.707  25.331  0.00  0.00    +0.253 C 
ATOM     52  O   UNL     1       3.486  -5.819  26.549  0.00  0.00    -0.346 OA
BRANCH  51  53
ATOM     53  N   UNL     1       5.623  -5.673  25.717  0.00  0.00    -0.286 N 
ATOM     54  C   UNL     1       6.698  -5.271  24.976  0.00  0.00    +0.167 A 
ATOM     55  N   UNL     1       6.711  -4.816  23.711  0.00  0.00    -0.216 NA
ATOM     56  C   UNL     1       7.978  -4.584  23.307  0.00  0.00    +0.225 A 
ATOM     57  N   UNL     1       9.128  -4.747  24.000  0.00  0.00    -0.219 NA
ATOM     58  C   UNL     1       9.053  -5.178  25.278  0.00  0.00    +0.147 A 
ATOM     59  N   UNL     1      10.221  -5.353  26.003  0.00  0.00    -0.341 N 
ATOM     60  H   UNL     1      10.113  -5.977  26.796  0.00  0.00    +0.144 HD
ATOM     61  H   UNL     1      11.023  -5.500  25.402  0.00  0.00    +0.144 HD
ATOM     62  C   UNL     1       7.787  -5.464  25.809  0.00  0.00    +0.147 A 
ATOM     63  N   UNL     1       7.398  -5.923  27.047  0.00  0.00    -0.231 NA
ATOM     64  C   UNL     1       6.086  -6.020  26.965  0.00  0.00    +0.203 A 
ENDBRANCH  51  53
BRANCH  50  65
ATOM     65  O   UNL     1       3.536  -6.391  23.084  0.00  0.00    -0.385 OA
ATOM     66  H   UNL     1       4.089  -6.950  22.500  0.00  0.00    +0.210 HD
ENDBRANCH  50  65
BRANCH  49  67
ATOM     67  O   UNL     1       2.603  -8.675  25.502  0.00  0.00    -0.386 OA
ATOM     68  H   UNL     1       3.074  -8.674  26.355  0.00  0.00    +0.210 HD
ENDBRANCH  49  67
ENDBRANCH  47  48
ENDBRANCH  46  47
ENDBRANCH  42  46
ENDBRANCH  41  42
ENDBRANCH  37  41
ENDBRANCH  36  37
ENDBRANCH  35  36
ENDBRANCH   4  35
TORSDOF 25
ENDMDL
MODEL 5
REMARK VINA RESULT:      -7.0      2.899      8.567
REMARK  Name = 
REMARK  25 active torsions:
REMARK  status: ('A' for Active; 'I' for Inactive)
REMARK    1  A    between atoms: N_1  and  CA_2
REMARK    2  A    between atoms: CA_2  and  C_4
REMARK    3  A    between atoms: CA_2  and  C_62
REMARK    4  A    between atoms: C_4  and  C_5
REMARK    5  A    between atoms: C_5  and  C_7
REMARK    6  A    between atoms: C_7  and  O_9
REMARK    7  A    between atoms: C_7  and  C_10
REMARK    8  A    between atoms: N_13  and  C_19
REMARK    9  A    between atoms: C_15  and  C_16
REMARK   10  A    between atoms: C_22  and  C_24
REMARK   11  A    between atoms: C_24  and  O_25
REMARK   12  A    between atoms: O_25  and  P_26
REMARK   13  A    between atoms: P_26  and  O_27
REMARK   14  A    between atoms: P_26  and  O_29
REMARK   15  A    between atoms: O_29  and  P_30
REMARK   16  A    between atoms: P_30  and  O_31
REMARK   17  A    between atoms: P_30  and  O_33
REMARK   18  A    between atoms: O_33  and  C_34
REMARK   19  A    between atoms: C_34  and  C_35
REMARK   20  A    between atoms: C_38  and  N_46
REMARK   21  A    between atoms: C_40  and  O_42
REMARK   22  A    between atoms: C_43  and  O_45
REMARK   23  A    between atoms: C_56  and  O_58
REMARK   24  A    between atoms: C_59  and  O_61
REMARK   25  A    between atoms: C_62  and  O_63
REMARK                            x       y       z     vdW  Elec       q    Type
REMARK                         _______ _______ _______ _____ _____    ______ ____
ROOT
ATOM      1  C   UNL     1       5.695  -0.583  27.808  0.00  0.00    +0.439 C 
ATOM      2  C   UNL     1       6.507   0.712  27.927  0.00  0.00    +0.244 C 
ATOM      3  C   UNL     1       5.738   1.738  27.102  0.00  0.00    +0.183 C 
ATOM      4  C   UNL     1       4.482   1.019  26.621  0.00  0.00    +0.183 C 
ATOM      5  O   UNL     1       4.363  -0.174  27.428  0.00  0.00    -0.309 OA
ENDROOT
BRANCH   1   9
ATOM      6  C   UNL     1       7.589  -3.367  25.117  0.00  0.00    +0.011 A 
ATOM      7  C   UNL     1       6.771  -3.813  26.163  0.00  0.00    +0.106 A 
ATOM      8  C   UNL     1       6.135  -2.882  26.994  0.00  0.00    +0.325 A 
ATOM      9  N   UNL     1       6.308  -1.545  26.829  0.00  0.00    -0.173 N 
ATOM     10  C   UNL     1       6.999  -1.087  25.763  0.00  0.00    +0.312 A 
ATOM     11  C   UNL     1       7.643  -1.977  24.910  0.00  0.00    +0.077 A 
BRANCH   7  12
ATOM     12  C   UNL     1       6.601  -5.223  26.581  0.00  0.00    +0.248 C 
ATOM     13  O   UNL     1       5.566  -5.796  26.269  0.00  0.00    -0.270 OA
ATOM     14  N   UNL     1       7.571  -5.859  27.281  0.00  0.00    -0.325 N 
ATOM     15  H   UNL     1       7.417  -6.827  27.516  0.00  0.00    +0.145 HD
ATOM     16  H   UNL     1       8.538  -5.595  27.331  0.00  0.00    +0.145 HD
ENDBRANCH   7  12
BRANCH   6  17
ATOM     17  C   UNL     1       8.414  -4.264  24.199  0.00  0.00    +0.211 C 
BRANCH  17  18
ATOM     18  C   UNL     1       7.753  -4.398  22.809  0.00  0.00    +0.168 C 
ATOM     19  O   UNL     1       7.454  -3.411  22.128  0.00  0.00    -0.294 OA
BRANCH  18  20
ATOM     20  C   UNL     1       7.500  -5.802  22.278  0.00  0.00    +0.107 C 
BRANCH  20  21
ATOM     21  CA  UNL     1       6.112  -5.936  21.629  0.00  0.00    +0.168 C 
BRANCH  21  22
ATOM     22  N   UNL     1       5.876  -4.985  20.508  0.00  0.00    -0.318 NA
ATOM     23  H1  UNL     1       4.960  -5.204  20.083  0.00  0.00    +0.119 HD
ATOM     24  H2  UNL     1       5.751  -4.044  20.893  0.00  0.00    +0.119 HD
ENDBRANCH  21  22
BRANCH  21  25
ATOM     25  C   UNL     1       5.045  -5.702  22.705  0.00  0.00    +0.322 C 
ATOM     26  OXT UNL     1       4.294  -4.741  22.728  0.00  0.00    -0.249 OA
BRANCH  25  27
ATOM     27  O   UNL     1       4.931  -6.749  23.554  0.00  0.00    -0.480 OA
ATOM     28  H   UNL     1       3.967  -6.980  23.589  0.00  0.00    +0.295 HD
ENDBRANCH  25  27
ENDBRANCH  21  25
ENDBRANCH  20  21
ENDBRANCH  18  20
ENDBRANCH  17  18
BRANCH  17  29
ATOM     29  O   UNL     1       9.703  -3.659  24.103  0.00  0.00    -0.380 OA
ATOM     30  H   UNL     1      10.390  -4.347  24.119  0.00  0.00    +0.211 HD
ENDBRANCH  17  29
ENDBRANCH   6  17
ENDBRANCH   1   9
BRANCH   2  31
ATOM     31  O   UNL     1       6.620   1.102  29.303  0.00  0.00    -0.380 OA
ATOM     32  H   UNL     1       5.760   1.039  29.757  0.00  0.00    +0.210 HD
ENDBRANCH   2  31
BRANCH   3  33
ATOM     33  O   UNL     1       6.519   2.112  25.973  0.00  0.00    -0.386 OA
ATOM     34  H   UNL     1       6.987   2.945  26.177  0.00  0.00    +0.210 HD
ENDBRANCH   3  33
BRANCH   4  35
ATOM     35  C   UNL     1       3.249   1.939  26.689  0.00  0.00    +0.206 C 
BRANCH  35  36
ATOM     36  O   UNL     1       3.558   3.230  26.192  0.00  0.00    -0.284 OA
BRANCH  36  37
ATOM     37  P   UNL     1       3.378   3.505  24.561  0.00  0.00    +0.483 P 
ATOM     38  O   UNL     1       4.014   2.234  23.965  0.00  0.00    -0.227 OA
BRANCH  37  39
ATOM     39  O   UNL     1       1.869   2.660  24.594  0.00  0.00    -0.302 OA
ATOM     40  H   UNL     1       1.900   2.189  25.454  0.00  0.00    +0.222 HD
ENDBRANCH  37  39
BRANCH  37  41
ATOM     41  O   UNL     1       4.888   4.350  24.530  0.00  0.00    -0.186 OA
BRANCH  41  42
ATOM     42  P   UNL     1       4.303   5.162  23.149  0.00  0.00    +0.483 P 
ATOM     43  O   UNL     1       2.824   5.395  23.251  0.00  0.00    -0.227 OA
BRANCH  42  44
ATOM     44  O   UNL     1       4.647   4.025  22.049  0.00  0.00    -0.302 OA
ATOM     45  H   UNL     1       4.373   3.128  22.345  0.00  0.00    +0.222 HD
ENDBRANCH  42  44
BRANCH  42  46
ATOM     46  O   UNL     1       5.063   6.368  22.356  0.00  0.00    -0.284 OA
BRANCH  46  47
ATOM     47  C   UNL     1       6.341   6.617  23.049  0.00  0.00    +0.206 C 
BRANCH  47  48
ATOM     48  C   UNL     1       7.709   6.033  22.698  0.00  0.00    +0.178 C 
ATOM     49  C   UNL     1       8.790   6.039  23.767  0.00  0.00    +0.178 C 
ATOM     50  C   UNL     1       8.879   4.592  24.232  0.00  0.00    +0.195 C 
ATOM     51  C   UNL     1       7.858   3.844  23.353  0.00  0.00    +0.253 C 
ATOM     52  O   UNL     1       7.560   4.701  22.242  0.00  0.00    -0.346 OA
BRANCH  51  53
ATOM     53  N   UNL     1       8.254   2.579  22.788  0.00  0.00    -0.286 N 
ATOM     54  C   UNL     1       9.014   1.598  23.359  0.00  0.00    +0.167 A 
ATOM     55  N   UNL     1       9.572   1.585  24.581  0.00  0.00    -0.216 NA
ATOM     56  C   UNL     1      10.306   0.465  24.753  0.00  0.00    +0.225 A 
ATOM     57  N   UNL     1      10.506  -0.554  23.886  0.00  0.00    -0.219 NA
ATOM     58  C   UNL     1       9.894  -0.503  22.682  0.00  0.00    +0.147 A 
ATOM     59  N   UNL     1      10.088  -1.538  21.781  0.00  0.00    -0.341 N 
ATOM     60  H   UNL     1       9.889  -1.277  20.820  0.00  0.00    +0.144 HD
ATOM     61  H   UNL     1      10.950  -2.039  21.958  0.00  0.00    +0.144 HD
ATOM     62  C   UNL     1       9.110   0.620  22.382  0.00  0.00    +0.147 A 
ATOM     63  N   UNL     1       8.391   0.960  21.258  0.00  0.00    -0.231 NA
ATOM     64  C   UNL     1       7.872   2.137  21.543  0.00  0.00    +0.203 A 
ENDBRANCH  51  53
BRANCH  50  65
ATOM     65  O   UNL     1       8.526   4.514  25.614  0.00  0.00    -0.385 OA
ATOM     66  H   UNL     1       8.428   3.561  25.816  0.00  0.00    +0.210 HD
ENDBRANCH  50  65
BRANCH  49  67
ATOM     67  O   UNL     1      10.046   6.429  23.173  0.00  0.00    -0.386 OA
ATOM     68  H   UNL     1      10.152   7.395  23.237  0.00  0.00    +0.210 HD
ENDBRANCH  49  67
ENDBRANCH  47  48
ENDBRANCH  46  47
ENDBRANCH  42  46
ENDBRANCH  41  42
ENDBRANCH  37  41
ENDBRANCH  36  37
ENDBRANCH  35  36
ENDBRANCH   4  35
TORSDOF 25
ENDMDL
MODEL 6
REMARK VINA RESULT:      -7.0      2.968      8.996
REMARK  Name = 
REMARK  25 active torsions:
REMARK  status: ('A' for Active; 'I' for Inactive)
REMARK    1  A    between atoms: N_1  and  CA_2
REMARK    2  A    between atoms: CA_2  and  C_4
REMARK    3  A    between atoms: CA_2  and  C_62
REMARK    4  A    between atoms: C_4  and  C_5
REMARK    5  A    between atoms: C_5  and  C_7
REMARK    6  A    between atoms: C_7  and  O_9
REMARK    7  A    between atoms: C_7  and  C_10
REMARK    8  A    between atoms: N_13  and  C_19
REMARK    9  A    between atoms: C_15  and  C_16
REMARK   10  A    between atoms: C_22  and  C_24
REMARK   11  A    between atoms: C_24  and  O_25
REMARK   12  A    between atoms: O_25  and  P_26
REMARK   13  A    between atoms: P_26  and  O_27
REMARK   14  A    between atoms: P_26  and  O_29
REMARK   15  A    between atoms: O_29  and  P_30
REMARK   16  A    between atoms: P_30  and  O_31
REMARK   17  A    between atoms: P_30  and  O_33
REMARK   18  A    between atoms: O_33  and  C_34
REMARK   19  A    between atoms: C_34  and  C_35
REMARK   20  A    between atoms: C_38  and  N_46
REMARK   21  A    between atoms: C_40  and  O_42
REMARK   22  A    between atoms: C_43  and  O_45
REMARK   23  A    between atoms: C_56  and  O_58
REMARK   24  A    between atoms: C_59  and  O_61
REMARK   25  A    between atoms: C_62  and  O_63
REMARK                            x       y       z     vdW  Elec       q    Type
REMARK                         _______ _______ _______ _____ _____    ______ ____
ROOT
ATOM      1  C   UNL     1       8.478  -3.854  25.618  0.00  0.00    +0.439 C 
ATOM      2  C   UNL     1       8.624  -2.961  24.381  0.00  0.00    +0.244 C 
ATOM      3  C   UNL     1       8.098  -1.596  24.813  0.00  0.00    +0.183 C 
ATOM      4  C   UNL     1       7.757  -1.739  26.293  0.00  0.00    +0.183 C 
ATOM      5  O   UNL     1       8.403  -2.951  26.743  0.00  0.00    -0.309 OA
ENDROOT
BRANCH   1   9
ATOM      6  C   UNL     1       4.943  -6.308  25.361  0.00  0.00    +0.011 A 
ATOM      7  C   UNL     1       5.439  -5.631  24.239  0.00  0.00    +0.106 A 
ATOM      8  C   UNL     1       6.614  -4.876  24.345  0.00  0.00    +0.325 A 
ATOM      9  N   UNL     1       7.283  -4.761  25.521  0.00  0.00    -0.173 N 
ATOM     10  C   UNL     1       6.891  -5.491  26.587  0.00  0.00    +0.312 A 
ATOM     11  C   UNL     1       5.732  -6.257  26.524  0.00  0.00    +0.077 A 
BRANCH   7  12
ATOM     12  C   UNL     1       4.755  -5.519  22.931  0.00  0.00    +0.248 C 
ATOM     13  O   UNL     1       3.879  -4.672  22.809  0.00  0.00    -0.270 OA
ATOM     14  N   UNL     1       5.100  -6.325  21.898  0.00  0.00    -0.325 N 
ATOM     15  H   UNL     1       4.623  -6.187  21.020  0.00  0.00    +0.145 HD
ATOM     16  H   UNL     1       5.964  -6.825  21.798  0.00  0.00    +0.145 HD
ENDBRANCH   7  12
BRANCH   6  17
ATOM     17  C   UNL     1       3.632  -7.085  25.414  0.00  0.00    +0.211 C 
BRANCH  17  18
ATOM     18  C   UNL     1       2.422  -6.130  25.509  0.00  0.00    +0.168 C 
ATOM     19  O   UNL     1       1.468  -6.202  24.726  0.00  0.00    -0.294 OA
BRANCH  18  20
ATOM     20  C   UNL     1       2.420  -5.098  26.628  0.00  0.00    +0.107 C 
BRANCH  20  21
ATOM     21  CA  UNL     1       2.362  -3.658  26.090  0.00  0.00    +0.168 C 
BRANCH  21  22
ATOM     22  N   UNL     1       1.937  -3.563  24.666  0.00  0.00    -0.318 NA
ATOM     23  H1  UNL     1       1.225  -2.818  24.588  0.00  0.00    +0.119 HD
ATOM     24  H2  UNL     1       2.722  -3.213  24.109  0.00  0.00    +0.119 HD
ENDBRANCH  21  22
BRANCH  21  25
ATOM     25  C   UNL     1       3.752  -3.028  26.231  0.00  0.00    +0.322 C 
ATOM     26  OXT UNL     1       4.438  -3.096  27.237  0.00  0.00    -0.249 OA
BRANCH  25  27
ATOM     27  O   UNL     1       4.200  -2.501  25.067  0.00  0.00    -0.480 OA
ATOM     28  H   UNL     1       3.397  -2.282  24.529  0.00  0.00    +0.295 HD
ENDBRANCH  25  27
ENDBRANCH  21  25
ENDBRANCH  20  21
ENDBRANCH  18  20
ENDBRANCH  17  18
BRANCH  17  29
ATOM     29  O   UNL     1       3.582  -7.868  24.223  0.00  0.00    -0.380 OA
ATOM     30  H   UNL     1       3.060  -8.673  24.380  0.00  0.00    +0.211 HD
ENDBRANCH  17  29
ENDBRANCH   6  17
ENDBRANCH   1   9
BRANCH   2  31
ATOM     31  O   UNL     1       9.997  -2.903  23.969  0.00  0.00    -0.380 OA
ATOM     32  H   UNL     1      10.390  -3.794  23.936  0.00  0.00    +0.210 HD
ENDBRANCH   2  31
BRANCH   3  33
ATOM     33  O   UNL     1       6.908  -1.301  24.090  0.00  0.00    -0.386 OA
ATOM     34  H   UNL     1       6.272  -2.031  24.224  0.00  0.00    +0.210 HD
ENDBRANCH   3  33
BRANCH   4  35
ATOM     35  C   UNL     1       8.170  -0.486  27.087  0.00  0.00    +0.206 C 
BRANCH  35  36
ATOM     36  O   UNL     1       7.411   0.640  26.678  0.00  0.00    -0.284 OA
BRANCH  36  37
ATOM     37  P   UNL     1       6.816   1.653  27.855  0.00  0.00    +0.483 P 
ATOM     38  O   UNL     1       5.752   0.757  28.519  0.00  0.00    -0.227 OA
BRANCH  37  39
ATOM     39  O   UNL     1       7.966   1.012  28.977  0.00  0.00    -0.302 OA
ATOM     40  H   UNL     1       8.568   1.772  29.132  0.00  0.00    +0.222 HD
ENDBRANCH  37  39
BRANCH  37  41
ATOM     41  O   UNL     1       5.666   2.294  26.732  0.00  0.00    -0.186 OA
BRANCH  41  42
ATOM     42  P   UNL     1       5.919   3.808  27.474  0.00  0.00    +0.483 P 
ATOM     43  O   UNL     1       7.318   3.917  28.006  0.00  0.00    -0.227 OA
BRANCH  42  44
ATOM     44  O   UNL     1       4.841   3.663  28.673  0.00  0.00    -0.302 OA
ATOM     45  H   UNL     1       3.962   3.363  28.347  0.00  0.00    +0.222 HD
ENDBRANCH  42  44
BRANCH  42  46
ATOM     46  O   UNL     1       5.351   5.241  26.940  0.00  0.00    -0.284 OA
BRANCH  46  47
ATOM     47  C   UNL     1       6.129   5.607  25.742  0.00  0.00    +0.206 C 
BRANCH  47  48
ATOM     48  C   UNL     1       5.909   5.112  24.314  0.00  0.00    +0.178 C 
ATOM     49  C   UNL     1       6.323   6.017  23.165  0.00  0.00    +0.178 C 
ATOM     50  C   UNL     1       7.601   5.391  22.623  0.00  0.00    +0.195 C 
ATOM     51  C   UNL     1       7.805   4.131  23.485  0.00  0.00    +0.253 C 
ATOM     52  O   UNL     1       6.553   3.864  24.133  0.00  0.00    -0.346 OA
BRANCH  51  53
ATOM     53  N   UNL     1       8.178   2.910  22.817  0.00  0.00    -0.286 N 
ATOM     54  C   UNL     1       9.100   1.980  23.206  0.00  0.00    +0.167 A 
ATOM     55  N   UNL     1       9.877   1.989  24.302  0.00  0.00    -0.216 NA
ATOM     56  C   UNL     1      10.709   0.926  24.300  0.00  0.00    +0.225 A 
ATOM     57  N   UNL     1      10.816  -0.060  23.379  0.00  0.00    -0.219 NA
ATOM     58  C   UNL     1       9.988  -0.034  22.312  0.00  0.00    +0.147 A 
ATOM     59  N   UNL     1      10.083  -1.036  21.358  0.00  0.00    -0.341 N 
ATOM     60  H   UNL     1       9.690  -0.774  20.460  0.00  0.00    +0.144 HD
ATOM     61  H   UNL     1      10.997  -1.472  21.356  0.00  0.00    +0.144 HD
ATOM     62  C   UNL     1       9.082   1.030  22.198  0.00  0.00    +0.147 A 
ATOM     63  N   UNL     1       8.142   1.332  21.238  0.00  0.00    -0.231 NA
ATOM     64  C   UNL     1       7.602   2.461  21.651  0.00  0.00    +0.203 A 
ENDBRANCH  51  53
BRANCH  50  65
ATOM     65  O   UNL     1       8.685   6.308  22.784  0.00  0.00    -0.385 OA
ATOM     66  H   UNL     1       8.311   7.201  22.632  0.00  0.00    +0.210 HD
ENDBRANCH  50  65
BRANCH  49  67
ATOM     67  O   UNL     1       5.306   5.988  22.142  0.00  0.00    -0.386 OA
ATOM     68  H   UNL     1       4.647   6.685  22.316  0.00  0.00    +0.210 HD
ENDBRANCH  49  67
ENDBRANCH  47  48
ENDBRANCH  46  47
ENDBRANCH  42  46
ENDBRANCH  41  42
ENDBRANCH  37  41
ENDBRANCH  36  37
ENDBRANCH  35  36
ENDBRANCH   4  35
TORSDOF 25
ENDMDL
MODEL 7
REMARK VINA RESULT:      -7.0      3.455      9.943
REMARK  Name = 
REMARK  25 active torsions:
REMARK  status: ('A' for Active; 'I' for Inactive)
REMARK    1  A    between atoms: N_1  and  CA_2
REMARK    2  A    between atoms: CA_2  and  C_4
REMARK    3  A    between atoms: CA_2  and  C_62
REMARK    4  A    between atoms: C_4  and  C_5
REMARK    5  A    between atoms: C_5  and  C_7
REMARK    6  A    between atoms: C_7  and  O_9
REMARK    7  A    between atoms: C_7  and  C_10
REMARK    8  A    between atoms: N_13  and  C_19
REMARK    9  A    between atoms: C_15  and  C_16
REMARK   10  A    between atoms: C_22  and  C_24
REMARK   11  A    between atoms: C_24  and  O_25
REMARK   12  A    between atoms: O_25  and  P_26
REMARK   13  A    between atoms: P_26  and  O_27
REMARK   14  A    between atoms: P_26  and  O_29
REMARK   15  A    between atoms: O_29  and  P_30
REMARK   16  A    between atoms: P_30  and  O_31
REMARK   17  A    between atoms: P_30  and  O_33
REMARK   18  A    between atoms: O_33  and  C_34
REMARK   19  A    between atoms: C_34  and  C_35
REMARK   20  A    between atoms: C_38  and  N_46
REMARK   21  A    between atoms: C_40  and  O_42
REMARK   22  A    between atoms: C_43  and  O_45
REMARK   23  A    between atoms: C_56  and  O_58
REMARK   24  A    between atoms: C_59  and  O_61
REMARK   25  A    between atoms: C_62  and  O_63
REMARK                            x       y       z     vdW  Elec       q    Type
REMARK                         _______ _______ _______ _____ _____    ______ ____
ROOT
ATOM      1  C   UNL     1       9.424  -2.293  23.557  0.00  0.00    +0.439 C 
ATOM      2  C   UNL     1       9.151  -1.569  22.234  0.00  0.00    +0.244 C 
ATOM      3  C   UNL     1       8.686  -0.173  22.634  0.00  0.00    +0.183 C 
ATOM      4  C   UNL     1       8.796  -0.126  24.155  0.00  0.00    +0.183 C 
ATOM      5  O   UNL     1       9.619  -1.250  24.538  0.00  0.00    -0.309 OA
ENDROOT
BRANCH   1   9
ATOM      6  C   UNL     1       6.355  -5.130  24.613  0.00  0.00    +0.011 A 
ATOM      7  C   UNL     1       7.174  -4.551  25.591  0.00  0.00    +0.106 A 
ATOM      8  C   UNL     1       8.133  -3.600  25.220  0.00  0.00    +0.325 A 
ATOM      9  N   UNL     1       8.312  -3.235  23.925  0.00  0.00    -0.173 N 
ATOM     10  C   UNL     1       7.464  -3.693  22.979  0.00  0.00    +0.312 A 
ATOM     11  C   UNL     1       6.494  -4.635  23.304  0.00  0.00    +0.077 A 
BRANCH   7  12
ATOM     12  C   UNL     1       7.223  -4.946  27.016  0.00  0.00    +0.248 C 
ATOM     13  O   UNL     1       6.616  -4.258  27.827  0.00  0.00    -0.270 OA
ATOM     14  N   UNL     1       7.914  -6.044  27.407  0.00  0.00    -0.325 N 
ATOM     15  H   UNL     1       7.891  -6.284  28.386  0.00  0.00    +0.145 HD
ATOM     16  H   UNL     1       8.187  -6.812  26.823  0.00  0.00    +0.145 HD
ENDBRANCH   7  12
BRANCH   6  17
ATOM     17  C   UNL     1       5.340  -6.241  24.859  0.00  0.00    +0.211 C 
BRANCH  17  18
ATOM     18  C   UNL     1       4.051  -5.687  25.505  0.00  0.00    +0.168 C 
ATOM     19  O   UNL     1       3.580  -4.588  25.189  0.00  0.00    -0.294 OA
BRANCH  18  20
ATOM     20  C   UNL     1       3.347  -6.555  26.539  0.00  0.00    +0.107 C 
BRANCH  20  21
ATOM     21  CA  UNL     1       3.411  -5.944  27.950  0.00  0.00    +0.168 C 
BRANCH  21  22
ATOM     22  N   UNL     1       3.830  -4.516  27.970  0.00  0.00    -0.318 NA
ATOM     23  H1  UNL     1       3.083  -3.951  27.536  0.00  0.00    +0.119 HD
ATOM     24  H2  UNL     1       3.853  -4.192  28.942  0.00  0.00    +0.119 HD
ENDBRANCH  21  22
BRANCH  21  25
ATOM     25  C   UNL     1       4.400  -6.760  28.790  0.00  0.00    +0.322 C 
ATOM     26  OXT UNL     1       5.300  -7.438  28.324  0.00  0.00    -0.249 OA
BRANCH  25  27
ATOM     27  O   UNL     1       4.255  -6.536  30.117  0.00  0.00    -0.480 OA
ATOM     28  H   UNL     1       4.796  -5.733  30.329  0.00  0.00    +0.295 HD
ENDBRANCH  25  27
ENDBRANCH  21  25
ENDBRANCH  20  21
ENDBRANCH  18  20
ENDBRANCH  17  18
BRANCH  17  29
ATOM     29  O   UNL     1       5.071  -6.825  23.585  0.00  0.00    -0.380 OA
ATOM     30  H   UNL     1       5.199  -6.161  22.886  0.00  0.00    +0.211 HD
ENDBRANCH  17  29
ENDBRANCH   6  17
ENDBRANCH   1   9
BRANCH   2  31
ATOM     31  O   UNL     1      10.341  -1.531  21.433  0.00  0.00    -0.380 OA
ATOM     32  H   UNL     1      10.156  -1.168  20.548  0.00  0.00    +0.210 HD
ENDBRANCH   2  31
BRANCH   3  33
ATOM     33  O   UNL     1       7.322  -0.008  22.263  0.00  0.00    -0.386 OA
ATOM     34  H   UNL     1       6.876   0.534  22.942  0.00  0.00    +0.210 HD
ENDBRANCH   3  33
BRANCH   4  35
ATOM     35  C   UNL     1       9.339   1.232  24.636  0.00  0.00    +0.206 C 
BRANCH  35  36
ATOM     36  O   UNL     1       8.488   2.288  24.223  0.00  0.00    -0.284 OA
BRANCH  36  37
ATOM     37  P   UNL     1       9.170   3.575  23.420  0.00  0.00    +0.483 P 
ATOM     38  O   UNL     1      10.671   3.252  23.544  0.00  0.00    -0.227 OA
BRANCH  37  39
ATOM     39  O   UNL     1       9.157   2.656  21.954  0.00  0.00    -0.302 OA
ATOM     40  H   UNL     1       8.701   3.254  21.324  0.00  0.00    +0.222 HD
ENDBRANCH  37  39
BRANCH  37  41
ATOM     41  O   UNL     1       9.181   4.494  24.885  0.00  0.00    -0.186 OA
BRANCH  41  42
ATOM     42  P   UNL     1       8.097   5.564  24.119  0.00  0.00    +0.483 P 
ATOM     43  O   UNL     1       7.786   5.104  22.725  0.00  0.00    -0.227 OA
BRANCH  42  44
ATOM     44  O   UNL     1       9.038   6.881  24.110  0.00  0.00    -0.302 OA
ATOM     45  H   UNL     1       8.561   7.680  24.428  0.00  0.00    +0.222 HD
ENDBRANCH  42  44
BRANCH  42  46
ATOM     46  O   UNL     1       6.823   6.300  24.822  0.00  0.00    -0.284 OA
BRANCH  46  47
ATOM     47  C   UNL     1       5.679   6.184  23.897  0.00  0.00    +0.206 C 
BRANCH  47  48
ATOM     48  C   UNL     1       4.531   5.180  23.973  0.00  0.00    +0.178 C 
ATOM     49  C   UNL     1       4.349   4.206  22.820  0.00  0.00    +0.178 C 
ATOM     50  C   UNL     1       4.850   2.873  23.359  0.00  0.00    +0.195 C 
ATOM     51  C   UNL     1       5.250   3.175  24.816  0.00  0.00    +0.253 C 
ATOM     52  O   UNL     1       4.633   4.423  25.165  0.00  0.00    -0.346 OA
BRANCH  51  53
ATOM     53  N   UNL     1       4.854   2.234  25.833  0.00  0.00    -0.286 N 
ATOM     54  C   UNL     1       4.985   0.874  25.824  0.00  0.00    +0.167 A 
ATOM     55  N   UNL     1       5.513   0.097  24.863  0.00  0.00    -0.216 NA
ATOM     56  C   UNL     1       5.401  -1.206  25.197  0.00  0.00    +0.225 A 
ATOM     57  N   UNL     1       4.860  -1.748  26.313  0.00  0.00    -0.219 NA
ATOM     58  C   UNL     1       4.373  -0.917  27.259  0.00  0.00    +0.147 A 
ATOM     59  N   UNL     1       3.814  -1.455  28.409  0.00  0.00    -0.341 N 
ATOM     60  H   UNL     1       3.189  -0.816  28.889  0.00  0.00    +0.144 HD
ATOM     61  H   UNL     1       3.489  -2.403  28.265  0.00  0.00    +0.144 HD
ATOM     62  C   UNL     1       4.423   0.464  27.022  0.00  0.00    +0.147 A 
ATOM     63  N   UNL     1       4.001   1.537  27.774  0.00  0.00    -0.231 NA
ATOM     64  C   UNL     1       4.293   2.590  27.037  0.00  0.00    +0.203 A 
ENDBRANCH  51  53
BRANCH  50  65
ATOM     65  O   UNL     1       5.978   2.445  22.592  0.00  0.00    -0.385 OA
ATOM     66  H   UNL     1       6.300   1.624  23.019  0.00  0.00    +0.210 HD
ENDBRANCH  50  65
BRANCH  49  67
ATOM     67  O   UNL     1       2.944   4.096  22.506  0.00  0.00    -0.386 OA
ATOM     68  H   UNL     1       2.638   4.919  22.084  0.00  0.00    +0.210 HD
ENDBRANCH  49  67
ENDBRANCH  47  48
ENDBRANCH  46  47
ENDBRANCH  42  46
ENDBRANCH  41  42
ENDBRANCH  37  41
ENDBRANCH  36  37
ENDBRANCH  35  36
ENDBRANCH   4  35
TORSDOF 25
ENDMDL
MODEL 8
REMARK VINA RESULT:      -7.0      3.461      9.035
REMARK  Name = 
REMARK  25 active torsions:
REMARK  status: ('A' for Active; 'I' for Inactive)
REMARK    1  A    between atoms: N_1  and  CA_2
REMARK    2  A    between atoms: CA_2  and  C_4
REMARK    3  A    between atoms: CA_2  and  C_62
REMARK    4  A    between atoms: C_4  and  C_5
REMARK    5  A    between atoms: C_5  and  C_7
REMARK    6  A    between atoms: C_7  and  O_9
REMARK    7  A    between atoms: C_7  and  C_10
REMARK    8  A    between atoms: N_13  and  C_19
REMARK    9  A    between atoms: C_15  and  C_16
REMARK   10  A    between atoms: C_22  and  C_24
REMARK   11  A    between atoms: C_24  and  O_25
REMARK   12  A    between atoms: O_25  and  P_26
REMARK   13  A    between atoms: P_26  and  O_27
REMARK   14  A    between atoms: P_26  and  O_29
REMARK   15  A    between atoms: O_29  and  P_30
REMARK   16  A    between atoms: P_30  and  O_31
REMARK   17  A    between atoms: P_30  and  O_33
REMARK   18  A    between atoms: O_33  and  C_34
REMARK   19  A    between atoms: C_34  and  C_35
REMARK   20  A    between atoms: C_38  and  N_46
REMARK   21  A    between atoms: C_40  and  O_42
REMARK   22  A    between atoms: C_43  and  O_45
REMARK   23  A    between atoms: C_56  and  O_58
REMARK   24  A    between atoms: C_59  and  O_61
REMARK   25  A    between atoms: C_62  and  O_63
REMARK                            x       y       z     vdW  Elec       q    Type
REMARK                         _______ _______ _______ _____ _____    ______ ____
ROOT
ATOM      1  C   UNL     1       6.051  -1.142  26.053  0.00  0.00    +0.439 C 
ATOM      2  C   UNL     1       4.970  -0.089  25.782  0.00  0.00    +0.244 C 
ATOM      3  C   UNL     1       4.901   0.746  27.056  0.00  0.00    +0.183 C 
ATOM      4  C   UNL     1       5.997   0.198  27.964  0.00  0.00    +0.183 C 
ATOM      5  O   UNL     1       6.858  -0.603  27.124  0.00  0.00    -0.309 OA
ENDROOT
BRANCH   1   9
ATOM      6  C   UNL     1       4.446  -5.057  26.874  0.00  0.00    +0.011 A 
ATOM      7  C   UNL     1       5.725  -4.692  27.312  0.00  0.00    +0.106 A 
ATOM      8  C   UNL     1       6.201  -3.398  27.066  0.00  0.00    +0.325 A 
ATOM      9  N   UNL     1       5.461  -2.483  26.390  0.00  0.00    -0.173 N 
ATOM     10  C   UNL     1       4.185  -2.771  26.056  0.00  0.00    +0.312 A 
ATOM     11  C   UNL     1       3.670  -4.042  26.285  0.00  0.00    +0.077 A 
BRANCH   7  12
ATOM     12  C   UNL     1       6.720  -5.605  27.918  0.00  0.00    +0.248 C 
ATOM     13  O   UNL     1       6.531  -5.982  29.068  0.00  0.00    -0.270 OA
ATOM     14  N   UNL     1       7.801  -6.017  27.213  0.00  0.00    -0.325 N 
ATOM     15  H   UNL     1       8.432  -6.662  27.664  0.00  0.00    +0.145 HD
ATOM     16  H   UNL     1       7.897  -6.013  26.215  0.00  0.00    +0.145 HD
ENDBRANCH   7  12
BRANCH   6  17
ATOM     17  C   UNL     1       3.839  -6.452  26.987  0.00  0.00    +0.211 C 
BRANCH  17  18
ATOM     18  C   UNL     1       2.556  -6.573  26.137  0.00  0.00    +0.168 C 
ATOM     19  O   UNL     1       1.516  -5.970  26.429  0.00  0.00    -0.294 OA
BRANCH  18  20
ATOM     20  C   UNL     1       2.611  -7.446  24.890  0.00  0.00    +0.107 C 
BRANCH  20  21
ATOM     21  CA  UNL     1       2.524  -6.618  23.597  0.00  0.00    +0.168 C 
BRANCH  21  22
ATOM     22  N   UNL     1       1.893  -7.341  22.459  0.00  0.00    -0.318 NA
ATOM     23  H1  UNL     1       2.521  -7.272  21.641  0.00  0.00    +0.119 HD
ATOM     24  H2  UNL     1       1.874  -8.342  22.673  0.00  0.00    +0.119 HD
ENDBRANCH  21  22
BRANCH  21  25
ATOM     25  C   UNL     1       3.941  -6.199  23.188  0.00  0.00    +0.322 C 
ATOM     26  OXT UNL     1       4.224  -5.114  22.710  0.00  0.00    -0.249 OA
BRANCH  25  27
ATOM     27  O   UNL     1       4.872  -7.115  23.545  0.00  0.00    -0.480 OA
ATOM     28  H   UNL     1       4.660  -7.942  23.043  0.00  0.00    +0.295 HD
ENDBRANCH  25  27
ENDBRANCH  21  25
ENDBRANCH  20  21
ENDBRANCH  18  20
ENDBRANCH  17  18
BRANCH  17  29
ATOM     29  O   UNL     1       4.843  -7.361  26.541  0.00  0.00    -0.380 OA
ATOM     30  H   UNL     1       5.563  -6.870  26.110  0.00  0.00    +0.211 HD
ENDBRANCH  17  29
ENDBRANCH   6  17
ENDBRANCH   1   9
BRANCH   2  31
ATOM     31  O   UNL     1       5.322   0.702  24.638  0.00  0.00    -0.380 OA
ATOM     32  H   UNL     1       4.676   1.417  24.495  0.00  0.00    +0.210 HD
ENDBRANCH   2  31
BRANCH   3  33
ATOM     33  O   UNL     1       3.638   0.544  27.681  0.00  0.00    -0.386 OA
ATOM     34  H   UNL     1       3.745   0.654  28.646  0.00  0.00    +0.210 HD
ENDBRANCH   3  33
BRANCH   4  35
ATOM     35  C   UNL     1       6.733   1.332  28.702  0.00  0.00    +0.206 C 
BRANCH  35  36
ATOM     36  O   UNL     1       5.896   2.470  28.833  0.00  0.00    -0.284 OA
BRANCH  36  37
ATOM     37  P   UNL     1       6.580   3.973  28.633  0.00  0.00    +0.483 P 
ATOM     38  O   UNL     1       5.723   4.827  29.587  0.00  0.00    -0.227 OA
BRANCH  37  39
ATOM     39  O   UNL     1       7.638   3.659  29.966  0.00  0.00    -0.302 OA
ATOM     40  H   UNL     1       8.253   4.424  29.942  0.00  0.00    +0.222 HD
ENDBRANCH  37  39
BRANCH  37  41
ATOM     41  O   UNL     1       5.523   4.285  27.300  0.00  0.00    -0.186 OA
BRANCH  41  42
ATOM     42  P   UNL     1       6.894   4.156  26.296  0.00  0.00    +0.483 P 
ATOM     43  O   UNL     1       7.976   5.095  26.743  0.00  0.00    -0.227 OA
BRANCH  42  44
ATOM     44  O   UNL     1       6.216   4.651  24.912  0.00  0.00    -0.302 OA
ATOM     45  H   UNL     1       5.823   3.906  24.404  0.00  0.00    +0.222 HD
ENDBRANCH  42  44
BRANCH  42  46
ATOM     46  O   UNL     1       7.498   2.773  25.675  0.00  0.00    -0.284 OA
BRANCH  46  47
ATOM     47  C   UNL     1       8.282   3.132  24.479  0.00  0.00    +0.206 C 
BRANCH  47  48
ATOM     48  C   UNL     1       8.533   2.263  23.247  0.00  0.00    +0.178 C 
ATOM     49  C   UNL     1       9.970   1.929  22.881  0.00  0.00    +0.178 C 
ATOM     50  C   UNL     1      10.143   0.473  23.290  0.00  0.00    +0.195 C 
ATOM     51  C   UNL     1       8.759   0.061  23.829  0.00  0.00    +0.253 C 
ATOM     52  O   UNL     1       7.823   1.044  23.366  0.00  0.00    -0.346 OA
BRANCH  51  53
ATOM     53  N   UNL     1       8.231  -1.217  23.423  0.00  0.00    -0.286 N 
ATOM     54  C   UNL     1       8.564  -2.457  23.890  0.00  0.00    +0.167 A 
ATOM     55  N   UNL     1       9.464  -2.775  24.836  0.00  0.00    -0.216 NA
ATOM     56  C   UNL     1       9.554  -4.115  24.970  0.00  0.00    +0.225 A 
ATOM     57  N   UNL     1       8.877  -5.077  24.302  0.00  0.00    -0.219 NA
ATOM     58  C   UNL     1       7.962  -4.699  23.384  0.00  0.00    +0.147 A 
ATOM     59  N   UNL     1       7.259  -5.672  22.689  0.00  0.00    -0.341 N 
ATOM     60  H   UNL     1       6.863  -5.336  21.817  0.00  0.00    +0.144 HD
ATOM     61  H   UNL     1       7.756  -6.554  22.664  0.00  0.00    +0.144 HD
ATOM     62  C   UNL     1       7.784  -3.329  23.147  0.00  0.00    +0.147 A 
ATOM     63  N   UNL     1       6.956  -2.650  22.281  0.00  0.00    -0.231 NA
ATOM     64  C   UNL     1       7.237  -1.379  22.487  0.00  0.00    +0.203 A 
ENDBRANCH  51  53
BRANCH  50  65
ATOM     65  O   UNL     1      11.142   0.380  24.308  0.00  0.00    -0.385 OA
ATOM     66  H   UNL     1      11.975   0.693  23.899  0.00  0.00    +0.210 HD
ENDBRANCH  50  65
BRANCH  49  67
ATOM     67  O   UNL     1      10.139   2.047  21.453  0.00  0.00    -0.386 OA
ATOM     68  H   UNL     1      10.306   1.167  21.069  0.00  0.00    +0.210 HD
ENDBRANCH  49  67
ENDBRANCH  47  48
ENDBRANCH  46  47
ENDBRANCH  42  46
ENDBRANCH  41  42
ENDBRANCH  37  41
ENDBRANCH  36  37
ENDBRANCH  35  36
ENDBRANCH   4  35
TORSDOF 25
ENDMDL
MODEL 9
REMARK VINA RESULT:      -6.9      1.490      2.218
REMARK  Name = 
REMARK  25 active torsions:
REMARK  status: ('A' for Active; 'I' for Inactive)
REMARK    1  A    between atoms: N_1  and  CA_2
REMARK    2  A    between atoms: CA_2  and  C_4
REMARK    3  A    between atoms: CA_2  and  C_62
REMARK    4  A    between atoms: C_4  and  C_5
REMARK    5  A    between atoms: C_5  and  C_7
REMARK    6  A    between atoms: C_7  and  O_9
REMARK    7  A    between atoms: C_7  and  C_10
REMARK    8  A    between atoms: N_13  and  C_19
REMARK    9  A    between atoms: C_15  and  C_16
REMARK   10  A    between atoms: C_22  and  C_24
REMARK   11  A    between atoms: C_24  and  O_25
REMARK   12  A    between atoms: O_25  and  P_26
REMARK   13  A    between atoms: P_26  and  O_27
REMARK   14  A    between atoms: P_26  and  O_29
REMARK   15  A    between atoms: O_29  and  P_30
REMARK   16  A    between atoms: P_30  and  O_31
REMARK   17  A    between atoms: P_30  and  O_33
REMARK   18  A    between atoms: O_33  and  C_34
REMARK   19  A    between atoms: C_34  and  C_35
REMARK   20  A    between atoms: C_38  and  N_46
REMARK   21  A    between atoms: C_40  and  O_42
REMARK   22  A    between atoms: C_43  and  O_45
REMARK   23  A    between atoms: C_56  and  O_58
REMARK   24  A    between atoms: C_59  and  O_61
REMARK   25  A    between atoms: C_62  and  O_63
REMARK                            x       y       z     vdW  Elec       q    Type
REMARK                         _______ _______ _______ _____ _____    ______ ____
ROOT
ATOM      1  C   UNL     1       6.131  -0.089  25.608  0.00  0.00    +0.439 C 
ATOM      2  C   UNL     1       6.662  -0.375  27.017  0.00  0.00    +0.244 C 
ATOM      3  C   UNL     1       5.433  -0.759  27.833  0.00  0.00    +0.183 C 
ATOM      4  C   UNL     1       4.270  -0.763  26.846  0.00  0.00    +0.183 C 
ATOM      5  O   UNL     1       4.859  -0.770  25.526  0.00  0.00    -0.309 OA
ENDROOT
BRANCH   1   9
ATOM      6  C   UNL     1       5.679   4.148  24.955  0.00  0.00    +0.011 A 
ATOM      7  C   UNL     1       6.488   3.656  25.987  0.00  0.00    +0.106 A 
ATOM      8  C   UNL     1       6.649   2.274  26.146  0.00  0.00    +0.325 A 
ATOM      9  N   UNL     1       6.018   1.386  25.335  0.00  0.00    -0.173 N 
ATOM     10  C   UNL     1       5.324   1.832  24.267  0.00  0.00    +0.312 A 
ATOM     11  C   UNL     1       5.143   3.196  24.069  0.00  0.00    +0.077 A 
BRANCH   7  12
ATOM     12  C   UNL     1       7.116   4.471  27.051  0.00  0.00    +0.248 C 
ATOM     13  O   UNL     1       8.119   5.114  26.768  0.00  0.00    -0.270 OA
ATOM     14  N   UNL     1       6.587   4.509  28.297  0.00  0.00    -0.325 N 
ATOM     15  H   UNL     1       7.037   5.104  28.976  0.00  0.00    +0.145 HD
ATOM     16  H   UNL     1       5.646   4.273  28.550  0.00  0.00    +0.145 HD
ENDBRANCH   7  12
BRANCH   6  17
ATOM     17  C   UNL     1       5.340   5.617  24.724  0.00  0.00    +0.211 C 
BRANCH  17  18
ATOM     18  C   UNL     1       6.170   6.205  23.561  0.00  0.00    +0.168 C 
ATOM     19  O   UNL     1       5.707   6.325  22.421  0.00  0.00    -0.294 OA
BRANCH  18  20
ATOM     20  C   UNL     1       7.589   6.667  23.865  0.00  0.00    +0.107 C 
BRANCH  20  21
ATOM     21  CA  UNL     1       8.631   5.961  22.981  0.00  0.00    +0.168 C 
BRANCH  21  22
ATOM     22  N   UNL     1       8.290   4.548  22.657  0.00  0.00    -0.318 NA
ATOM     23  H1  UNL     1       8.625   4.343  21.702  0.00  0.00    +0.119 HD
ATOM     24  H2  UNL     1       8.848   3.929  23.253  0.00  0.00    +0.119 HD
ENDBRANCH  21  22
BRANCH  21  25
ATOM     25  C   UNL     1       9.983   5.987  23.704  0.00  0.00    +0.322 C 
ATOM     26  OXT UNL     1      10.254   6.740  24.624  0.00  0.00    -0.249 OA
BRANCH  25  27
ATOM     27  O   UNL     1      10.801   4.986  23.303  0.00  0.00    -0.480 OA
ATOM     28  H   UNL     1      11.259   5.307  22.485  0.00  0.00    +0.295 HD
ENDBRANCH  25  27
ENDBRANCH  21  25
ENDBRANCH  20  21
ENDBRANCH  18  20
ENDBRANCH  17  18
BRANCH  17  29
ATOM     29  O   UNL     1       3.943   5.665  24.439  0.00  0.00    -0.380 OA
ATOM     30  H   UNL     1       3.544   6.433  24.883  0.00  0.00    +0.211 HD
ENDBRANCH  17  29
ENDBRANCH   6  17
ENDBRANCH   1   9
BRANCH   2  31
ATOM     31  O   UNL     1       7.634  -1.430  26.977  0.00  0.00    -0.380 OA
ATOM     32  H   UNL     1       8.159  -1.391  26.157  0.00  0.00    +0.210 HD
ENDBRANCH   2  31
BRANCH   3  33
ATOM     33  O   UNL     1       5.196   0.237  28.822  0.00  0.00    -0.386 OA
ATOM     34  H   UNL     1       5.867   0.940  28.725  0.00  0.00    +0.210 HD
ENDBRANCH   3  33
BRANCH   4  35
ATOM     35  C   UNL     1       3.319  -1.946  27.105  0.00  0.00    +0.206 C 
BRANCH  35  36
ATOM     36  O   UNL     1       4.000  -3.002  27.761  0.00  0.00    -0.284 OA
BRANCH  36  37
ATOM     37  P   UNL     1       4.304  -4.393  26.899  0.00  0.00    +0.483 P 
ATOM     38  O   UNL     1       3.019  -5.201  27.161  0.00  0.00    -0.227 OA
BRANCH  37  39
ATOM     39  O   UNL     1       3.515  -3.702  25.523  0.00  0.00    -0.302 OA
ATOM     40  H   UNL     1       4.258  -3.301  25.023  0.00  0.00    +0.222 HD
ENDBRANCH  37  39
BRANCH  37  41
ATOM     41  O   UNL     1       5.094  -5.082  28.276  0.00  0.00    -0.186 OA
BRANCH  41  42
ATOM     42  P   UNL     1       6.392  -5.453  27.234  0.00  0.00    +0.483 P 
ATOM     43  O   UNL     1       5.939  -6.332  26.106  0.00  0.00    -0.227 OA
BRANCH  42  44
ATOM     44  O   UNL     1       7.308  -6.271  28.289  0.00  0.00    -0.302 OA
ATOM     45  H   UNL     1       7.965  -6.849  27.839  0.00  0.00    +0.222 HD
ENDBRANCH  42  44
BRANCH  42  46
ATOM     46  O   UNL     1       7.575  -4.427  26.779  0.00  0.00    -0.284 OA
BRANCH  46  47
ATOM     47  C   UNL     1       8.427  -5.138  25.807  0.00  0.00    +0.206 C 
BRANCH  47  48
ATOM     48  C   UNL     1       8.545  -4.863  24.309  0.00  0.00    +0.178 C 
ATOM     49  C   UNL     1       7.286  -4.939  23.461  0.00  0.00    +0.178 C 
ATOM     50  C   UNL     1       6.934  -3.488  23.164  0.00  0.00    +0.195 C 
ATOM     51  C   UNL     1       8.057  -2.676  23.838  0.00  0.00    +0.253 C 
ATOM     52  O   UNL     1       9.131  -3.591  24.100  0.00  0.00    -0.346 OA
BRANCH  51  53
ATOM     53  N   UNL     1       8.635  -1.582  23.098  0.00  0.00    -0.286 N 
ATOM     54  C   UNL     1       9.211  -0.443  23.585  0.00  0.00    +0.167 A 
ATOM     55  N   UNL     1       9.371  -0.076  24.868  0.00  0.00    -0.216 NA
ATOM     56  C   UNL     1       9.926   1.153  24.941  0.00  0.00    +0.225 A 
ATOM     57  N   UNL     1      10.305   1.969  23.931  0.00  0.00    -0.219 NA
ATOM     58  C   UNL     1      10.149   1.535  22.661  0.00  0.00    +0.147 A 
ATOM     59  N   UNL     1      10.531   2.358  21.613  0.00  0.00    -0.341 N 
ATOM     60  H   UNL     1      10.086   2.121  20.732  0.00  0.00    +0.144 HD
ATOM     61  H   UNL     1      10.540   3.334  21.881  0.00  0.00    +0.144 HD
ATOM     62  C   UNL     1       9.572   0.274  22.456  0.00  0.00    +0.147 A 
ATOM     63  N   UNL     1       9.276  -0.420  21.304  0.00  0.00    -0.231 NA
ATOM     64  C   UNL     1       8.729  -1.542  21.727  0.00  0.00    +0.203 A 
ENDBRANCH  51  53
BRANCH  50  65
ATOM     65  O   UNL     1       5.661  -3.181  23.736  0.00  0.00    -0.385 OA
ATOM     66  H   UNL     1       5.791  -2.368  24.267  0.00  0.00    +0.210 HD
ENDBRANCH  50  65
BRANCH  49  67
ATOM     67  O   UNL     1       7.584  -5.621  22.225  0.00  0.00    -0.386 OA
ATOM     68  H   UNL     1       7.068  -5.223  21.500  0.00  0.00    +0.210 HD
ENDBRANCH  49  67
ENDBRANCH  47  48
ENDBRANCH  46  47
ENDBRANCH  42  46
ENDBRANCH  41  42
ENDBRANCH  37  41
ENDBRANCH  36  37
ENDBRANCH  35  36
ENDBRANCH   4  35
TORSDOF 25
ENDMDL
