MODEL 1
REMARK VINA RESULT:      -8.5      0.000      0.000
REMARK  Name = 
REMARK  9 active torsions:
REMARK  status: ('A' for Active; 'I' for Inactive)
REMARK    1  A    between atoms: C_2  and  O_3
REMARK    2  A    between atoms: C_5  and  N_16
REMARK    3  A    between atoms: C_8  and  C_10
REMARK    4  A    between atoms: C_10  and  O_11
REMARK    5  A    between atoms: O_11  and  P_12
REMARK    6  A    between atoms: P_12  and  O_13
REMARK    7  A    between atoms: P_12  and  O_14
REMARK    8  A    between atoms: N_23  and  C_24
REMARK    9  A    between atoms: C_24  and  C_25
REMARK                            x       y       z     vdW  Elec       q    Type
REMARK                         _______ _______ _______ _____ _____    ______ ____
ROOT
ATOM      1  N   UNL     1       4.665  -4.882  24.923  0.00  0.00    -0.288 N 
ATOM      2  C   UNL     1       5.224  -3.850  24.203  0.00  0.00    +0.171 A 
ATOM      3  N   UNL     1       5.685  -2.663  24.669  0.00  0.00    -0.196 NA
ATOM      4  C   UNL     1       6.020  -1.812  23.727  0.00  0.00    +0.198 A 
ATOM      5  N   UNL     1       5.942  -2.109  22.380  0.00  0.00    -0.293 N 
ATOM      6  H   UNL     1       6.320  -1.463  21.709  0.00  0.00    +0.172 HD
ATOM      7  C   UNL     1       5.579  -3.340  21.862  0.00  0.00    +0.280 A 
ATOM      8  O   UNL     1       5.619  -3.579  20.659  0.00  0.00    -0.265 OA
ATOM      9  N   UNL     1       6.501  -0.591  24.082  0.00  0.00    -0.311 N 
ATOM     10  H   UNL     1       6.789  -0.485  25.051  0.00  0.00    +0.149 HD
ATOM     11  C   UNL     1       5.163  -4.267  22.890  0.00  0.00    +0.172 A 
ATOM     12  N   UNL     1       4.682  -5.543  22.780  0.00  0.00    -0.229 NA
ATOM     13  C   UNL     1       4.391  -5.885  24.015  0.00  0.00    +0.203 A 
ENDROOT
BRANCH   1  17
ATOM     14  C   UNL     1       5.410  -6.673  27.300  0.00  0.00    +0.150 C 
ATOM     15  C   UNL     1       6.034  -5.356  27.764  0.00  0.00    +0.175 C 
ATOM     16  O   UNL     1       5.273  -4.304  27.139  0.00  0.00    -0.348 OA
ATOM     17  C   UNL     1       4.245  -4.887  26.317  0.00  0.00    +0.225 C 
ATOM     18  C   UNL     1       4.004  -6.257  26.937  0.00  0.00    +0.088 C 
BRANCH  14  19
ATOM     19  O   UNL     1       5.438  -7.686  28.287  0.00  0.00    -0.389 OA
ATOM     20  H   UNL     1       4.699  -7.549  28.907  0.00  0.00    +0.210 HD
ENDBRANCH  14  19
BRANCH  15  21
ATOM     21  C   UNL     1       7.508  -5.259  27.368  0.00  0.00    +0.206 C 
BRANCH  21  22
ATOM     22  O   UNL     1       7.694  -5.679  26.013  0.00  0.00    -0.284 OA
BRANCH  22  23
ATOM     23  P   UNL     1       8.907  -4.764  25.186  0.00  0.00    +0.472 P 
ATOM     24  O   UNL     1       9.993  -3.945  24.445  0.00  0.00    -0.228 OA
BRANCH  23  25
ATOM     25  O   UNL     1       8.349  -5.487  23.829  0.00  0.00    -0.303 OA
ATOM     26  H   UNL     1       7.653  -4.929  23.440  0.00  0.00    +0.222 HD
ENDBRANCH  23  25
BRANCH  23  27
ATOM     27  O   UNL     1       9.916  -5.969  25.631  0.00  0.00    -0.303 OA
ATOM     28  H   UNL     1       9.420  -6.594  26.201  0.00  0.00    +0.222 HD
ENDBRANCH  23  27
ENDBRANCH  22  23
ENDBRANCH  21  22
ENDBRANCH  15  21
ENDBRANCH   1  17
BRANCH   9  29
ATOM     29  C   UNL     1       6.395   0.649  23.357  0.00  0.00    +0.140 C 
BRANCH  29  30
ATOM     30  C   UNL     1       7.760   1.202  23.020  0.00  0.00    -0.023 A 
ATOM     31  C   UNL     1       8.265   2.425  23.552  0.00  0.00    -0.013 A 
ATOM     32  C   UNL     1       7.531   3.307  24.388  0.00  0.00    +0.009 A 
ATOM     33  C   UNL     1       8.078   4.500  24.867  0.00  0.00    +0.001 A 
ATOM     34  C   UNL     1       9.383   4.844  24.541  0.00  0.00    +0.001 A 
ATOM     35  C   UNL     1      10.134   3.998  23.728  0.00  0.00    +0.008 A 
ATOM     36  C   UNL     1       9.593   2.805  23.220  0.00  0.00    -0.018 A 
ATOM     37  C   UNL     1      10.372   1.999  22.381  0.00  0.00    +0.008 A 
ATOM     38  C   UNL     1       9.863   0.824  21.845  0.00  0.00    +0.001 A 
ATOM     39  C   UNL     1       8.571   0.427  22.162  0.00  0.00    +0.006 A 
ENDBRANCH  29  30
ENDBRANCH   9  29
TORSDOF 9
ENDMDL
MODEL 2
REMARK VINA RESULT:      -8.2      2.372      3.698
REMARK  Name = 
REMARK  9 active torsions:
REMARK  status: ('A' for Active; 'I' for Inactive)
REMARK    1  A    between atoms: C_2  and  O_3
REMARK    2  A    between atoms: C_5  and  N_16
REMARK    3  A    between atoms: C_8  and  C_10
REMARK    4  A    between atoms: C_10  and  O_11
REMARK    5  A    between atoms: O_11  and  P_12
REMARK    6  A    between atoms: P_12  and  O_13
REMARK    7  A    between atoms: P_12  and  O_14
REMARK    8  A    between atoms: N_23  and  C_24
REMARK    9  A    between atoms: C_24  and  C_25
REMARK                            x       y       z     vdW  Elec       q    Type
REMARK                         _______ _______ _______ _____ _____    ______ ____
ROOT
ATOM      1  N   UNL     1       5.882  -4.815  23.917  0.00  0.00    -0.288 N 
ATOM      2  C   UNL     1       6.730  -3.961  24.587  0.00  0.00    +0.171 A 
ATOM      3  N   UNL     1       6.411  -3.040  25.530  0.00  0.00    -0.196 NA
ATOM      4  C   UNL     1       7.410  -2.262  25.877  0.00  0.00    +0.198 A 
ATOM      5  N   UNL     1       8.683  -2.390  25.355  0.00  0.00    -0.293 N 
ATOM      6  H   UNL     1       9.433  -1.844  25.741  0.00  0.00    +0.172 HD
ATOM      7  C   UNL     1       9.079  -3.380  24.472  0.00  0.00    +0.280 A 
ATOM      8  O   UNL     1      10.245  -3.505  24.113  0.00  0.00    -0.265 OA
ATOM      9  N   UNL     1       7.203  -1.305  26.821  0.00  0.00    -0.311 N 
ATOM     10  H   UNL     1       6.352  -1.391  27.369  0.00  0.00    +0.149 HD
ATOM     11  C   UNL     1       7.975  -4.210  24.047  0.00  0.00    +0.172 A 
ATOM     12  N   UNL     1       7.946  -5.241  23.149  0.00  0.00    -0.229 NA
ATOM     13  C   UNL     1       6.677  -5.583  23.091  0.00  0.00    +0.203 A 
ENDROOT
BRANCH   1  17
ATOM     14  C   UNL     1       3.808  -7.070  24.065  0.00  0.00    +0.150 C 
ATOM     15  C   UNL     1       3.534  -6.380  25.401  0.00  0.00    +0.175 C 
ATOM     16  O   UNL     1       3.921  -5.003  25.234  0.00  0.00    -0.348 OA
ATOM     17  C   UNL     1       4.426  -4.812  23.900  0.00  0.00    +0.225 C 
ATOM     18  C   UNL     1       3.766  -5.918  23.089  0.00  0.00    +0.088 C 
BRANCH  14  19
ATOM     19  O   UNL     1       2.869  -8.082  23.751  0.00  0.00    -0.389 OA
ATOM     20  H   UNL     1       2.895  -8.257  22.794  0.00  0.00    +0.210 HD
ENDBRANCH  14  19
BRANCH  15  21
ATOM     21  C   UNL     1       4.323  -7.024  26.542  0.00  0.00    +0.206 C 
BRANCH  21  22
ATOM     22  O   UNL     1       5.595  -6.389  26.695  0.00  0.00    -0.284 OA
BRANCH  22  23
ATOM     23  P   UNL     1       5.955  -5.993  28.341  0.00  0.00    +0.472 P 
ATOM     24  O   UNL     1       6.279  -5.639  29.813  0.00  0.00    -0.228 OA
BRANCH  23  25
ATOM     25  O   UNL     1       7.525  -6.119  27.896  0.00  0.00    -0.303 OA
ATOM     26  H   UNL     1       7.599  -5.908  26.948  0.00  0.00    +0.222 HD
ENDBRANCH  23  25
BRANCH  23  27
ATOM     27  O   UNL     1       5.721  -7.584  28.624  0.00  0.00    -0.303 OA
ATOM     28  H   UNL     1       5.451  -8.013  27.784  0.00  0.00    +0.222 HD
ENDBRANCH  23  27
ENDBRANCH  22  23
ENDBRANCH  21  22
ENDBRANCH  15  21
ENDBRANCH   1  17
BRANCH   9  29
ATOM     29  C   UNL     1       7.873  -0.037  26.959  0.00  0.00    +0.140 C 
BRANCH  29  30
ATOM     30  C   UNL     1       7.510   0.895  25.826  0.00  0.00    -0.023 A 
ATOM     31  C   UNL     1       8.436   1.315  24.826  0.00  0.00    -0.013 A 
ATOM     32  C   UNL     1       9.816   0.981  24.812  0.00  0.00    +0.009 A 
ATOM     33  C   UNL     1      10.677   1.435  23.810  0.00  0.00    +0.001 A 
ATOM     34  C   UNL     1      10.186   2.224  22.779  0.00  0.00    +0.001 A 
ATOM     35  C   UNL     1       8.834   2.565  22.759  0.00  0.00    +0.008 A 
ATOM     36  C   UNL     1       7.958   2.135  23.769  0.00  0.00    -0.018 A 
ATOM     37  C   UNL     1       6.615   2.527  23.727  0.00  0.00    +0.008 A 
ATOM     38  C   UNL     1       5.726   2.137  24.720  0.00  0.00    +0.001 A 
ATOM     39  C   UNL     1       6.167   1.328  25.758  0.00  0.00    +0.006 A 
ENDBRANCH  29  30
ENDBRANCH   9  29
TORSDOF 9
ENDMDL
MODEL 3
REMARK VINA RESULT:      -8.1      2.093      3.580
REMARK  Name = 
REMARK  9 active torsions:
REMARK  status: ('A' for Active; 'I' for Inactive)
REMARK    1  A    between atoms: C_2  and  O_3
REMARK    2  A    between atoms: C_5  and  N_16
REMARK    3  A    between atoms: C_8  and  C_10
REMARK    4  A    between atoms: C_10  and  O_11
REMARK    5  A    between atoms: O_11  and  P_12
REMARK    6  A    between atoms: P_12  and  O_13
REMARK    7  A    between atoms: P_12  and  O_14
REMARK    8  A    between atoms: N_23  and  C_24
REMARK    9  A    between atoms: C_24  and  C_25
REMARK                            x       y       z     vdW  Elec       q    Type
REMARK                         _______ _______ _______ _____ _____    ______ ____
ROOT
ATOM      1  N   UNL     1       6.387  -4.215  23.458  0.00  0.00    -0.288 N 
ATOM      2  C   UNL     1       7.004  -2.990  23.343  0.00  0.00    +0.171 A 
ATOM      3  N   UNL     1       6.430  -1.788  23.085  0.00  0.00    -0.196 NA
ATOM      4  C   UNL     1       7.289  -0.819  22.878  0.00  0.00    +0.198 A 
ATOM      5  N   UNL     1       8.658  -0.995  22.950  0.00  0.00    -0.293 N 
ATOM      6  H   UNL     1       9.263  -0.195  22.897  0.00  0.00    +0.172 HD
ATOM      7  C   UNL     1       9.284  -2.175  23.314  0.00  0.00    +0.280 A 
ATOM      8  O   UNL     1      10.501  -2.250  23.455  0.00  0.00    -0.265 OA
ATOM      9  N   UNL     1       6.823   0.432  22.616  0.00  0.00    -0.311 N 
ATOM     10  H   UNL     1       5.841   0.597  22.817  0.00  0.00    +0.149 HD
ATOM     11  C   UNL     1       8.347  -3.260  23.496  0.00  0.00    +0.172 A 
ATOM     12  N   UNL     1       8.574  -4.576  23.793  0.00  0.00    -0.229 NA
ATOM     13  C   UNL     1       7.379  -5.123  23.763  0.00  0.00    +0.203 A 
ENDROOT
BRANCH   1  17
ATOM     14  C   UNL     1       4.588  -6.540  24.336  0.00  0.00    +0.150 C 
ATOM     15  C   UNL     1       3.858  -5.380  25.014  0.00  0.00    +0.175 C 
ATOM     16  O   UNL     1       4.146  -4.206  24.231  0.00  0.00    -0.348 OA
ATOM     17  C   UNL     1       5.010  -4.566  23.137  0.00  0.00    +0.225 C 
ATOM     18  C   UNL     1       4.733  -6.047  22.915  0.00  0.00    +0.088 C 
BRANCH  14  19
ATOM     19  O   UNL     1       3.887  -7.767  24.415  0.00  0.00    -0.389 OA
ATOM     20  H   UNL     1       4.274  -8.312  25.123  0.00  0.00    +0.210 HD
ENDBRANCH  14  19
BRANCH  15  21
ATOM     21  C   UNL     1       4.324  -5.188  26.459  0.00  0.00    +0.206 C 
BRANCH  21  22
ATOM     22  O   UNL     1       5.457  -6.016  26.736  0.00  0.00    -0.284 OA
BRANCH  22  23
ATOM     23  P   UNL     1       5.896  -6.016  28.410  0.00  0.00    +0.472 P 
ATOM     24  O   UNL     1       6.289  -6.017  29.908  0.00  0.00    -0.228 OA
BRANCH  23  25
ATOM     25  O   UNL     1       7.438  -6.122  27.876  0.00  0.00    -0.303 OA
ATOM     26  H   UNL     1       7.928  -5.335  28.176  0.00  0.00    +0.222 HD
ENDBRANCH  23  25
BRANCH  23  27
ATOM     27  O   UNL     1       5.574  -7.616  28.346  0.00  0.00    -0.303 OA
ATOM     28  H   UNL     1       6.412  -8.095  28.174  0.00  0.00    +0.222 HD
ENDBRANCH  23  27
ENDBRANCH  22  23
ENDBRANCH  21  22
ENDBRANCH  15  21
ENDBRANCH   1  17
BRANCH   9  29
ATOM     29  C   UNL     1       7.449   1.465  21.831  0.00  0.00    +0.140 C 
BRANCH  29  30
ATOM     30  C   UNL     1       7.361   2.804  22.524  0.00  0.00    -0.023 A 
ATOM     31  C   UNL     1       8.500   3.519  23.001  0.00  0.00    -0.013 A 
ATOM     32  C   UNL     1       9.833   3.034  22.959  0.00  0.00    +0.009 A 
ATOM     33  C   UNL     1      10.907   3.778  23.456  0.00  0.00    +0.001 A 
ATOM     34  C   UNL     1      10.687   5.038  23.995  0.00  0.00    +0.001 A 
ATOM     35  C   UNL     1       9.390   5.546  24.046  0.00  0.00    +0.008 A 
ATOM     36  C   UNL     1       8.296   4.804  23.571  0.00  0.00    -0.018 A 
ATOM     37  C   UNL     1       7.006   5.340  23.669  0.00  0.00    +0.008 A 
ATOM     38  C   UNL     1       5.901   4.626  23.228  0.00  0.00    +0.001 A 
ATOM     39  C   UNL     1       6.075   3.372  22.659  0.00  0.00    +0.006 A 
ENDBRANCH  29  30
ENDBRANCH   9  29
TORSDOF 9
ENDMDL
MODEL 4
REMARK VINA RESULT:      -8.1      2.508      4.194
REMARK  Name = 
REMARK  9 active torsions:
REMARK  status: ('A' for Active; 'I' for Inactive)
REMARK    1  A    between atoms: C_2  and  O_3
REMARK    2  A    between atoms: C_5  and  N_16
REMARK    3  A    between atoms: C_8  and  C_10
REMARK    4  A    between atoms: C_10  and  O_11
REMARK    5  A    between atoms: O_11  and  P_12
REMARK    6  A    between atoms: P_12  and  O_13
REMARK    7  A    between atoms: P_12  and  O_14
REMARK    8  A    between atoms: N_23  and  C_24
REMARK    9  A    between atoms: C_24  and  C_25
REMARK                            x       y       z     vdW  Elec       q    Type
REMARK                         _______ _______ _______ _____ _____    ______ ____
ROOT
ATOM      1  N   UNL     1       8.222  -3.255  25.793  0.00  0.00    -0.288 N 
ATOM      2  C   UNL     1       8.625  -2.109  25.144  0.00  0.00    +0.171 A 
ATOM      3  N   UNL     1       8.179  -0.842  25.335  0.00  0.00    -0.196 NA
ATOM      4  C   UNL     1       8.636   0.022  24.460  0.00  0.00    +0.198 A 
ATOM      5  N   UNL     1       9.520  -0.317  23.453  0.00  0.00    -0.293 N 
ATOM      6  H   UNL     1       9.924   0.406  22.886  0.00  0.00    +0.172 HD
ATOM      7  C   UNL     1      10.082  -1.571  23.286  0.00  0.00    +0.280 A 
ATOM      8  O   UNL     1      10.935  -1.794  22.432  0.00  0.00    -0.265 OA
ATOM      9  N   UNL     1       8.258   1.325  24.560  0.00  0.00    -0.311 N 
ATOM     10  H   UNL     1       7.825   1.601  25.437  0.00  0.00    +0.149 HD
ATOM     11  C   UNL     1       9.547  -2.540  24.214  0.00  0.00    +0.172 A 
ATOM     12  N   UNL     1       9.799  -3.881  24.327  0.00  0.00    -0.229 NA
ATOM     13  C   UNL     1       8.989  -4.281  25.282  0.00  0.00    +0.203 A 
ENDROOT
BRANCH   1  17
ATOM     14  C   UNL     1       5.188  -3.115  25.354  0.00  0.00    +0.150 C 
ATOM     15  C   UNL     1       5.335  -4.605  25.666  0.00  0.00    +0.175 C 
ATOM     16  O   UNL     1       6.507  -4.733  26.495  0.00  0.00    -0.348 OA
ATOM     17  C   UNL     1       7.091  -3.432  26.693  0.00  0.00    +0.225 C 
ATOM     18  C   UNL     1       5.928  -2.468  26.502  0.00  0.00    +0.088 C 
BRANCH  14  19
ATOM     19  O   UNL     1       3.841  -2.689  25.268  0.00  0.00    -0.389 OA
ATOM     20  H   UNL     1       3.422  -3.107  24.494  0.00  0.00    +0.210 HD
ENDBRANCH  14  19
BRANCH  15  21
ATOM     21  C   UNL     1       5.486  -5.437  24.392  0.00  0.00    +0.206 C 
BRANCH  21  22
ATOM     22  O   UNL     1       6.426  -4.828  23.501  0.00  0.00    -0.284 OA
BRANCH  22  23
ATOM     23  P   UNL     1       6.165  -5.264  21.848  0.00  0.00    +0.472 P 
ATOM     24  O   UNL     1       5.931  -5.654  20.367  0.00  0.00    -0.228 OA
BRANCH  23  25
ATOM     25  O   UNL     1       5.125  -4.002  21.810  0.00  0.00    -0.303 OA
ATOM     26  H   UNL     1       4.310  -4.254  22.279  0.00  0.00    +0.222 HD
ENDBRANCH  23  25
BRANCH  23  27
ATOM     27  O   UNL     1       5.107  -6.351  22.451  0.00  0.00    -0.303 OA
ATOM     28  H   UNL     1       5.614  -7.070  22.885  0.00  0.00    +0.222 HD
ENDBRANCH  23  27
ENDBRANCH  22  23
ENDBRANCH  21  22
ENDBRANCH  15  21
ENDBRANCH   1  17
BRANCH   9  29
ATOM     29  C   UNL     1       8.124   2.293  23.502  0.00  0.00    +0.140 C 
BRANCH  29  30
ATOM     30  C   UNL     1       8.419   3.689  24.001  0.00  0.00    -0.023 A 
ATOM     31  C   UNL     1       9.700   4.307  23.895  0.00  0.00    -0.013 A 
ATOM     32  C   UNL     1      10.864   3.672  23.388  0.00  0.00    +0.009 A 
ATOM     33  C   UNL     1      12.096   4.328  23.321  0.00  0.00    +0.001 A 
ATOM     34  C   UNL     1      12.202   5.646  23.743  0.00  0.00    +0.001 A 
ATOM     35  C   UNL     1      11.077   6.302  24.240  0.00  0.00    +0.008 A 
ATOM     36  C   UNL     1       9.836   5.651  24.334  0.00  0.00    -0.018 A 
ATOM     37  C   UNL     1       8.739   6.338  24.868  0.00  0.00    +0.008 A 
ATOM     38  C   UNL     1       7.503   5.719  24.994  0.00  0.00    +0.001 A 
ATOM     39  C   UNL     1       7.342   4.409  24.564  0.00  0.00    +0.006 A 
ENDBRANCH  29  30
ENDBRANCH   9  29
TORSDOF 9
ENDMDL
MODEL 5
REMARK VINA RESULT:      -7.8      3.436      8.150
REMARK  Name = 
REMARK  9 active torsions:
REMARK  status: ('A' for Active; 'I' for Inactive)
REMARK    1  A    between atoms: C_2  and  O_3
REMARK    2  A    between atoms: C_5  and  N_16
REMARK    3  A    between atoms: C_8  and  C_10
REMARK    4  A    between atoms: C_10  and  O_11
REMARK    5  A    between atoms: O_11  and  P_12
REMARK    6  A    between atoms: P_12  and  O_13
REMARK    7  A    between atoms: P_12  and  O_14
REMARK    8  A    between atoms: N_23  and  C_24
REMARK    9  A    between atoms: C_24  and  C_25
REMARK                            x       y       z     vdW  Elec       q    Type
REMARK                         _______ _______ _______ _____ _____    ______ ____
ROOT
ATOM      1  N   UNL     1       6.289   2.090  24.988  0.00  0.00    -0.288 N 
ATOM      2  C   UNL     1       7.025   1.050  25.509  0.00  0.00    +0.171 A 
ATOM      3  N   UNL     1       7.529  -0.025  24.853  0.00  0.00    -0.196 NA
ATOM      4  C   UNL     1       8.054  -0.934  25.640  0.00  0.00    +0.198 A 
ATOM      5  N   UNL     1       8.120  -0.796  27.014  0.00  0.00    -0.293 N 
ATOM      6  H   UNL     1       8.635  -1.469  27.554  0.00  0.00    +0.172 HD
ATOM      7  C   UNL     1       7.716   0.326  27.715  0.00  0.00    +0.280 A 
ATOM      8  O   UNL     1       7.885   0.435  28.926  0.00  0.00    -0.265 OA
ATOM      9  N   UNL     1       8.596  -2.053  25.088  0.00  0.00    -0.311 N 
ATOM     10  H   UNL     1       8.768  -2.021  24.087  0.00  0.00    +0.149 HD
ATOM     11  C   UNL     1       7.092   1.311  26.861  0.00  0.00    +0.172 A 
ATOM     12  N   UNL     1       6.515   2.511  27.179  0.00  0.00    -0.229 NA
ATOM     13  C   UNL     1       6.042   2.954  26.036  0.00  0.00    +0.203 A 
ENDROOT
BRANCH   1  17
ATOM     14  C   UNL     1       7.106   3.675  22.492  0.00  0.00    +0.150 C 
ATOM     15  C   UNL     1       7.338   2.253  21.981  0.00  0.00    +0.175 C 
ATOM     16  O   UNL     1       6.444   1.403  22.725  0.00  0.00    -0.348 OA
ATOM     17  C   UNL     1       5.699   2.204  23.662  0.00  0.00    +0.225 C 
ATOM     18  C   UNL     1       5.703   3.597  23.047  0.00  0.00    +0.088 C 
BRANCH  14  19
ATOM     19  O   UNL     1       7.236   4.662  21.485  0.00  0.00    -0.389 OA
ATOM     20  H   UNL     1       7.461   5.514  21.899  0.00  0.00    +0.210 HD
ENDBRANCH  14  19
BRANCH  15  21
ATOM     21  C   UNL     1       8.788   1.811  22.180  0.00  0.00    +0.206 C 
BRANCH  21  22
ATOM     22  O   UNL     1       9.158   0.840  21.197  0.00  0.00    -0.284 OA
BRANCH  22  23
ATOM     23  P   UNL     1       9.818  -0.602  21.890  0.00  0.00    +0.472 P 
ATOM     24  O   UNL     1      10.408  -1.892  22.512  0.00  0.00    -0.228 OA
BRANCH  23  25
ATOM     25  O   UNL     1       8.266  -1.006  22.214  0.00  0.00    -0.303 OA
ATOM     26  H   UNL     1       7.939  -0.438  22.934  0.00  0.00    +0.222 HD
ENDBRANCH  23  25
BRANCH  23  27
ATOM     27  O   UNL     1      10.047   0.316  23.222  0.00  0.00    -0.303 OA
ATOM     28  H   UNL     1       9.278   0.917  23.320  0.00  0.00    +0.222 HD
ENDBRANCH  23  27
ENDBRANCH  22  23
ENDBRANCH  21  22
ENDBRANCH  15  21
ENDBRANCH   1  17
BRANCH   9  29
ATOM     29  C   UNL     1       8.693  -3.369  25.665  0.00  0.00    +0.140 C 
BRANCH  29  30
ATOM     30  C   UNL     1       7.391  -4.122  25.525  0.00  0.00    -0.023 A 
ATOM     31  C   UNL     1       6.968  -4.742  24.312  0.00  0.00    -0.013 A 
ATOM     32  C   UNL     1       7.667  -4.664  23.079  0.00  0.00    +0.009 A 
ATOM     33  C   UNL     1       7.193  -5.284  21.919  0.00  0.00    +0.001 A 
ATOM     34  C   UNL     1       6.015  -6.017  21.958  0.00  0.00    +0.001 A 
ATOM     35  C   UNL     1       5.308  -6.120  23.154  0.00  0.00    +0.008 A 
ATOM     36  C   UNL     1       5.757  -5.486  24.324  0.00  0.00    -0.018 A 
ATOM     37  C   UNL     1       5.000  -5.589  25.497  0.00  0.00    +0.008 A 
ATOM     38  C   UNL     1       5.404  -4.959  26.666  0.00  0.00    +0.001 A 
ATOM     39  C   UNL     1       6.588  -4.234  26.682  0.00  0.00    +0.006 A 
ENDBRANCH  29  30
ENDBRANCH   9  29
TORSDOF 9
ENDMDL
MODEL 6
REMARK VINA RESULT:      -7.7      3.450      8.151
REMARK  Name = 
REMARK  9 active torsions:
REMARK  status: ('A' for Active; 'I' for Inactive)
REMARK    1  A    between atoms: C_2  and  O_3
REMARK    2  A    between atoms: C_5  and  N_16
REMARK    3  A    between atoms: C_8  and  C_10
REMARK    4  A    between atoms: C_10  and  O_11
REMARK    5  A    between atoms: O_11  and  P_12
REMARK    6  A    between atoms: P_12  and  O_13
REMARK    7  A    between atoms: P_12  and  O_14
REMARK    8  A    between atoms: N_23  and  C_24
REMARK    9  A    between atoms: C_24  and  C_25
REMARK                            x       y       z     vdW  Elec       q    Type
REMARK                         _______ _______ _______ _____ _____    ______ ____
ROOT
ATOM      1  N   UNL     1       5.761   1.553  23.908  0.00  0.00    -0.288 N 
ATOM      2  C   UNL     1       6.276   0.473  24.591  0.00  0.00    +0.171 A 
ATOM      3  N   UNL     1       7.290  -0.344  24.215  0.00  0.00    -0.196 NA
ATOM      4  C   UNL     1       7.457  -1.385  24.997  0.00  0.00    +0.198 A 
ATOM      5  N   UNL     1       6.691  -1.612  26.124  0.00  0.00    -0.293 N 
ATOM      6  H   UNL     1       6.938  -2.360  26.747  0.00  0.00    +0.172 HD
ATOM      7  C   UNL     1       5.718  -0.752  26.604  0.00  0.00    +0.280 A 
ATOM      8  O   UNL     1       5.133  -0.956  27.664  0.00  0.00    -0.265 OA
ATOM      9  N   UNL     1       8.451  -2.269  24.716  0.00  0.00    -0.311 N 
ATOM     10  H   UNL     1       9.154  -1.959  24.050  0.00  0.00    +0.149 HD
ATOM     11  C   UNL     1       5.495   0.371  25.723  0.00  0.00    +0.172 A 
ATOM     12  N   UNL     1       4.589   1.393  25.814  0.00  0.00    -0.229 NA
ATOM     13  C   UNL     1       4.772   2.084  24.711  0.00  0.00    +0.203 A 
ENDROOT
BRANCH   1  17
ATOM     14  C   UNL     1       6.773   4.188  22.707  0.00  0.00    +0.150 C 
ATOM     15  C   UNL     1       7.967   3.286  22.393  0.00  0.00    +0.175 C 
ATOM     16  O   UNL     1       7.449   1.946  22.292  0.00  0.00    -0.348 OA
ATOM     17  C   UNL     1       6.031   1.967  22.539  0.00  0.00    +0.225 C 
ATOM     18  C   UNL     1       5.610   3.384  22.175  0.00  0.00    +0.088 C 
BRANCH  14  19
ATOM     19  O   UNL     1       6.865   5.469  22.112  0.00  0.00    -0.389 OA
ATOM     20  H   UNL     1       6.361   6.108  22.648  0.00  0.00    +0.210 HD
ENDBRANCH  14  19
BRANCH  15  21
ATOM     21  C   UNL     1       9.038   3.366  23.482  0.00  0.00    +0.206 C 
BRANCH  21  22
ATOM     22  O   UNL     1      10.204   2.633  23.097  0.00  0.00    -0.284 OA
BRANCH  22  23
ATOM     23  P   UNL     1      10.534   1.295  24.142  0.00  0.00    +0.472 P 
ATOM     24  O   UNL     1      10.827   0.096  25.078  0.00  0.00    -0.228 OA
BRANCH  23  25
ATOM     25  O   UNL     1       9.727   0.396  23.038  0.00  0.00    -0.303 OA
ATOM     26  H   UNL     1       8.870   0.821  22.856  0.00  0.00    +0.222 HD
ENDBRANCH  23  25
BRANCH  23  27
ATOM     27  O   UNL     1       9.215   1.797  24.964  0.00  0.00    -0.303 OA
ATOM     28  H   UNL     1       9.382   2.706  25.293  0.00  0.00    +0.222 HD
ENDBRANCH  23  27
ENDBRANCH  22  23
ENDBRANCH  21  22
ENDBRANCH  15  21
ENDBRANCH   1  17
BRANCH   9  29
ATOM     29  C   UNL     1       8.492  -3.679  25.008  0.00  0.00    +0.140 C 
BRANCH  29  30
ATOM     30  C   UNL     1       7.524  -4.444  24.136  0.00  0.00    -0.023 A 
ATOM     31  C   UNL     1       6.479  -5.265  24.654  0.00  0.00    -0.013 A 
ATOM     32  C   UNL     1       6.268  -5.530  26.033  0.00  0.00    +0.009 A 
ATOM     33  C   UNL     1       5.233  -6.355  26.478  0.00  0.00    +0.001 A 
ATOM     34  C   UNL     1       4.362  -6.930  25.562  0.00  0.00    +0.001 A 
ATOM     35  C   UNL     1       4.537  -6.685  24.201  0.00  0.00    +0.008 A 
ATOM     36  C   UNL     1       5.585  -5.875  23.734  0.00  0.00    -0.018 A 
ATOM     37  C   UNL     1       5.742  -5.681  22.356  0.00  0.00    +0.008 A 
ATOM     38  C   UNL     1       6.779  -4.903  21.859  0.00  0.00    +0.001 A 
ATOM     39  C   UNL     1       7.660  -4.288  22.738  0.00  0.00    +0.006 A 
ENDBRANCH  29  30
ENDBRANCH   9  29
TORSDOF 9
ENDMDL
MODEL 7
REMARK VINA RESULT:      -7.7      4.524      9.233
REMARK  Name = 
REMARK  9 active torsions:
REMARK  status: ('A' for Active; 'I' for Inactive)
REMARK    1  A    between atoms: C_2  and  O_3
REMARK    2  A    between atoms: C_5  and  N_16
REMARK    3  A    between atoms: C_8  and  C_10
REMARK    4  A    between atoms: C_10  and  O_11
REMARK    5  A    between atoms: O_11  and  P_12
REMARK    6  A    between atoms: P_12  and  O_13
REMARK    7  A    between atoms: P_12  and  O_14
REMARK    8  A    between atoms: N_23  and  C_24
REMARK    9  A    between atoms: C_24  and  C_25
REMARK                            x       y       z     vdW  Elec       q    Type
REMARK                         _______ _______ _______ _____ _____    ______ ____
ROOT
ATOM      1  N   UNL     1       9.213  -0.424  23.818  0.00  0.00    -0.288 N 
ATOM      2  C   UNL     1       8.563  -1.584  24.174  0.00  0.00    +0.171 A 
ATOM      3  N   UNL     1       8.236  -2.006  25.421  0.00  0.00    -0.196 NA
ATOM      4  C   UNL     1       7.760  -3.228  25.464  0.00  0.00    +0.198 A 
ATOM      5  N   UNL     1       7.574  -4.006  24.336  0.00  0.00    -0.293 N 
ATOM      6  H   UNL     1       7.100  -4.888  24.417  0.00  0.00    +0.172 HD
ATOM      7  C   UNL     1       7.794  -3.579  23.038  0.00  0.00    +0.280 A 
ATOM      8  O   UNL     1       7.522  -4.279  22.067  0.00  0.00    -0.265 OA
ATOM      9  N   UNL     1       7.393  -3.752  26.664  0.00  0.00    -0.311 N 
ATOM     10  H   UNL     1       7.295  -3.093  27.431  0.00  0.00    +0.149 HD
ATOM     11  C   UNL     1       8.364  -2.253  22.985  0.00  0.00    +0.172 A 
ATOM     12  N   UNL     1       8.774  -1.515  21.908  0.00  0.00    -0.229 NA
ATOM     13  C   UNL     1       9.280  -0.424  22.440  0.00  0.00    +0.203 A 
ENDROOT
BRANCH   1  17
ATOM     14  C   UNL     1      10.276   2.412  23.323  0.00  0.00    +0.150 C 
ATOM     15  C   UNL     1       9.138   2.729  24.295  0.00  0.00    +0.175 C 
ATOM     16  O   UNL     1       8.954   1.551  25.103  0.00  0.00    -0.348 OA
ATOM     17  C   UNL     1       9.885   0.537  24.681  0.00  0.00    +0.225 C 
ATOM     18  C   UNL     1      11.027   1.320  24.048  0.00  0.00    +0.088 C 
BRANCH  14  19
ATOM     19  O   UNL     1      11.092   3.530  23.031  0.00  0.00    -0.389 OA
ATOM     20  H   UNL     1      12.014   3.234  22.921  0.00  0.00    +0.210 HD
ENDBRANCH  14  19
BRANCH  15  21
ATOM     21  C   UNL     1       7.845   3.079  23.556  0.00  0.00    +0.206 C 
BRANCH  21  22
ATOM     22  O   UNL     1       8.102   4.028  22.516  0.00  0.00    -0.284 OA
BRANCH  22  23
ATOM     23  P   UNL     1       7.731   5.653  22.983  0.00  0.00    +0.472 P 
ATOM     24  O   UNL     1       7.400   7.107  23.399  0.00  0.00    -0.228 OA
BRANCH  23  25
ATOM     25  O   UNL     1       7.461   5.914  21.391  0.00  0.00    -0.303 OA
ATOM     26  H   UNL     1       6.985   6.757  21.288  0.00  0.00    +0.222 HD
ENDBRANCH  23  25
BRANCH  23  27
ATOM     27  O   UNL     1       9.347   5.884  22.931  0.00  0.00    -0.303 OA
ATOM     28  H   UNL     1       9.537   6.604  22.293  0.00  0.00    +0.222 HD
ENDBRANCH  23  27
ENDBRANCH  22  23
ENDBRANCH  21  22
ENDBRANCH  15  21
ENDBRANCH   1  17
BRANCH   9  29
ATOM     29  C   UNL     1       7.403  -5.135  27.068  0.00  0.00    +0.140 C 
BRANCH  29  30
ATOM     30  C   UNL     1       6.022  -5.594  27.472  0.00  0.00    -0.023 A 
ATOM     31  C   UNL     1       5.089  -6.174  26.562  0.00  0.00    -0.013 A 
ATOM     32  C   UNL     1       5.305  -6.318  25.166  0.00  0.00    +0.009 A 
ATOM     33  C   UNL     1       4.345  -6.885  24.323  0.00  0.00    +0.001 A 
ATOM     34  C   UNL     1       3.144  -7.341  24.849  0.00  0.00    +0.001 A 
ATOM     35  C   UNL     1       2.902  -7.220  26.216  0.00  0.00    +0.008 A 
ATOM     36  C   UNL     1       3.847  -6.635  27.075  0.00  0.00    -0.018 A 
ATOM     37  C   UNL     1       3.550  -6.505  28.437  0.00  0.00    +0.008 A 
ATOM     38  C   UNL     1       4.452  -5.914  29.311  0.00  0.00    +0.001 A 
ATOM     39  C   UNL     1       5.676  -5.464  28.835  0.00  0.00    +0.006 A 
ENDBRANCH  29  30
ENDBRANCH   9  29
TORSDOF 9
ENDMDL
MODEL 8
REMARK VINA RESULT:      -7.7      1.615      2.220
REMARK  Name = 
REMARK  9 active torsions:
REMARK  status: ('A' for Active; 'I' for Inactive)
REMARK    1  A    between atoms: C_2  and  O_3
REMARK    2  A    between atoms: C_5  and  N_16
REMARK    3  A    between atoms: C_8  and  C_10
REMARK    4  A    between atoms: C_10  and  O_11
REMARK    5  A    between atoms: O_11  and  P_12
REMARK    6  A    between atoms: P_12  and  O_13
REMARK    7  A    between atoms: P_12  and  O_14
REMARK    8  A    between atoms: N_23  and  C_24
REMARK    9  A    between atoms: C_24  and  C_25
REMARK                            x       y       z     vdW  Elec       q    Type
REMARK                         _______ _______ _______ _____ _____    ______ ____
ROOT
ATOM      1  N   UNL     1       3.774  -4.150  24.496  0.00  0.00    -0.288 N 
ATOM      2  C   UNL     1       4.917  -3.848  23.791  0.00  0.00    +0.171 A 
ATOM      3  N   UNL     1       5.824  -2.873  24.051  0.00  0.00    -0.196 NA
ATOM      4  C   UNL     1       6.730  -2.721  23.114  0.00  0.00    +0.198 A 
ATOM      5  N   UNL     1       6.779  -3.506  21.978  0.00  0.00    -0.293 N 
ATOM      6  H   UNL     1       7.561  -3.421  21.352  0.00  0.00    +0.172 HD
ATOM      7  C   UNL     1       5.942  -4.578  21.721  0.00  0.00    +0.280 A 
ATOM      8  O   UNL     1       6.091  -5.301  20.741  0.00  0.00    -0.265 OA
ATOM      9  N   UNL     1       7.693  -1.774  23.275  0.00  0.00    -0.311 N 
ATOM     10  H   UNL     1       7.794  -1.390  24.210  0.00  0.00    +0.149 HD
ATOM     11  C   UNL     1       4.912  -4.721  22.724  0.00  0.00    +0.172 A 
ATOM     12  N   UNL     1       3.872  -5.608  22.795  0.00  0.00    -0.229 NA
ATOM     13  C   UNL     1       3.207  -5.240  23.868  0.00  0.00    +0.203 A 
ENDROOT
BRANCH   1  17
ATOM     14  C   UNL     1       2.965  -4.894  27.361  0.00  0.00    +0.150 C 
ATOM     15  C   UNL     1       4.083  -3.894  27.660  0.00  0.00    +0.175 C 
ATOM     16  O   UNL     1       4.137  -2.996  26.534  0.00  0.00    -0.348 OA
ATOM     17  C   UNL     1       3.146  -3.390  25.567  0.00  0.00    +0.225 C 
ATOM     18  C   UNL     1       2.098  -4.131  26.387  0.00  0.00    +0.088 C 
BRANCH  14  19
ATOM     19  O   UNL     1       2.254  -5.303  28.514  0.00  0.00    -0.389 OA
ATOM     20  H   UNL     1       1.362  -4.912  28.496  0.00  0.00    +0.210 HD
ENDBRANCH  14  19
BRANCH  15  21
ATOM     21  C   UNL     1       5.429  -4.593  27.854  0.00  0.00    +0.206 C 
BRANCH  21  22
ATOM     22  O   UNL     1       5.711  -5.457  26.749  0.00  0.00    -0.284 OA
BRANCH  22  23
ATOM     23  P   UNL     1       7.359  -5.367  26.229  0.00  0.00    +0.472 P 
ATOM     24  O   UNL     1       8.834  -5.286  25.764  0.00  0.00    -0.228 OA
BRANCH  23  25
ATOM     25  O   UNL     1       7.728  -5.930  27.719  0.00  0.00    -0.303 OA
ATOM     26  H   UNL     1       7.444  -5.276  28.381  0.00  0.00    +0.222 HD
ENDBRANCH  23  25
BRANCH  23  27
ATOM     27  O   UNL     1       7.256  -3.793  26.652  0.00  0.00    -0.303 OA
ATOM     28  H   UNL     1       7.209  -3.253  25.834  0.00  0.00    +0.222 HD
ENDBRANCH  23  27
ENDBRANCH  22  23
ENDBRANCH  21  22
ENDBRANCH  15  21
ENDBRANCH   1  17
BRANCH   9  29
ATOM     29  C   UNL     1       8.391  -1.037  22.252  0.00  0.00    +0.140 C 
BRANCH  29  30
ATOM     30  C   UNL     1       9.060   0.189  22.826  0.00  0.00    -0.023 A 
ATOM     31  C   UNL     1       8.500   1.499  22.750  0.00  0.00    -0.013 A 
ATOM     32  C   UNL     1       7.300   1.826  22.066  0.00  0.00    +0.009 A 
ATOM     33  C   UNL     1       6.808   3.133  22.017  0.00  0.00    +0.001 A 
ATOM     34  C   UNL     1       7.490   4.154  22.664  0.00  0.00    +0.001 A 
ATOM     35  C   UNL     1       8.668   3.867  23.350  0.00  0.00    +0.008 A 
ATOM     36  C   UNL     1       9.188   2.563  23.393  0.00  0.00    -0.018 A 
ATOM     37  C   UNL     1      10.391   2.324  24.068  0.00  0.00    +0.008 A 
ATOM     38  C   UNL     1      10.944   1.051  24.113  0.00  0.00    +0.001 A 
ATOM     39  C   UNL     1      10.286  -0.006  23.501  0.00  0.00    +0.006 A 
ENDBRANCH  29  30
ENDBRANCH   9  29
TORSDOF 9
ENDMDL
MODEL 9
REMARK VINA RESULT:      -7.6      2.312      4.322
REMARK  Name = 
REMARK  9 active torsions:
REMARK  status: ('A' for Active; 'I' for Inactive)
REMARK    1  A    between atoms: C_2  and  O_3
REMARK    2  A    between atoms: C_5  and  N_16
REMARK    3  A    between atoms: C_8  and  C_10
REMARK    4  A    between atoms: C_10  and  O_11
REMARK    5  A    between atoms: O_11  and  P_12
REMARK    6  A    between atoms: P_12  and  O_13
REMARK    7  A    between atoms: P_12  and  O_14
REMARK    8  A    between atoms: N_23  and  C_24
REMARK    9  A    between atoms: C_24  and  C_25
REMARK                            x       y       z     vdW  Elec       q    Type
REMARK                         _______ _______ _______ _____ _____    ______ ____
ROOT
ATOM      1  N   UNL     1       7.398  -2.149  23.115  0.00  0.00    -0.288 N 
ATOM      2  C   UNL     1       7.758  -1.130  23.969  0.00  0.00    +0.171 A 
ATOM      3  N   UNL     1       6.950  -0.387  24.766  0.00  0.00    -0.196 NA
ATOM      4  C   UNL     1       7.556   0.619  25.352  0.00  0.00    +0.198 A 
ATOM      5  N   UNL     1       8.905   0.880  25.200  0.00  0.00    -0.293 N 
ATOM      6  H   UNL     1       9.337   1.592  25.762  0.00  0.00    +0.172 HD
ATOM      7  C   UNL     1       9.786   0.090  24.483  0.00  0.00    +0.280 A 
ATOM      8  O   UNL     1      10.992   0.315  24.459  0.00  0.00    -0.265 OA
ATOM      9  N   UNL     1       6.842   1.428  26.181  0.00  0.00    -0.311 N 
ATOM     10  H   UNL     1       5.936   1.078  26.478  0.00  0.00    +0.149 HD
ATOM     11  C   UNL     1       9.118  -0.992  23.795  0.00  0.00    +0.172 A 
ATOM     12  N   UNL     1       9.625  -1.940  22.948  0.00  0.00    -0.229 NA
ATOM     13  C   UNL     1       8.569  -2.618  22.557  0.00  0.00    +0.203 A 
ENDROOT
BRANCH   1  17
ATOM     14  C   UNL     1       6.207  -4.865  22.332  0.00  0.00    +0.150 C 
ATOM     15  C   UNL     1       5.446  -4.616  23.635  0.00  0.00    +0.175 C 
ATOM     16  O   UNL     1       5.380  -3.187  23.800  0.00  0.00    -0.348 OA
ATOM     17  C   UNL     1       6.061  -2.551  22.702  0.00  0.00    +0.225 C 
ATOM     18  C   UNL     1       5.990  -3.575  21.577  0.00  0.00    +0.088 C 
BRANCH  14  19
ATOM     19  O   UNL     1       5.743  -5.996  21.618  0.00  0.00    -0.389 OA
ATOM     20  H   UNL     1       4.787  -5.902  21.456  0.00  0.00    +0.210 HD
ENDBRANCH  14  19
BRANCH  15  21
ATOM     21  C   UNL     1       6.147  -5.263  24.831  0.00  0.00    +0.206 C 
BRANCH  21  22
ATOM     22  O   UNL     1       7.536  -5.463  24.552  0.00  0.00    -0.284 OA
BRANCH  22  23
ATOM     23  P   UNL     1       8.566  -4.872  25.809  0.00  0.00    +0.472 P 
ATOM     24  O   UNL     1       9.489  -4.343  26.935  0.00  0.00    -0.228 OA
BRANCH  23  25
ATOM     25  O   UNL     1       9.693  -5.881  25.187  0.00  0.00    -0.303 OA
ATOM     26  H   UNL     1       9.248  -6.677  24.848  0.00  0.00    +0.222 HD
ENDBRANCH  23  25
BRANCH  23  27
ATOM     27  O   UNL     1       7.824  -5.986  26.745  0.00  0.00    -0.303 OA
ATOM     28  H   UNL     1       7.134  -5.535  27.276  0.00  0.00    +0.222 HD
ENDBRANCH  23  27
ENDBRANCH  22  23
ENDBRANCH  21  22
ENDBRANCH  15  21
ENDBRANCH   1  17
BRANCH   9  29
ATOM     29  C   UNL     1       7.062   2.823  26.464  0.00  0.00    +0.140 C 
BRANCH  29  30
ATOM     30  C   UNL     1       6.678   3.684  25.283  0.00  0.00    -0.023 A 
ATOM     31  C   UNL     1       7.572   4.603  24.657  0.00  0.00    -0.013 A 
ATOM     32  C   UNL     1       8.890   4.881  25.106  0.00  0.00    +0.009 A 
ATOM     33  C   UNL     1       9.714   5.804  24.456  0.00  0.00    +0.001 A 
ATOM     34  C   UNL     1       9.255   6.467  23.326  0.00  0.00    +0.001 A 
ATOM     35  C   UNL     1       7.968   6.213  22.855  0.00  0.00    +0.008 A 
ATOM     36  C   UNL     1       7.118   5.304  23.508  0.00  0.00    -0.018 A 
ATOM     37  C   UNL     1       5.822   5.102  23.019  0.00  0.00    +0.008 A 
ATOM     38  C   UNL     1       4.950   4.227  23.651  0.00  0.00    +0.001 A 
ATOM     39  C   UNL     1       5.372   3.523  24.770  0.00  0.00    +0.006 A 
ENDBRANCH  29  30
ENDBRANCH   9  29
TORSDOF 9
ENDMDL
