MODEL 1
REMARK VINA RESULT:      -3.2      0.000      0.000
REMARK  Name = 
REMARK  7 active torsions:
REMARK  status: ('A' for Active; 'I' for Inactive)
REMARK    1  A    between atoms: O_1  and  C_2
REMARK    2  A    between atoms: C_2  and  C_3
REMARK    3  A    between atoms: C_3  and  S_4
REMARK    4  A    between atoms: S_4  and  S_5
REMARK    5  A    between atoms: S_5  and  C_6
REMARK    6  A    between atoms: C_6  and  C_7
REMARK    7  A    between atoms: C_7  and  O_8
REMARK                            x       y       z     vdW  Elec       q    Type
REMARK                         _______ _______ _______ _____ _____    ______ ____
ROOT
ATOM      1  S   UNL     1       9.199  -0.586  24.685  0.00  0.00    -0.091 S 
ENDROOT
BRANCH   1   2
ATOM      2  C   UNL     1       9.517  -1.898  23.467  0.00  0.00    +0.108 C 
BRANCH   2   3
ATOM      3  C   UNL     1      10.464  -1.406  22.382  0.00  0.00    +0.167 C 
BRANCH   3   4
ATOM      4  O   UNL     1       9.693  -0.985  21.262  0.00  0.00    -0.394 OA
ATOM      5  H   UNL     1       9.750  -0.014  21.226  0.00  0.00    +0.209 HD
ENDBRANCH   3   4
ENDBRANCH   2   3
ENDBRANCH   1   2
BRANCH   1   6
ATOM      6  S   UNL     1      10.776   0.690  24.348  0.00  0.00    -0.091 S 
BRANCH   6   7
ATOM      7  C   UNL     1       9.968   2.284  23.933  0.00  0.00    +0.108 C 
BRANCH   7   8
ATOM      8  C   UNL     1       9.161   2.261  22.639  0.00  0.00    +0.167 C 
BRANCH   8   9
ATOM      9  O   UNL     1       9.996   2.039  21.511  0.00  0.00    -0.394 OA
ATOM     10  H   UNL     1       9.405   1.856  20.757  0.00  0.00    +0.209 HD
ENDBRANCH   8   9
ENDBRANCH   7   8
ENDBRANCH   6   7
ENDBRANCH   1   6
TORSDOF 7
ENDMDL
MODEL 2
REMARK VINA RESULT:      -3.2      2.939      3.462
REMARK  Name = 
REMARK  7 active torsions:
REMARK  status: ('A' for Active; 'I' for Inactive)
REMARK    1  A    between atoms: O_1  and  C_2
REMARK    2  A    between atoms: C_2  and  C_3
REMARK    3  A    between atoms: C_3  and  S_4
REMARK    4  A    between atoms: S_4  and  S_5
REMARK    5  A    between atoms: S_5  and  C_6
REMARK    6  A    between atoms: C_6  and  C_7
REMARK    7  A    between atoms: C_7  and  O_8
REMARK                            x       y       z     vdW  Elec       q    Type
REMARK                         _______ _______ _______ _____ _____    ______ ____
ROOT
ATOM      1  S   UNL     1       9.610  -2.607  23.984  0.00  0.00    -0.091 S 
ENDROOT
BRANCH   1   2
ATOM      2  C   UNL     1       8.534  -4.040  24.288  0.00  0.00    +0.108 C 
BRANCH   2   3
ATOM      3  C   UNL     1       9.137  -4.951  25.348  0.00  0.00    +0.167 C 
BRANCH   3   4
ATOM      4  O   UNL     1      10.485  -5.235  24.991  0.00  0.00    -0.394 OA
ATOM      5  H   UNL     1      11.048  -4.617  25.489  0.00  0.00    +0.209 HD
ENDBRANCH   3   4
ENDBRANCH   2   3
ENDBRANCH   1   2
BRANCH   1   6
ATOM      6  S   UNL     1       8.778  -1.813  22.277  0.00  0.00    -0.091 S 
BRANCH   6   7
ATOM      7  C   UNL     1       9.852  -0.375  21.896  0.00  0.00    +0.108 C 
BRANCH   7   8
ATOM      8  C   UNL     1       9.097   0.868  21.436  0.00  0.00    +0.167 C 
BRANCH   8   9
ATOM      9  O   UNL     1       9.916   2.027  21.509  0.00  0.00    -0.394 OA
ATOM     10  H   UNL     1      10.830   1.735  21.330  0.00  0.00    +0.209 HD
ENDBRANCH   8   9
ENDBRANCH   7   8
ENDBRANCH   6   7
ENDBRANCH   1   6
TORSDOF 7
ENDMDL
MODEL 3
REMARK VINA RESULT:      -3.1      2.778      4.975
REMARK  Name = 
REMARK  7 active torsions:
REMARK  status: ('A' for Active; 'I' for Inactive)
REMARK    1  A    between atoms: O_1  and  C_2
REMARK    2  A    between atoms: C_2  and  C_3
REMARK    3  A    between atoms: C_3  and  S_4
REMARK    4  A    between atoms: S_4  and  S_5
REMARK    5  A    between atoms: S_5  and  C_6
REMARK    6  A    between atoms: C_6  and  C_7
REMARK    7  A    between atoms: C_7  and  O_8
REMARK                            x       y       z     vdW  Elec       q    Type
REMARK                         _______ _______ _______ _____ _____    ______ ____
ROOT
ATOM      1  S   UNL     1       9.976  -1.630  22.942  0.00  0.00    -0.091 S 
ENDROOT
BRANCH   1   2
ATOM      2  C   UNL     1       9.772  -0.236  21.794  0.00  0.00    +0.108 C 
BRANCH   2   3
ATOM      3  C   UNL     1       9.963   1.090  22.518  0.00  0.00    +0.167 C 
BRANCH   3   4
ATOM      4  O   UNL     1      10.128   2.119  21.548  0.00  0.00    -0.394 OA
ATOM      5  H   UNL     1       9.253   2.281  21.153  0.00  0.00    +0.209 HD
ENDBRANCH   3   4
ENDBRANCH   2   3
ENDBRANCH   1   2
BRANCH   1   6
ATOM      6  S   UNL     1       8.155  -2.574  22.780  0.00  0.00    -0.091 S 
BRANCH   6   7
ATOM      7  C   UNL     1       8.342  -4.067  23.831  0.00  0.00    +0.108 C 
BRANCH   7   8
ATOM      8  C   UNL     1       9.473  -3.981  24.849  0.00  0.00    +0.167 C 
BRANCH   8   9
ATOM      9  O   UNL     1      10.183  -5.209  24.939  0.00  0.00    -0.394 OA
ATOM     10  H   UNL     1       9.911  -5.628  25.777  0.00  0.00    +0.209 HD
ENDBRANCH   8   9
ENDBRANCH   7   8
ENDBRANCH   6   7
ENDBRANCH   1   6
TORSDOF 7
ENDMDL
MODEL 4
REMARK VINA RESULT:      -3.1      0.974      3.268
REMARK  Name = 
REMARK  7 active torsions:
REMARK  status: ('A' for Active; 'I' for Inactive)
REMARK    1  A    between atoms: O_1  and  C_2
REMARK    2  A    between atoms: C_2  and  C_3
REMARK    3  A    between atoms: C_3  and  S_4
REMARK    4  A    between atoms: S_4  and  S_5
REMARK    5  A    between atoms: S_5  and  C_6
REMARK    6  A    between atoms: C_6  and  C_7
REMARK    7  A    between atoms: C_7  and  O_8
REMARK                            x       y       z     vdW  Elec       q    Type
REMARK                         _______ _______ _______ _____ _____    ______ ____
ROOT
ATOM      1  S   UNL     1       8.508   1.360  24.875  0.00  0.00    -0.091 S 
ENDROOT
BRANCH   1   2
ATOM      2  C   UNL     1       8.727   2.436  23.426  0.00  0.00    +0.108 C 
BRANCH   2   3
ATOM      3  C   UNL     1      10.158   2.361  22.911  0.00  0.00    +0.167 C 
BRANCH   3   4
ATOM      4  O   UNL     1      10.126   2.095  21.513  0.00  0.00    -0.394 OA
ATOM      5  H   UNL     1      10.056   2.955  21.061  0.00  0.00    +0.209 HD
ENDBRANCH   3   4
ENDBRANCH   2   3
ENDBRANCH   1   2
BRANCH   1   6
ATOM      6  S   UNL     1      10.172   0.157  24.759  0.00  0.00    -0.091 S 
BRANCH   6   7
ATOM      7  C   UNL     1       9.609  -1.272  23.756  0.00  0.00    +0.108 C 
BRANCH   7   8
ATOM      8  C   UNL     1      10.387  -1.476  22.460  0.00  0.00    +0.167 C 
BRANCH   8   9
ATOM      9  O   UNL     1       9.748  -0.832  21.366  0.00  0.00    -0.394 OA
ATOM     10  H   UNL     1      10.188   0.032  21.255  0.00  0.00    +0.209 HD
ENDBRANCH   8   9
ENDBRANCH   7   8
ENDBRANCH   6   7
ENDBRANCH   1   6
TORSDOF 7
ENDMDL
MODEL 5
REMARK VINA RESULT:      -2.9      3.043      3.966
REMARK  Name = 
REMARK  7 active torsions:
REMARK  status: ('A' for Active; 'I' for Inactive)
REMARK    1  A    between atoms: O_1  and  C_2
REMARK    2  A    between atoms: C_2  and  C_3
REMARK    3  A    between atoms: C_3  and  S_4
REMARK    4  A    between atoms: S_4  and  S_5
REMARK    5  A    between atoms: S_5  and  C_6
REMARK    6  A    between atoms: C_6  and  C_7
REMARK    7  A    between atoms: C_7  and  O_8
REMARK                            x       y       z     vdW  Elec       q    Type
REMARK                         _______ _______ _______ _____ _____    ______ ____
ROOT
ATOM      1  S   UNL     1       7.897  -3.317  23.201  0.00  0.00    -0.091 S 
ENDROOT
BRANCH   1   2
ATOM      2  C   UNL     1       8.316  -4.826  24.124  0.00  0.00    +0.108 C 
BRANCH   2   3
ATOM      3  C   UNL     1       9.393  -4.542  25.161  0.00  0.00    +0.167 C 
BRANCH   3   4
ATOM      4  O   UNL     1      10.213  -5.697  25.294  0.00  0.00    -0.394 OA
ATOM      5  H   UNL     1       9.788  -6.275  25.952  0.00  0.00    +0.209 HD
ENDBRANCH   3   4
ENDBRANCH   2   3
ENDBRANCH   1   2
BRANCH   1   6
ATOM      6  S   UNL     1       8.356  -1.849  24.568  0.00  0.00    -0.091 S 
BRANCH   6   7
ATOM      7  C   UNL     1       9.591  -0.810  23.696  0.00  0.00    +0.108 C 
BRANCH   7   8
ATOM      8  C   UNL     1      10.301  -1.512  22.543  0.00  0.00    +0.167 C 
BRANCH   8   9
ATOM      9  O   UNL     1       9.948  -0.939  21.292  0.00  0.00    -0.394 OA
ATOM     10  H   UNL     1       9.649  -1.673  20.723  0.00  0.00    +0.209 HD
ENDBRANCH   8   9
ENDBRANCH   7   8
ENDBRANCH   6   7
ENDBRANCH   1   6
TORSDOF 7
ENDMDL
MODEL 6
REMARK VINA RESULT:      -2.8      3.551      5.559
REMARK  Name = 
REMARK  7 active torsions:
REMARK  status: ('A' for Active; 'I' for Inactive)
REMARK    1  A    between atoms: O_1  and  C_2
REMARK    2  A    between atoms: C_2  and  C_3
REMARK    3  A    between atoms: C_3  and  S_4
REMARK    4  A    between atoms: S_4  and  S_5
REMARK    5  A    between atoms: S_5  and  C_6
REMARK    6  A    between atoms: C_6  and  C_7
REMARK    7  A    between atoms: C_7  and  O_8
REMARK                            x       y       z     vdW  Elec       q    Type
REMARK                         _______ _______ _______ _____ _____    ______ ____
ROOT
ATOM      1  S   UNL     1       7.749  -2.502  24.419  0.00  0.00    -0.091 S 
ENDROOT
BRANCH   1   2
ATOM      2  C   UNL     1       9.319  -2.215  23.548  0.00  0.00    +0.108 C 
BRANCH   2   3
ATOM      3  C   UNL     1       9.078  -1.506  22.223  0.00  0.00    +0.167 C 
BRANCH   3   4
ATOM      4  O   UNL     1      10.270  -1.574  21.447  0.00  0.00    -0.394 OA
ATOM      5  H   UNL     1      10.000  -1.654  20.516  0.00  0.00    +0.209 HD
ENDBRANCH   3   4
ENDBRANCH   2   3
ENDBRANCH   1   2
BRANCH   1   6
ATOM      6  S   UNL     1       7.497  -4.528  24.170  0.00  0.00    -0.091 S 
BRANCH   6   7
ATOM      7  C   UNL     1       8.023  -5.235  25.779  0.00  0.00    +0.108 C 
BRANCH   7   8
ATOM      8  C   UNL     1       9.449  -4.881  26.186  0.00  0.00    +0.167 C 
BRANCH   8   9
ATOM      9  O   UNL     1      10.401  -5.573  25.390  0.00  0.00    -0.394 OA
ATOM     10  H   UNL     1      10.365  -6.509  25.663  0.00  0.00    +0.209 HD
ENDBRANCH   8   9
ENDBRANCH   7   8
ENDBRANCH   6   7
ENDBRANCH   1   6
TORSDOF 7
ENDMDL
MODEL 7
REMARK VINA RESULT:      -2.8      1.622      1.852
REMARK  Name = 
REMARK  7 active torsions:
REMARK  status: ('A' for Active; 'I' for Inactive)
REMARK    1  A    between atoms: O_1  and  C_2
REMARK    2  A    between atoms: C_2  and  C_3
REMARK    3  A    between atoms: C_3  and  S_4
REMARK    4  A    between atoms: S_4  and  S_5
REMARK    5  A    between atoms: S_5  and  C_6
REMARK    6  A    between atoms: C_6  and  C_7
REMARK    7  A    between atoms: C_7  and  O_8
REMARK                            x       y       z     vdW  Elec       q    Type
REMARK                         _______ _______ _______ _____ _____    ______ ____
ROOT
ATOM      1  S   UNL     1      10.229   0.088  24.838  0.00  0.00    -0.091 S 
ENDROOT
BRANCH   1   2
ATOM      2  C   UNL     1      10.250  -0.784  23.243  0.00  0.00    +0.108 C 
BRANCH   2   3
ATOM      3  C   UNL     1       9.427  -2.062  23.317  0.00  0.00    +0.167 C 
BRANCH   3   4
ATOM      4  O   UNL     1      10.221  -3.081  23.914  0.00  0.00    -0.394 OA
ATOM      5  H   UNL     1      10.993  -2.643  24.314  0.00  0.00    +0.209 HD
ENDBRANCH   3   4
ENDBRANCH   2   3
ENDBRANCH   1   2
BRANCH   1   6
ATOM      6  S   UNL     1       9.439   1.912  24.308  0.00  0.00    -0.091 S 
BRANCH   6   7
ATOM      7  C   UNL     1       8.079   1.480  23.155  0.00  0.00    +0.108 C 
BRANCH   7   8
ATOM      8  C   UNL     1       8.228   2.073  21.758  0.00  0.00    +0.167 C 
BRANCH   8   9
ATOM      9  O   UNL     1       9.588   2.094  21.347  0.00  0.00    -0.394 OA
ATOM     10  H   UNL     1       9.787   1.206  20.994  0.00  0.00    +0.209 HD
ENDBRANCH   8   9
ENDBRANCH   7   8
ENDBRANCH   6   7
ENDBRANCH   1   6
TORSDOF 7
ENDMDL
MODEL 8
REMARK VINA RESULT:      -2.8      6.390      6.880
REMARK  Name = 
REMARK  7 active torsions:
REMARK  status: ('A' for Active; 'I' for Inactive)
REMARK    1  A    between atoms: O_1  and  C_2
REMARK    2  A    between atoms: C_2  and  C_3
REMARK    3  A    between atoms: C_3  and  S_4
REMARK    4  A    between atoms: S_4  and  S_5
REMARK    5  A    between atoms: S_5  and  C_6
REMARK    6  A    between atoms: C_6  and  C_7
REMARK    7  A    between atoms: C_7  and  O_8
REMARK                            x       y       z     vdW  Elec       q    Type
REMARK                         _______ _______ _______ _____ _____    ______ ____
ROOT
ATOM      1  S   UNL     1       6.640  -5.243  25.448  0.00  0.00    -0.091 S 
ENDROOT
BRANCH   1   2
ATOM      2  C   UNL     1       8.065  -5.053  26.560  0.00  0.00    +0.108 C 
BRANCH   2   3
ATOM      3  C   UNL     1       9.344  -4.828  25.765  0.00  0.00    +0.167 C 
BRANCH   3   4
ATOM      4  O   UNL     1       9.948  -6.091  25.507  0.00  0.00    -0.394 OA
ATOM      5  H   UNL     1       9.531  -6.734  26.107  0.00  0.00    +0.209 HD
ENDBRANCH   3   4
ENDBRANCH   2   3
ENDBRANCH   1   2
BRANCH   1   6
ATOM      6  S   UNL     1       7.323  -4.330  23.735  0.00  0.00    -0.091 S 
BRANCH   6   7
ATOM      7  C   UNL     1       7.367  -5.690  22.503  0.00  0.00    +0.108 C 
BRANCH   7   8
ATOM      8  C   UNL     1       6.259  -5.626  21.457  0.00  0.00    +0.167 C 
BRANCH   8   9
ATOM      9  O   UNL     1       5.025  -5.223  22.034  0.00  0.00    -0.394 OA
ATOM     10  H   UNL     1       5.243  -4.752  22.860  0.00  0.00    +0.209 HD
ENDBRANCH   8   9
ENDBRANCH   7   8
ENDBRANCH   6   7
ENDBRANCH   1   6
TORSDOF 7
ENDMDL
MODEL 9
REMARK VINA RESULT:      -2.8      2.777      4.629
REMARK  Name = 
REMARK  7 active torsions:
REMARK  status: ('A' for Active; 'I' for Inactive)
REMARK    1  A    between atoms: O_1  and  C_2
REMARK    2  A    between atoms: C_2  and  C_3
REMARK    3  A    between atoms: C_3  and  S_4
REMARK    4  A    between atoms: S_4  and  S_5
REMARK    5  A    between atoms: S_5  and  C_6
REMARK    6  A    between atoms: C_6  and  C_7
REMARK    7  A    between atoms: C_7  and  O_8
REMARK                            x       y       z     vdW  Elec       q    Type
REMARK                         _______ _______ _______ _____ _____    ______ ____
ROOT
ATOM      1  S   UNL     1      10.308  -1.483  22.654  0.00  0.00    -0.091 S 
ENDROOT
BRANCH   1   2
ATOM      2  C   UNL     1       9.329  -0.153  21.894  0.00  0.00    +0.108 C 
BRANCH   2   3
ATOM      3  C   UNL     1       9.979   1.201  22.139  0.00  0.00    +0.167 C 
BRANCH   3   4
ATOM      4  O   UNL     1       9.336   2.170  21.317  0.00  0.00    -0.394 OA
ATOM      5  H   UNL     1       8.758   1.684  20.703  0.00  0.00    +0.209 HD
ENDBRANCH   3   4
ENDBRANCH   2   3
ENDBRANCH   1   2
BRANCH   1   6
ATOM      6  S   UNL     1       8.843  -2.629  23.535  0.00  0.00    -0.091 S 
BRANCH   6   7
ATOM      7  C   UNL     1       7.424  -2.487  22.381  0.00  0.00    +0.108 C 
BRANCH   7   8
ATOM      8  C   UNL     1       6.700  -3.801  22.111  0.00  0.00    +0.167 C 
BRANCH   8   9
ATOM      9  O   UNL     1       5.431  -3.579  21.509  0.00  0.00    -0.394 OA
ATOM     10  H   UNL     1       4.777  -4.058  22.052  0.00  0.00    +0.209 HD
ENDBRANCH   8   9
ENDBRANCH   7   8
ENDBRANCH   6   7
ENDBRANCH   1   6
TORSDOF 7
ENDMDL
