MODEL 1
REMARK VINA RESULT:      -5.3      0.000      0.000
REMARK  Name = 
REMARK  35 active torsions:
REMARK  status: ('A' for Active; 'I' for Inactive)
REMARK    1  A    between atoms: C_1  and  C_2
REMARK    2  A    between atoms: C_2  and  C_3
REMARK    3  A    between atoms: C_2  and  C_4
REMARK    4  A    between atoms: C_4  and  C_5
REMARK    5  A    between atoms: C_5  and  N_6
REMARK    6  A    between atoms: C_5  and  C_61
REMARK    7  A    between atoms: C_7  and  C_9
REMARK    8  A    between atoms: C_9  and  N_10
REMARK    9  A    between atoms: C_11  and  C_13
REMARK   10  A    between atoms: C_13  and  C_14
REMARK   11  A    between atoms: C_13  and  N_22
REMARK   12  A    between atoms: C_14  and  C_15
REMARK   13  A    between atoms: C_18  and  O_19
REMARK   14  A    between atoms: C_23  and  CA_25
REMARK   15  A    between atoms: CA_25  and  C_26
REMARK   16  A    between atoms: CA_25  and  N_28
REMARK   17  A    between atoms: C_26  and  O_27
REMARK   18  A    between atoms: C_29  and  CA_31
REMARK   19  A    between atoms: CA_31  and  CB_32
REMARK   20  A    between atoms: CA_31  and  N_42
REMARK   21  A    between atoms: CB_32  and  CG_33
REMARK   22  A    between atoms: C_43  and  CA_45
REMARK   23  A    between atoms: CA_45  and  CB_46
REMARK   24  A    between atoms: CA_45  and  N_52
REMARK   25  A    between atoms: CB_46  and  CG_47
REMARK   26  A    between atoms: C_53  and  CA_55
REMARK   27  A    between atoms: N_63  and  C_64
REMARK   28  A    between atoms: C_64  and  C_65
REMARK   29  A    between atoms: C_64  and  C_72
REMARK   30  A    between atoms: C_65  and  C_66
REMARK   31  A    between atoms: C_66  and  C_67
REMARK   32  A    between atoms: C_67  and  N_68
REMARK   33  A    between atoms: C_78  and  C_79
REMARK   34  A    between atoms: N_81  and  C_82
REMARK   35  A    between atoms: C_82  and  C_83
REMARK                            x       y       z     vdW  Elec       q    Type
REMARK                         _______ _______ _______ _____ _____    ______ ____
ROOT
ATOM      1  C   UNL     1       8.143  -0.821  24.802  0.00  0.00    +0.163 C 
ENDROOT
BRANCH   1   2
ATOM      2  N   UNL     1       8.359  -2.281  24.687  0.00  0.00    -0.302 N 
ATOM      3  H   UNL     1       8.957  -2.580  23.927  0.00  0.00    +0.150 HD
ATOM      4  C   UNL     1       8.264  -3.157  25.750  0.00  0.00    +0.236 C 
ATOM      5  O   UNL     1       7.861  -2.819  26.861  0.00  0.00    -0.274 OA
BRANCH   4   6
ATOM      6  CA  UNL     1       8.451  -4.641  25.365  0.00  0.00    +0.184 C 
BRANCH   6   7
ATOM      7  N   UNL     1       7.133  -5.274  25.545  0.00  0.00    -0.301 N 
ATOM      8  H   UNL     1       6.530  -5.260  24.737  0.00  0.00    +0.150 HD
ATOM      9  C   UNL     1       6.722  -5.819  26.734  0.00  0.00    +0.234 C 
ATOM     10  O   UNL     1       7.533  -5.958  27.650  0.00  0.00    -0.274 OA
BRANCH   9  11
ATOM     11  CA  UNL     1       5.246  -6.332  26.853  0.00  0.00    +0.163 C 
BRANCH  11  12
ATOM     12  N   UNL     1       4.573  -6.165  25.542  0.00  0.00    -0.302 N 
ATOM     13  H   UNL     1       4.870  -5.376  24.990  0.00  0.00    +0.150 HD
ATOM     14  C   UNL     1       3.698  -7.097  25.009  0.00  0.00    +0.234 C 
ATOM     15  O   UNL     1       3.457  -8.156  25.583  0.00  0.00    -0.274 OA
BRANCH  14  16
ATOM     16  CA  UNL     1       3.051  -6.767  23.621  0.00  0.00    +0.165 C 
BRANCH  16  17
ATOM     17  N   UNL     1       3.749  -5.672  22.938  0.00  0.00    -0.302 N 
ATOM     18  H   UNL     1       3.223  -4.896  22.553  0.00  0.00    +0.150 HD
ATOM     19  C   UNL     1       5.113  -5.684  22.724  0.00  0.00    +0.234 C 
ATOM     20  O   UNL     1       5.836  -6.622  23.045  0.00  0.00    -0.274 OA
BRANCH  19  21
ATOM     21  CA  UNL     1       5.650  -4.503  21.895  0.00  0.00    +0.159 C 
ATOM     22  N   UNL     1       7.090  -4.389  21.896  0.00  0.00    -0.304 N 
ATOM     23  H   UNL     1       7.740  -5.128  21.661  0.00  0.00    +0.149 HD
ATOM     24  C   UNL     1       7.509  -3.073  21.899  0.00  0.00    +0.214 C 
ATOM     25  O   UNL     1       8.663  -2.696  21.823  0.00  0.00    -0.276 OA
ATOM     26  C   UNL     1       6.292  -2.195  21.973  0.00  0.00    +0.098 C 
ATOM     27  C   UNL     1       5.229  -3.162  22.482  0.00  0.00    +0.041 C 
ENDBRANCH  19  21
ENDBRANCH  16  17
BRANCH  16  28
ATOM     28  CB  UNL     1       1.538  -6.510  23.699  0.00  0.00    +0.086 C 
BRANCH  28  29
ATOM     29  CG  UNL     1       1.119  -5.449  24.658  0.00  0.00    +0.038 A 
ATOM     30  ND1 UNL     1       0.630  -5.694  25.919  0.00  0.00    -0.348 N 
ATOM     31  HD1 UNL     1       0.444  -6.596  26.338  0.00  0.00    +0.166 HD
ATOM     32  CE1 UNL     1       0.444  -4.484  26.526  0.00  0.00    +0.196 A 
ATOM     33  NE2 UNL     1       0.747  -3.489  25.726  0.00  0.00    -0.244 NA
ATOM     34  CD2 UNL     1       1.164  -4.075  24.564  0.00  0.00    +0.133 A 
ENDBRANCH  28  29
ENDBRANCH  16  28
ENDBRANCH  14  16
ENDBRANCH  11  12
BRANCH  11  35
ATOM     35  CB  UNL     1       4.355  -5.689  27.951  0.00  0.00    +0.069 C 
BRANCH  35  36
ATOM     36  CG  UNL     1       3.871  -4.292  27.688  0.00  0.00    -0.020 A 
ATOM     37  CD2 UNL     1       3.086  -3.449  28.536  0.00  0.00    +0.003 A 
ATOM     38  CE2 UNL     1       3.111  -2.170  27.977  0.00  0.00    +0.047 A 
ATOM     39  CZ2 UNL     1       2.592  -1.045  28.627  0.00  0.00    +0.026 A 
ATOM     40  CH2 UNL     1       1.980  -1.239  29.866  0.00  0.00    +0.002 A 
ATOM     41  CZ3 UNL     1       1.858  -2.516  30.411  0.00  0.00    +0.001 A 
ATOM     42  NE1 UNL     1       3.720  -2.271  26.752  0.00  0.00    -0.360 N 
ATOM     43  HE1 UNL     1       3.851  -1.500  26.110  0.00  0.00    +0.165 HD
ATOM     44  CE3 UNL     1       2.407  -3.627  29.759  0.00  0.00    +0.010 A 
ATOM     45  CD1 UNL     1       4.158  -3.551  26.553  0.00  0.00    +0.087 A 
ENDBRANCH  35  36
ENDBRANCH  11  35
ENDBRANCH   9  11
ENDBRANCH   6   7
BRANCH   6  46
ATOM     46  C   UNL     1       9.493  -5.313  26.274  0.00  0.00    +0.187 C 
BRANCH  46  47
ATOM     47  O   UNL     1      10.110  -4.380  27.162  0.00  0.00    -0.393 OA
ATOM     48  H   UNL     1      10.990  -4.731  27.396  0.00  0.00    +0.209 HD
ENDBRANCH  46  47
ENDBRANCH   6  46
ENDBRANCH   4   6
ENDBRANCH   1   2
BRANCH   1  51
ATOM     49  N   UNL     1       7.009  -0.015  26.897  0.00  0.00    -0.305 N 
ATOM     50  H   UNL     1       7.883  -0.162  27.381  0.00  0.00    +0.149 HD
ATOM     51  C   UNL     1       6.845  -0.525  25.623  0.00  0.00    +0.234 C 
ATOM     52  O   UNL     1       5.725  -0.647  25.121  0.00  0.00    -0.274 OA
BRANCH  49  53
ATOM     53  C   UNL     1       5.874   0.374  27.730  0.00  0.00    +0.200 C 
BRANCH  53  56
ATOM     54  N   UNL     1       5.897   2.721  26.940  0.00  0.00    -0.303 N 
ATOM     55  H   UNL     1       6.160   2.327  26.042  0.00  0.00    +0.149 HD
ATOM     56  C   UNL     1       5.890   1.886  28.041  0.00  0.00    +0.231 C 
ATOM     57  O   UNL     1       5.827   2.317  29.190  0.00  0.00    -0.274 OA
BRANCH  54  58
ATOM     58  C   UNL     1       6.086   4.179  27.054  0.00  0.00    +0.159 C 
BRANCH  58  59
ATOM     59  C   UNL     1       5.441   4.812  25.801  0.00  0.00    +0.234 C 
ATOM     60  N   UNL     1       5.631   6.172  25.621  0.00  0.00    -0.302 N 
ATOM     61  H   UNL     1       6.313   6.664  26.190  0.00  0.00    +0.150 HD
ATOM     62  O   UNL     1       4.746   4.140  25.036  0.00  0.00    -0.274 OA
BRANCH  60  63
ATOM     63  C   UNL     1       5.082   6.859  24.445  0.00  0.00    +0.159 C 
BRANCH  63  64
ATOM     64  C   UNL     1       3.742   6.211  24.015  0.00  0.00    +0.237 C 
ATOM     65  N   UNL     1       2.687   6.321  24.897  0.00  0.00    -0.288 N 
ATOM     66  C   UNL     1       1.293   6.076  24.501  0.00  0.00    +0.162 C 
ATOM     67  C   UNL     1       0.498   6.253  25.814  0.00  0.00    +0.033 C 
ATOM     68  C   UNL     1       1.541   6.530  26.894  0.00  0.00    +0.021 C 
ATOM     69  C   UNL     1       2.703   7.099  26.119  0.00  0.00    +0.109 C 
ATOM     70  O   UNL     1       3.638   5.568  22.969  0.00  0.00    -0.274 OA
BRANCH  66  71
ATOM     71  C   UNL     1       0.995   4.718  23.825  0.00  0.00    +0.234 C 
ATOM     72  N   UNL     1       0.997   4.788  22.450  0.00  0.00    -0.305 N 
ATOM     73  H   UNL     1       1.543   5.539  22.037  0.00  0.00    +0.149 HD
ATOM     74  O   UNL     1       0.804   3.678  24.455  0.00  0.00    -0.274 OA
BRANCH  72  75
ATOM     75  C   UNL     1       0.739   3.631  21.608  0.00  0.00    +0.199 C 
BRANCH  75  76
ATOM     76  C   UNL     1       1.543   3.596  20.305  0.00  0.00    +0.228 C 
ATOM     77  O   UNL     1       1.591   2.607  19.579  0.00  0.00    -0.274 OA
ATOM     78  N   UNL     1       2.312   4.688  20.033  0.00  0.00    -0.328 N 
ATOM     79  H   UNL     1       2.796   4.698  19.148  0.00  0.00    +0.145 HD
ATOM     80  H   UNL     1       2.055   5.584  20.440  0.00  0.00    +0.145 HD
ENDBRANCH  75  76
ENDBRANCH  72  75
ENDBRANCH  66  71
ENDBRANCH  63  64
BRANCH  63  81
ATOM     81  C   UNL     1       6.096   6.898  23.290  0.00  0.00    +0.035 C 
BRANCH  81  82
ATOM     82  C   UNL     1       7.059   5.696  23.255  0.00  0.00    +0.043 C 
BRANCH  82  83
ATOM     83  C   UNL     1       6.868   4.777  22.046  0.00  0.00    +0.243 C 
BRANCH  83  84
ATOM     84  N   UNL     1       6.363   3.489  22.514  0.00  0.00    -0.114 NA
ATOM     85  C   UNL     1       6.963   2.429  22.120  0.00  0.00    +0.376 C 
ATOM     86  N   UNL     1       6.458   1.226  22.458  0.00  0.00    -0.289 N 
ATOM     87  H   UNL     1       7.120   0.492  22.661  0.00  0.00    +0.255 HD
ATOM     88  H   UNL     1       5.740   1.311  23.174  0.00  0.00    +0.255 HD
ATOM     89  N   UNL     1       8.047   2.314  21.320  0.00  0.00    -0.289 N 
ATOM     90  H   UNL     1       8.607   1.485  21.438  0.00  0.00    +0.255 HD
ATOM     91  H   UNL     1       8.599   3.150  21.194  0.00  0.00    +0.255 HD
ENDBRANCH  83  84
ENDBRANCH  82  83
ENDBRANCH  81  82
ENDBRANCH  63  81
ENDBRANCH  60  63
ENDBRANCH  58  59
BRANCH  58  92
ATOM     92  C   UNL     1       5.375   4.749  28.295  0.00  0.00    +0.034 C 
BRANCH  92  94
ATOM     93  C   UNL     1       5.132   6.771  29.838  0.00  0.00    +0.007 C 
ATOM     94  C   UNL     1       6.088   5.914  29.008  0.00  0.00    -0.015 C 
ATOM     95  C   UNL     1       7.201   5.373  29.914  0.00  0.00    +0.007 C 
ENDBRANCH  92  94
ENDBRANCH  58  92
ENDBRANCH  54  58
ENDBRANCH  53  56
ENDBRANCH  49  53
ENDBRANCH   1  51
BRANCH   1  96
ATOM     96  C   UNL     1       9.425  -0.106  25.303  0.00  0.00    +0.067 C 
BRANCH  96  97
ATOM     97  C   UNL     1       9.716   1.248  24.689  0.00  0.00    -0.045 A 
ATOM     98  C   UNL     1       8.925   2.362  25.010  0.00  0.00    +0.007 A 
ATOM     99  C   UNL     1       9.255   3.630  24.527  0.00  0.00    +0.045 A 
ATOM    100  C   UNL     1      10.376   3.791  23.723  0.00  0.00    +0.117 A 
ATOM    101  C   UNL     1      11.130   2.693  23.334  0.00  0.00    +0.045 A 
ATOM    102  C   UNL     1      10.773   1.420  23.784  0.00  0.00    +0.007 A 
BRANCH 100 103
ATOM    103  O   UNL     1      10.693   5.051  23.309  0.00  0.00    -0.507 OA
ATOM    104  H   UNL     1       9.880   5.580  23.276  0.00  0.00    +0.292 HD
ENDBRANCH 100 103
ENDBRANCH  96  97
ENDBRANCH   1  96
TORSDOF 33
ENDMDL
MODEL 2
REMARK VINA RESULT:      -5.1      2.380      5.808
REMARK  Name = 
REMARK  35 active torsions:
REMARK  status: ('A' for Active; 'I' for Inactive)
REMARK    1  A    between atoms: C_1  and  C_2
REMARK    2  A    between atoms: C_2  and  C_3
REMARK    3  A    between atoms: C_2  and  C_4
REMARK    4  A    between atoms: C_4  and  C_5
REMARK    5  A    between atoms: C_5  and  N_6
REMARK    6  A    between atoms: C_5  and  C_61
REMARK    7  A    between atoms: C_7  and  C_9
REMARK    8  A    between atoms: C_9  and  N_10
REMARK    9  A    between atoms: C_11  and  C_13
REMARK   10  A    between atoms: C_13  and  C_14
REMARK   11  A    between atoms: C_13  and  N_22
REMARK   12  A    between atoms: C_14  and  C_15
REMARK   13  A    between atoms: C_18  and  O_19
REMARK   14  A    between atoms: C_23  and  CA_25
REMARK   15  A    between atoms: CA_25  and  C_26
REMARK   16  A    between atoms: CA_25  and  N_28
REMARK   17  A    between atoms: C_26  and  O_27
REMARK   18  A    between atoms: C_29  and  CA_31
REMARK   19  A    between atoms: CA_31  and  CB_32
REMARK   20  A    between atoms: CA_31  and  N_42
REMARK   21  A    between atoms: CB_32  and  CG_33
REMARK   22  A    between atoms: C_43  and  CA_45
REMARK   23  A    between atoms: CA_45  and  CB_46
REMARK   24  A    between atoms: CA_45  and  N_52
REMARK   25  A    between atoms: CB_46  and  CG_47
REMARK   26  A    between atoms: C_53  and  CA_55
REMARK   27  A    between atoms: N_63  and  C_64
REMARK   28  A    between atoms: C_64  and  C_65
REMARK   29  A    between atoms: C_64  and  C_72
REMARK   30  A    between atoms: C_65  and  C_66
REMARK   31  A    between atoms: C_66  and  C_67
REMARK   32  A    between atoms: C_67  and  N_68
REMARK   33  A    between atoms: C_78  and  C_79
REMARK   34  A    between atoms: N_81  and  C_82
REMARK   35  A    between atoms: C_82  and  C_83
REMARK                            x       y       z     vdW  Elec       q    Type
REMARK                         _______ _______ _______ _____ _____    ______ ____
ROOT
ATOM      1  C   UNL     1       8.103  -1.995  23.214  0.00  0.00    +0.163 C 
ENDROOT
BRANCH   1   2
ATOM      2  N   UNL     1       7.418  -2.945  24.120  0.00  0.00    -0.302 N 
ATOM      3  H   UNL     1       6.459  -2.720  24.352  0.00  0.00    +0.150 HD
ATOM      4  C   UNL     1       7.763  -4.278  24.237  0.00  0.00    +0.236 C 
ATOM      5  O   UNL     1       8.755  -4.762  23.697  0.00  0.00    -0.274 OA
BRANCH   4   6
ATOM      6  CA  UNL     1       6.957  -5.047  25.306  0.00  0.00    +0.184 C 
BRANCH   6   7
ATOM      7  N   UNL     1       5.827  -4.174  25.665  0.00  0.00    -0.301 N 
ATOM      8  H   UNL     1       5.924  -3.672  26.534  0.00  0.00    +0.150 HD
ATOM      9  C   UNL     1       4.695  -4.063  24.898  0.00  0.00    +0.234 C 
ATOM     10  O   UNL     1       4.673  -4.564  23.774  0.00  0.00    -0.274 OA
BRANCH   9  11
ATOM     11  CA  UNL     1       3.495  -3.219  25.451  0.00  0.00    +0.163 C 
BRANCH  11  12
ATOM     12  N   UNL     1       3.783  -2.838  26.855  0.00  0.00    -0.302 N 
ATOM     13  H   UNL     1       4.185  -3.558  27.435  0.00  0.00    +0.150 HD
ATOM     14  C   UNL     1       3.663  -1.544  27.335  0.00  0.00    +0.234 C 
ATOM     15  O   UNL     1       3.346  -0.612  26.600  0.00  0.00    -0.274 OA
BRANCH  14  16
ATOM     16  CA  UNL     1       3.984  -1.305  28.849  0.00  0.00    +0.165 C 
BRANCH  16  17
ATOM     17  N   UNL     1       3.636  -2.467  29.673  0.00  0.00    -0.302 N 
ATOM     18  H   UNL     1       4.338  -2.905  30.258  0.00  0.00    +0.150 HD
ATOM     19  C   UNL     1       2.387  -3.056  29.633  0.00  0.00    +0.234 C 
ATOM     20  O   UNL     1       1.492  -2.683  28.881  0.00  0.00    -0.274 OA
BRANCH  19  21
ATOM     21  CA  UNL     1       2.242  -4.331  30.484  0.00  0.00    +0.159 C 
ATOM     22  N   UNL     1       3.364  -5.234  30.387  0.00  0.00    -0.304 N 
ATOM     23  H   UNL     1       4.334  -4.988  30.536  0.00  0.00    +0.149 HD
ATOM     24  C   UNL     1       2.972  -6.558  30.426  0.00  0.00    +0.214 C 
ATOM     25  O   UNL     1       3.718  -7.519  30.440  0.00  0.00    -0.276 OA
ATOM     26  C   UNL     1       1.471  -6.600  30.485  0.00  0.00    +0.098 C 
ATOM     27  C   UNL     1       1.092  -5.204  30.001  0.00  0.00    +0.041 C 
ENDBRANCH  19  21
ENDBRANCH  16  17
BRANCH  16  28
ATOM     28  CB  UNL     1       3.365  -0.013  29.407  0.00  0.00    +0.086 C 
BRANCH  28  29
ATOM     29  CG  UNL     1       4.335   1.066  29.743  0.00  0.00    +0.038 A 
ATOM     30  ND1 UNL     1       5.702   0.919  29.708  0.00  0.00    -0.348 N 
ATOM     31  HD1 UNL     1       6.220   0.074  29.507  0.00  0.00    +0.166 HD
ATOM     32  CE1 UNL     1       6.250   2.139  29.988  0.00  0.00    +0.196 A 
ATOM     33  NE2 UNL     1       5.328   3.041  30.232  0.00  0.00    -0.244 NA
ATOM     34  CD2 UNL     1       4.137   2.387  30.087  0.00  0.00    +0.133 A 
ENDBRANCH  28  29
ENDBRANCH  16  28
ENDBRANCH  14  16
ENDBRANCH  11  12
BRANCH  11  35
ATOM     35  CB  UNL     1       2.085  -3.865  25.393  0.00  0.00    +0.069 C 
BRANCH  35  36
ATOM     36  CG  UNL     1       2.019  -5.350  25.606  0.00  0.00    -0.020 A 
ATOM     37  CD2 UNL     1       1.565  -6.360  24.700  0.00  0.00    +0.003 A 
ATOM     38  CE2 UNL     1       1.934  -7.592  25.242  0.00  0.00    +0.047 A 
ATOM     39  CZ2 UNL     1       1.807  -8.799  24.547  0.00  0.00    +0.026 A 
ATOM     40  CH2 UNL     1       1.235  -8.754  23.275  0.00  0.00    +0.002 A 
ATOM     41  CZ3 UNL     1       0.774  -7.554  22.740  0.00  0.00    +0.001 A 
ATOM     42  NE1 UNL     1       2.418  -7.355  26.505  0.00  0.00    -0.360 N 
ATOM     43  HE1 UNL     1       2.734  -8.074  27.143  0.00  0.00    +0.165 HD
ATOM     44  CE3 UNL     1       0.934  -6.351  23.439  0.00  0.00    +0.010 A 
ATOM     45  CD1 UNL     1       2.448  -6.010  26.747  0.00  0.00    +0.087 A 
ENDBRANCH  35  36
ENDBRANCH  11  35
ENDBRANCH   9  11
ENDBRANCH   6   7
BRANCH   6  46
ATOM     46  C   UNL     1       7.824  -5.331  26.543  0.00  0.00    +0.187 C 
BRANCH  46  47
ATOM     47  O   UNL     1       9.039  -4.579  26.530  0.00  0.00    -0.393 OA
ATOM     48  H   UNL     1       9.637  -4.971  27.193  0.00  0.00    +0.209 HD
ENDBRANCH  46  47
ENDBRANCH   6  46
ENDBRANCH   4   6
ENDBRANCH   1   2
BRANCH   1  51
ATOM     49  N   UNL     1       6.868   0.102  23.848  0.00  0.00    -0.305 N 
ATOM     50  H   UNL     1       6.974  -0.174  24.814  0.00  0.00    +0.149 HD
ATOM     51  C   UNL     1       7.152  -0.809  22.847  0.00  0.00    +0.234 C 
ATOM     52  O   UNL     1       6.752  -0.638  21.693  0.00  0.00    -0.274 OA
BRANCH  49  53
ATOM     53  C   UNL     1       6.058   1.293  23.608  0.00  0.00    +0.200 C 
BRANCH  53  56
ATOM     54  N   UNL     1       6.507   3.713  23.344  0.00  0.00    -0.303 N 
ATOM     55  H   UNL     1       6.095   3.603  22.422  0.00  0.00    +0.149 HD
ATOM     56  C   UNL     1       6.778   2.574  24.078  0.00  0.00    +0.231 C 
ATOM     57  O   UNL     1       7.487   2.595  25.081  0.00  0.00    -0.274 OA
BRANCH  54  58
ATOM     58  C   UNL     1       7.238   4.978  23.547  0.00  0.00    +0.159 C 
BRANCH  58  59
ATOM     59  C   UNL     1       6.199   6.116  23.433  0.00  0.00    +0.234 C 
ATOM     60  N   UNL     1       5.000   5.936  24.104  0.00  0.00    -0.302 N 
ATOM     61  H   UNL     1       4.909   5.179  24.775  0.00  0.00    +0.150 HD
ATOM     62  O   UNL     1       6.415   7.107  22.732  0.00  0.00    -0.274 OA
BRANCH  60  63
ATOM     63  C   UNL     1       3.963   6.975  24.081  0.00  0.00    +0.159 C 
BRANCH  63  64
ATOM     64  C   UNL     1       3.008   6.815  25.290  0.00  0.00    +0.237 C 
ATOM     65  N   UNL     1       3.593   6.681  26.532  0.00  0.00    -0.288 N 
ATOM     66  C   UNL     1       2.847   6.868  27.785  0.00  0.00    +0.162 C 
ATOM     67  C   UNL     1       3.887   6.558  28.886  0.00  0.00    +0.033 C 
ATOM     68  C   UNL     1       5.159   6.148  28.147  0.00  0.00    +0.021 C 
ATOM     69  C   UNL     1       5.011   6.811  26.801  0.00  0.00    +0.109 C 
ATOM     70  O   UNL     1       1.786   6.738  25.146  0.00  0.00    -0.274 OA
BRANCH  66  71
ATOM     71  C   UNL     1       1.561   6.028  27.954  0.00  0.00    +0.234 C 
ATOM     72  N   UNL     1       1.603   4.834  27.270  0.00  0.00    -0.305 N 
ATOM     73  H   UNL     1       2.526   4.456  27.078  0.00  0.00    +0.149 HD
ATOM     74  O   UNL     1       0.610   6.382  28.653  0.00  0.00    -0.274 OA
BRANCH  72  75
ATOM     75  C   UNL     1       0.501   3.885  27.286  0.00  0.00    +0.199 C 
BRANCH  75  76
ATOM     76  C   UNL     1       0.874   2.480  27.769  0.00  0.00    +0.228 C 
ATOM     77  O   UNL     1       0.683   2.101  28.921  0.00  0.00    -0.274 OA
ATOM     78  N   UNL     1       1.544   1.688  26.885  0.00  0.00    -0.328 N 
ATOM     79  H   UNL     1       1.739   0.742  27.174  0.00  0.00    +0.145 HD
ATOM     80  H   UNL     1       1.437   1.864  25.889  0.00  0.00    +0.145 HD
ENDBRANCH  75  76
ENDBRANCH  72  75
ENDBRANCH  66  71
ENDBRANCH  63  64
BRANCH  63  81
ATOM     81  C   UNL     1       3.201   6.983  22.746  0.00  0.00    +0.035 C 
BRANCH  81  82
ATOM     82  C   UNL     1       2.847   5.581  22.214  0.00  0.00    +0.043 C 
BRANCH  82  83
ATOM     83  C   UNL     1       1.723   5.572  21.176  0.00  0.00    +0.243 C 
BRANCH  83  84
ATOM     84  N   UNL     1       2.315   5.418  19.850  0.00  0.00    -0.114 NA
ATOM     85  C   UNL     1       1.708   4.675  19.002  0.00  0.00    +0.376 C 
ATOM     86  N   UNL     1       2.282   4.438  17.806  0.00  0.00    -0.289 N 
ATOM     87  H   UNL     1       1.669   4.376  17.008  0.00  0.00    +0.255 HD
ATOM     88  H   UNL     1       3.072   5.058  17.644  0.00  0.00    +0.255 HD
ATOM     89  N   UNL     1       0.546   3.998  19.146  0.00  0.00    -0.289 N 
ATOM     90  H   UNL     1       0.027   3.810  18.303  0.00  0.00    +0.255 HD
ATOM     91  H   UNL     1      -0.041   4.278  19.917  0.00  0.00    +0.255 HD
ENDBRANCH  83  84
ENDBRANCH  82  83
ENDBRANCH  81  82
ENDBRANCH  63  81
ENDBRANCH  60  63
ENDBRANCH  58  59
BRANCH  58  92
ATOM     92  C   UNL     1       7.872   5.049  24.948  0.00  0.00    +0.034 C 
BRANCH  92  94
ATOM     93  C   UNL     1       9.703   6.355  23.735  0.00  0.00    +0.007 C 
ATOM     94  C   UNL     1       9.300   5.626  25.016  0.00  0.00    -0.015 C 
ATOM     95  C   UNL     1       9.421   6.585  26.207  0.00  0.00    +0.007 C 
ENDBRANCH  92  94
ENDBRANCH  58  92
ENDBRANCH  54  58
ENDBRANCH  53  56
ENDBRANCH  49  53
ENDBRANCH   1  51
BRANCH   1  96
ATOM     96  C   UNL     1       9.490  -1.588  23.778  0.00  0.00    +0.067 C 
BRANCH  96  97
ATOM     97  C   UNL     1       9.903  -0.148  23.554  0.00  0.00    -0.045 A 
ATOM     98  C   UNL     1      10.318   0.651  24.630  0.00  0.00    +0.007 A 
ATOM     99  C   UNL     1      10.798   1.944  24.410  0.00  0.00    +0.045 A 
ATOM    100  C   UNL     1      10.868   2.443  23.116  0.00  0.00    +0.117 A 
ATOM    101  C   UNL     1      10.395   1.698  22.045  0.00  0.00    +0.045 A 
ATOM    102  C   UNL     1       9.876   0.421  22.272  0.00  0.00    +0.007 A 
BRANCH 100 103
ATOM    103  O   UNL     1      11.385   3.691  22.938  0.00  0.00    -0.507 OA
ATOM    104  H   UNL     1      11.159   4.235  23.709  0.00  0.00    +0.292 HD
ENDBRANCH 100 103
ENDBRANCH  96  97
ENDBRANCH   1  96
TORSDOF 33
ENDMDL
MODEL 3
REMARK VINA RESULT:      -5.0      2.439     10.232
REMARK  Name = 
REMARK  35 active torsions:
REMARK  status: ('A' for Active; 'I' for Inactive)
REMARK    1  A    between atoms: C_1  and  C_2
REMARK    2  A    between atoms: C_2  and  C_3
REMARK    3  A    between atoms: C_2  and  C_4
REMARK    4  A    between atoms: C_4  and  C_5
REMARK    5  A    between atoms: C_5  and  N_6
REMARK    6  A    between atoms: C_5  and  C_61
REMARK    7  A    between atoms: C_7  and  C_9
REMARK    8  A    between atoms: C_9  and  N_10
REMARK    9  A    between atoms: C_11  and  C_13
REMARK   10  A    between atoms: C_13  and  C_14
REMARK   11  A    between atoms: C_13  and  N_22
REMARK   12  A    between atoms: C_14  and  C_15
REMARK   13  A    between atoms: C_18  and  O_19
REMARK   14  A    between atoms: C_23  and  CA_25
REMARK   15  A    between atoms: CA_25  and  C_26
REMARK   16  A    between atoms: CA_25  and  N_28
REMARK   17  A    between atoms: C_26  and  O_27
REMARK   18  A    between atoms: C_29  and  CA_31
REMARK   19  A    between atoms: CA_31  and  CB_32
REMARK   20  A    between atoms: CA_31  and  N_42
REMARK   21  A    between atoms: CB_32  and  CG_33
REMARK   22  A    between atoms: C_43  and  CA_45
REMARK   23  A    between atoms: CA_45  and  CB_46
REMARK   24  A    between atoms: CA_45  and  N_52
REMARK   25  A    between atoms: CB_46  and  CG_47
REMARK   26  A    between atoms: C_53  and  CA_55
REMARK   27  A    between atoms: N_63  and  C_64
REMARK   28  A    between atoms: C_64  and  C_65
REMARK   29  A    between atoms: C_64  and  C_72
REMARK   30  A    between atoms: C_65  and  C_66
REMARK   31  A    between atoms: C_66  and  C_67
REMARK   32  A    between atoms: C_67  and  N_68
REMARK   33  A    between atoms: C_78  and  C_79
REMARK   34  A    between atoms: N_81  and  C_82
REMARK   35  A    between atoms: C_82  and  C_83
REMARK                            x       y       z     vdW  Elec       q    Type
REMARK                         _______ _______ _______ _____ _____    ______ ____
ROOT
ATOM      1  C   UNL     1       5.944   2.878  23.583  0.00  0.00    +0.163 C 
ENDROOT
BRANCH   1   2
ATOM      2  N   UNL     1       5.259   4.173  23.365  0.00  0.00    -0.302 N 
ATOM      3  H   UNL     1       5.809   5.001  23.555  0.00  0.00    +0.150 HD
ATOM      4  C   UNL     1       4.207   4.346  22.487  0.00  0.00    +0.236 C 
ATOM      5  O   UNL     1       3.658   3.411  21.907  0.00  0.00    -0.274 OA
BRANCH   4   6
ATOM      6  CA  UNL     1       3.605   5.769  22.493  0.00  0.00    +0.184 C 
BRANCH   6   7
ATOM      7  N   UNL     1       3.281   6.062  23.900  0.00  0.00    -0.301 N 
ATOM      8  H   UNL     1       3.977   5.785  24.574  0.00  0.00    +0.150 HD
ATOM      9  C   UNL     1       2.101   6.642  24.289  0.00  0.00    +0.234 C 
ATOM     10  O   UNL     1       1.343   7.107  23.437  0.00  0.00    -0.274 OA
BRANCH   9  11
ATOM     11  CA  UNL     1       1.799   6.772  25.822  0.00  0.00    +0.163 C 
BRANCH  11  12
ATOM     12  N   UNL     1       3.023   6.420  26.583  0.00  0.00    -0.302 N 
ATOM     13  H   UNL     1       3.819   6.140  26.034  0.00  0.00    +0.150 HD
ATOM     14  C   UNL     1       3.148   6.598  27.951  0.00  0.00    +0.234 C 
ATOM     15  O   UNL     1       2.251   7.107  28.619  0.00  0.00    -0.274 OA
BRANCH  14  16
ATOM     16  CA  UNL     1       4.497   6.158  28.614  0.00  0.00    +0.165 C 
BRANCH  16  17
ATOM     17  N   UNL     1       5.659   6.595  27.833  0.00  0.00    -0.302 N 
ATOM     18  H   UNL     1       6.171   7.426  28.106  0.00  0.00    +0.150 HD
ATOM     19  C   UNL     1       6.053   5.959  26.673  0.00  0.00    +0.234 C 
ATOM     20  O   UNL     1       5.442   5.013  26.184  0.00  0.00    -0.274 OA
BRANCH  19  21
ATOM     21  CA  UNL     1       7.226   6.627  25.932  0.00  0.00    +0.159 C 
ATOM     22  N   UNL     1       7.025   6.759  24.508  0.00  0.00    -0.304 N 
ATOM     23  H   UNL     1       6.223   7.184  24.063  0.00  0.00    +0.149 HD
ATOM     24  C   UNL     1       8.195   6.576  23.798  0.00  0.00    +0.214 C 
ATOM     25  O   UNL     1       8.324   6.709  22.595  0.00  0.00    -0.276 OA
ATOM     26  C   UNL     1       9.284   6.225  24.772  0.00  0.00    +0.098 C 
ATOM     27  C   UNL     1       8.489   5.778  25.994  0.00  0.00    +0.041 C 
ENDBRANCH  19  21
ENDBRANCH  16  17
BRANCH  16  28
ATOM     28  CB  UNL     1       4.561   4.654  28.927  0.00  0.00    +0.086 C 
BRANCH  28  29
ATOM     29  CG  UNL     1       5.836   4.182  29.537  0.00  0.00    +0.038 A 
ATOM     30  ND1 UNL     1       6.250   2.872  29.552  0.00  0.00    -0.348 N 
ATOM     31  HD1 UNL     1       5.742   2.067  29.209  0.00  0.00    +0.166 HD
ATOM     32  CE1 UNL     1       7.496   2.845  30.111  0.00  0.00    +0.196 A 
ATOM     33  NE2 UNL     1       7.886   4.041  30.484  0.00  0.00    -0.244 NA
ATOM     34  CD2 UNL     1       6.864   4.878  30.136  0.00  0.00    +0.133 A 
ENDBRANCH  28  29
ENDBRANCH  16  28
ENDBRANCH  14  16
ENDBRANCH  11  12
BRANCH  11  35
ATOM     35  CB  UNL     1       0.611   5.946  26.386  0.00  0.00    +0.069 C 
BRANCH  35  36
ATOM     36  CG  UNL     1       0.770   4.453  26.380  0.00  0.00    -0.020 A 
ATOM     37  CD2 UNL     1       0.852   3.563  27.497  0.00  0.00    +0.003 A 
ATOM     38  CE2 UNL     1       0.733   2.265  26.995  0.00  0.00    +0.047 A 
ATOM     39  CZ2 UNL     1       0.598   1.141  27.816  0.00  0.00    +0.026 A 
ATOM     40  CH2 UNL     1       0.636   1.341  29.196  0.00  0.00    +0.002 A 
ATOM     41  CZ3 UNL     1       0.844   2.611  29.729  0.00  0.00    +0.001 A 
ATOM     42  NE1 UNL     1       0.769   2.351  25.626  0.00  0.00    -0.360 N 
ATOM     43  HE1 UNL     1       0.730   1.558  24.999  0.00  0.00    +0.165 HD
ATOM     44  CE3 UNL     1       0.951   3.729  28.893  0.00  0.00    +0.010 A 
ATOM     45  CD1 UNL     1       0.819   3.663  25.242  0.00  0.00    +0.087 A 
ENDBRANCH  35  36
ENDBRANCH  11  35
ENDBRANCH   9  11
ENDBRANCH   6   7
BRANCH   6  46
ATOM     46  C   UNL     1       2.335   5.828  21.630  0.00  0.00    +0.187 C 
BRANCH  46  47
ATOM     47  O   UNL     1       2.625   5.668  20.240  0.00  0.00    -0.393 OA
ATOM     48  H   UNL     1       2.405   6.507  19.793  0.00  0.00    +0.209 HD
ENDBRANCH  46  47
ENDBRANCH   6  46
ENDBRANCH   4   6
ENDBRANCH   1   2
BRANCH   1  51
ATOM     49  N   UNL     1       5.899   1.166  25.424  0.00  0.00    -0.305 N 
ATOM     50  H   UNL     1       6.814   0.869  25.118  0.00  0.00    +0.149 HD
ATOM     51  C   UNL     1       5.157   2.014  24.623  0.00  0.00    +0.234 C 
ATOM     52  O   UNL     1       3.944   2.154  24.790  0.00  0.00    -0.274 OA
BRANCH  49  53
ATOM     53  C   UNL     1       5.290   0.368  26.484  0.00  0.00    +0.200 C 
BRANCH  53  56
ATOM     54  N   UNL     1       5.958  -1.850  27.359  0.00  0.00    -0.303 N 
ATOM     55  H   UNL     1       6.358  -1.330  28.134  0.00  0.00    +0.149 HD
ATOM     56  C   UNL     1       5.514  -1.143  26.258  0.00  0.00    +0.231 C 
ATOM     57  O   UNL     1       5.246  -1.691  25.191  0.00  0.00    -0.274 OA
BRANCH  54  58
ATOM     58  C   UNL     1       6.386  -3.259  27.274  0.00  0.00    +0.159 C 
BRANCH  58  59
ATOM     59  C   UNL     1       5.101  -4.117  27.275  0.00  0.00    +0.234 C 
ATOM     60  N   UNL     1       3.906  -3.451  27.498  0.00  0.00    -0.302 N 
ATOM     61  H   UNL     1       3.884  -2.436  27.472  0.00  0.00    +0.150 HD
ATOM     62  O   UNL     1       5.153  -5.341  27.139  0.00  0.00    -0.274 OA
BRANCH  60  63
ATOM     63  C   UNL     1       2.629  -4.175  27.488  0.00  0.00    +0.159 C 
BRANCH  63  64
ATOM     64  C   UNL     1       2.263  -4.609  26.047  0.00  0.00    +0.237 C 
ATOM     65  N   UNL     1       1.757  -5.883  25.891  0.00  0.00    -0.288 N 
ATOM     66  C   UNL     1       1.052  -6.313  24.676  0.00  0.00    +0.162 C 
ATOM     67  C   UNL     1       0.739  -7.804  24.937  0.00  0.00    +0.033 C 
ATOM     68  C   UNL     1       1.365  -8.126  26.291  0.00  0.00    +0.021 C 
ATOM     69  C   UNL     1       1.425  -6.784  26.976  0.00  0.00    +0.109 C 
ATOM     70  O   UNL     1       2.477  -3.882  25.076  0.00  0.00    -0.274 OA
BRANCH  66  71
ATOM     71  C   UNL     1       1.794  -6.106  23.336  0.00  0.00    +0.234 C 
ATOM     72  N   UNL     1       3.164  -6.170  23.464  0.00  0.00    -0.305 N 
ATOM     73  H   UNL     1       3.520  -6.703  24.253  0.00  0.00    +0.149 HD
ATOM     74  O   UNL     1       1.216  -5.930  22.263  0.00  0.00    -0.274 OA
BRANCH  72  75
ATOM     75  C   UNL     1       4.063  -6.002  22.333  0.00  0.00    +0.199 C 
BRANCH  75  76
ATOM     76  C   UNL     1       5.217  -5.024  22.574  0.00  0.00    +0.228 C 
ATOM     77  O   UNL     1       6.392  -5.318  22.371  0.00  0.00    -0.274 OA
ATOM     78  N   UNL     1       4.894  -3.828  23.143  0.00  0.00    -0.328 N 
ATOM     79  H   UNL     1       5.639  -3.155  23.247  0.00  0.00    +0.145 HD
ATOM     80  H   UNL     1       3.949  -3.471  23.032  0.00  0.00    +0.145 HD
ENDBRANCH  75  76
ENDBRANCH  72  75
ENDBRANCH  66  71
ENDBRANCH  63  64
BRANCH  63  81
ATOM     81  C   UNL     1       1.507  -3.350  28.141  0.00  0.00    +0.035 C 
BRANCH  81  82
ATOM     82  C   UNL     1       0.940  -3.968  29.433  0.00  0.00    +0.043 C 
BRANCH  82  83
ATOM     83  C   UNL     1       2.005  -4.539  30.372  0.00  0.00    +0.243 C 
BRANCH  83  84
ATOM     84  N   UNL     1       2.044  -5.989  30.205  0.00  0.00    -0.114 NA
ATOM     85  C   UNL     1       3.183  -6.571  30.262  0.00  0.00    +0.376 C 
ATOM     86  N   UNL     1       3.259  -7.893  30.014  0.00  0.00    -0.289 N 
ATOM     87  H   UNL     1       3.921  -8.424  30.558  0.00  0.00    +0.255 HD
ATOM     88  H   UNL     1       2.337  -8.322  29.997  0.00  0.00    +0.255 HD
ATOM     89  N   UNL     1       4.403  -6.028  30.482  0.00  0.00    -0.289 N 
ATOM     90  H   UNL     1       5.099  -6.636  30.885  0.00  0.00    +0.255 HD
ATOM     91  H   UNL     1       4.414  -5.099  30.874  0.00  0.00    +0.255 HD
ENDBRANCH  83  84
ENDBRANCH  82  83
ENDBRANCH  81  82
ENDBRANCH  63  81
ENDBRANCH  60  63
ENDBRANCH  58  59
BRANCH  58  92
ATOM     92  C   UNL     1       7.147  -3.543  25.966  0.00  0.00    +0.034 C 
BRANCH  92  94
ATOM     93  C   UNL     1       9.422  -4.023  24.905  0.00  0.00    +0.007 C 
ATOM     94  C   UNL     1       8.662  -3.259  25.989  0.00  0.00    -0.015 C 
ATOM     95  C   UNL     1       8.916  -1.755  25.825  0.00  0.00    +0.007 C 
ENDBRANCH  92  94
ENDBRANCH  58  92
ENDBRANCH  54  58
ENDBRANCH  53  56
ENDBRANCH  49  53
ENDBRANCH   1  51
BRANCH   1  96
ATOM     96  C   UNL     1       6.255   2.178  22.234  0.00  0.00    +0.067 C 
BRANCH  96  97
ATOM     97  C   UNL     1       7.421   1.212  22.238  0.00  0.00    -0.045 A 
ATOM     98  C   UNL     1       7.215  -0.154  22.486  0.00  0.00    +0.007 A 
ATOM     99  C   UNL     1       8.273  -1.061  22.387  0.00  0.00    +0.045 A 
ATOM    100  C   UNL     1       9.539  -0.608  22.040  0.00  0.00    +0.117 A 
ATOM    101  C   UNL     1       9.781   0.748  21.862  0.00  0.00    +0.045 A 
ATOM    102  C   UNL     1       8.730   1.657  22.003  0.00  0.00    +0.007 A 
BRANCH 100 103
ATOM    103  O   UNL     1      10.536  -1.528  21.908  0.00  0.00    -0.507 OA
ATOM    104  H   UNL     1      10.384  -2.035  21.094  0.00  0.00    +0.292 HD
ENDBRANCH 100 103
ENDBRANCH  96  97
ENDBRANCH   1  96
TORSDOF 33
ENDMDL
MODEL 4
REMARK VINA RESULT:      -4.6      1.487      2.012
REMARK  Name = 
REMARK  35 active torsions:
REMARK  status: ('A' for Active; 'I' for Inactive)
REMARK    1  A    between atoms: C_1  and  C_2
REMARK    2  A    between atoms: C_2  and  C_3
REMARK    3  A    between atoms: C_2  and  C_4
REMARK    4  A    between atoms: C_4  and  C_5
REMARK    5  A    between atoms: C_5  and  N_6
REMARK    6  A    between atoms: C_5  and  C_61
REMARK    7  A    between atoms: C_7  and  C_9
REMARK    8  A    between atoms: C_9  and  N_10
REMARK    9  A    between atoms: C_11  and  C_13
REMARK   10  A    between atoms: C_13  and  C_14
REMARK   11  A    between atoms: C_13  and  N_22
REMARK   12  A    between atoms: C_14  and  C_15
REMARK   13  A    between atoms: C_18  and  O_19
REMARK   14  A    between atoms: C_23  and  CA_25
REMARK   15  A    between atoms: CA_25  and  C_26
REMARK   16  A    between atoms: CA_25  and  N_28
REMARK   17  A    between atoms: C_26  and  O_27
REMARK   18  A    between atoms: C_29  and  CA_31
REMARK   19  A    between atoms: CA_31  and  CB_32
REMARK   20  A    between atoms: CA_31  and  N_42
REMARK   21  A    between atoms: CB_32  and  CG_33
REMARK   22  A    between atoms: C_43  and  CA_45
REMARK   23  A    between atoms: CA_45  and  CB_46
REMARK   24  A    between atoms: CA_45  and  N_52
REMARK   25  A    between atoms: CB_46  and  CG_47
REMARK   26  A    between atoms: C_53  and  CA_55
REMARK   27  A    between atoms: N_63  and  C_64
REMARK   28  A    between atoms: C_64  and  C_65
REMARK   29  A    between atoms: C_64  and  C_72
REMARK   30  A    between atoms: C_65  and  C_66
REMARK   31  A    between atoms: C_66  and  C_67
REMARK   32  A    between atoms: C_67  and  N_68
REMARK   33  A    between atoms: C_78  and  C_79
REMARK   34  A    between atoms: N_81  and  C_82
REMARK   35  A    between atoms: C_82  and  C_83
REMARK                            x       y       z     vdW  Elec       q    Type
REMARK                         _______ _______ _______ _____ _____    ______ ____
ROOT
ATOM      1  C   UNL     1       7.894  -1.231  25.309  0.00  0.00    +0.163 C 
ENDROOT
BRANCH   1   2
ATOM      2  N   UNL     1       8.096  -2.677  25.062  0.00  0.00    -0.302 N 
ATOM      3  H   UNL     1       8.325  -2.935  24.110  0.00  0.00    +0.150 HD
ATOM      4  C   UNL     1       8.497  -3.573  26.035  0.00  0.00    +0.236 C 
ATOM      5  O   UNL     1       8.593  -3.272  27.222  0.00  0.00    -0.274 OA
BRANCH   4   6
ATOM      6  CA  UNL     1       8.560  -5.040  25.556  0.00  0.00    +0.184 C 
BRANCH   6   7
ATOM      7  N   UNL     1       7.184  -5.555  25.655  0.00  0.00    -0.301 N 
ATOM      8  H   UNL     1       6.662  -5.572  24.792  0.00  0.00    +0.150 HD
ATOM      9  C   UNL     1       6.621  -5.959  26.838  0.00  0.00    +0.234 C 
ATOM     10  O   UNL     1       7.329  -6.073  27.839  0.00  0.00    -0.274 OA
BRANCH   9  11
ATOM     11  CA  UNL     1       5.103  -6.350  26.851  0.00  0.00    +0.163 C 
BRANCH  11  12
ATOM     12  N   UNL     1       4.459  -5.813  25.627  0.00  0.00    -0.302 N 
ATOM     13  H   UNL     1       4.143  -4.858  25.676  0.00  0.00    +0.150 HD
ATOM     14  C   UNL     1       4.414  -6.500  24.425  0.00  0.00    +0.234 C 
ATOM     15  O   UNL     1       4.953  -7.596  24.289  0.00  0.00    -0.274 OA
BRANCH  14  16
ATOM     16  CA  UNL     1       3.680  -5.808  23.227  0.00  0.00    +0.165 C 
BRANCH  16  17
ATOM     17  N   UNL     1       4.377  -4.596  22.784  0.00  0.00    -0.302 N 
ATOM     18  H   UNL     1       3.961  -3.685  22.940  0.00  0.00    +0.150 HD
ATOM     19  C   UNL     1       5.564  -4.639  22.081  0.00  0.00    +0.234 C 
ATOM     20  O   UNL     1       6.104  -5.687  21.736  0.00  0.00    -0.274 OA
BRANCH  19  21
ATOM     21  CA  UNL     1       6.090  -3.272  21.607  0.00  0.00    +0.159 C 
ATOM     22  N   UNL     1       7.528  -3.151  21.639  0.00  0.00    -0.304 N 
ATOM     23  H   UNL     1       8.184  -3.791  21.211  0.00  0.00    +0.149 HD
ATOM     24  C   UNL     1       7.936  -1.882  22.001  0.00  0.00    +0.214 C 
ATOM     25  O   UNL     1       9.086  -1.487  22.031  0.00  0.00    -0.276 OA
ATOM     26  C   UNL     1       6.711  -1.068  22.312  0.00  0.00    +0.098 C 
ATOM     27  C   UNL     1       5.658  -2.147  22.538  0.00  0.00    +0.041 C 
ENDBRANCH  19  21
ENDBRANCH  16  17
BRANCH  16  28
ATOM     28  CB  UNL     1       2.192  -5.536  23.498  0.00  0.00    +0.086 C 
BRANCH  28  29
ATOM     29  CG  UNL     1       1.461  -6.627  24.202  0.00  0.00    +0.038 A 
ATOM     30  ND1 UNL     1       1.169  -7.850  23.645  0.00  0.00    -0.348 N 
ATOM     31  HD1 UNL     1       1.356  -8.149  22.697  0.00  0.00    +0.166 HD
ATOM     32  CE1 UNL     1       0.578  -8.609  24.615  0.00  0.00    +0.196 A 
ATOM     33  NE2 UNL     1       0.445  -7.943  25.738  0.00  0.00    -0.244 NA
ATOM     34  CD2 UNL     1       0.985  -6.712  25.493  0.00  0.00    +0.133 A 
ENDBRANCH  28  29
ENDBRANCH  16  28
ENDBRANCH  14  16
ENDBRANCH  11  12
BRANCH  11  35
ATOM     35  CB  UNL     1       4.266  -5.911  28.083  0.00  0.00    +0.069 C 
BRANCH  35  36
ATOM     36  CG  UNL     1       4.065  -4.434  28.265  0.00  0.00    -0.020 A 
ATOM     37  CD2 UNL     1       2.934  -3.638  27.898  0.00  0.00    +0.003 A 
ATOM     38  CE2 UNL     1       3.102  -2.389  28.497  0.00  0.00    +0.047 A 
ATOM     39  CZ2 UNL     1       2.107  -1.405  28.500  0.00  0.00    +0.026 A 
ATOM     40  CH2 UNL     1       0.920  -1.687  27.823  0.00  0.00    +0.002 A 
ATOM     41  CZ3 UNL     1       0.754  -2.889  27.138  0.00  0.00    +0.001 A 
ATOM     42  NE1 UNL     1       4.361  -2.362  29.043  0.00  0.00    -0.360 N 
ATOM     43  HE1 UNL     1       4.764  -1.566  29.520  0.00  0.00    +0.165 HD
ATOM     44  CE3 UNL     1       1.751  -3.873  27.169  0.00  0.00    +0.010 A 
ATOM     45  CD1 UNL     1       4.962  -3.580  28.886  0.00  0.00    +0.087 A 
ENDBRANCH  35  36
ENDBRANCH  11  35
ENDBRANCH   9  11
ENDBRANCH   6   7
BRANCH   6  46
ATOM     46  C   UNL     1       9.503  -5.864  26.446  0.00  0.00    +0.187 C 
BRANCH  46  47
ATOM     47  O   UNL     1      10.875  -5.671  26.096  0.00  0.00    -0.393 OA
ATOM     48  H   UNL     1      11.371  -5.509  26.920  0.00  0.00    +0.209 HD
ENDBRANCH  46  47
ENDBRANCH   6  46
ENDBRANCH   4   6
ENDBRANCH   1   2
BRANCH   1  51
ATOM     49  N   UNL     1       6.707   0.055  27.114  0.00  0.00    -0.305 N 
ATOM     50  H   UNL     1       7.606   0.420  27.393  0.00  0.00    +0.149 HD
ATOM     51  C   UNL     1       6.648  -1.004  26.228  0.00  0.00    +0.234 C 
ATOM     52  O   UNL     1       5.623  -1.677  26.100  0.00  0.00    -0.274 OA
BRANCH  49  53
ATOM     53  C   UNL     1       5.579   0.416  27.969  0.00  0.00    +0.200 C 
BRANCH  53  56
ATOM     54  N   UNL     1       5.769   2.619  26.854  0.00  0.00    -0.303 N 
ATOM     55  H   UNL     1       6.433   2.156  26.240  0.00  0.00    +0.149 HD
ATOM     56  C   UNL     1       5.338   1.941  27.978  0.00  0.00    +0.231 C 
ATOM     57  O   UNL     1       4.738   2.502  28.892  0.00  0.00    -0.274 OA
BRANCH  54  58
ATOM     58  C   UNL     1       5.775   4.091  26.772  0.00  0.00    +0.159 C 
BRANCH  58  59
ATOM     59  C   UNL     1       5.484   4.457  25.299  0.00  0.00    +0.234 C 
ATOM     60  N   UNL     1       5.495   5.805  24.978  0.00  0.00    -0.302 N 
ATOM     61  H   UNL     1       5.861   6.478  25.645  0.00  0.00    +0.150 HD
ATOM     62  O   UNL     1       5.201   3.589  24.472  0.00  0.00    -0.274 OA
BRANCH  60  63
ATOM     63  C   UNL     1       5.260   6.251  23.599  0.00  0.00    +0.159 C 
BRANCH  63  64
ATOM     64  C   UNL     1       3.840   5.843  23.132  0.00  0.00    +0.237 C 
ATOM     65  N   UNL     1       2.786   6.234  23.932  0.00  0.00    -0.288 N 
ATOM     66  C   UNL     1       1.393   6.233  23.465  0.00  0.00    +0.162 C 
ATOM     67  C   UNL     1       0.585   6.676  24.707  0.00  0.00    +0.033 C 
ATOM     68  C   UNL     1       1.609   6.836  25.828  0.00  0.00    +0.021 C 
ATOM     69  C   UNL     1       2.897   7.097  25.091  0.00  0.00    +0.109 C 
ATOM     70  O   UNL     1       3.661   5.144  22.133  0.00  0.00    -0.274 OA
BRANCH  66  71
ATOM     71  C   UNL     1       0.862   4.906  22.876  0.00  0.00    +0.234 C 
ATOM     72  N   UNL     1       0.935   4.859  21.502  0.00  0.00    -0.305 N 
ATOM     73  H   UNL     1       1.636   5.453  21.066  0.00  0.00    +0.149 HD
ATOM     74  O   UNL     1       0.444   3.979  23.569  0.00  0.00    -0.274 OA
BRANCH  72  75
ATOM     75  C   UNL     1       0.490   3.707  20.734  0.00  0.00    +0.199 C 
BRANCH  75  76
ATOM     76  C   UNL     1       1.525   2.585  20.606  0.00  0.00    +0.228 C 
ATOM     77  O   UNL     1       1.378   1.628  19.851  0.00  0.00    -0.274 OA
ATOM     78  N   UNL     1       2.585   2.632  21.462  0.00  0.00    -0.328 N 
ATOM     79  H   UNL     1       3.301   1.931  21.342  0.00  0.00    +0.145 HD
ATOM     80  H   UNL     1       2.863   3.529  21.851  0.00  0.00    +0.145 HD
ENDBRANCH  75  76
ENDBRANCH  72  75
ENDBRANCH  66  71
ENDBRANCH  63  64
BRANCH  63  81
ATOM     81  C   UNL     1       6.347   5.732  22.644  0.00  0.00    +0.035 C 
BRANCH  81  82
ATOM     82  C   UNL     1       7.484   6.738  22.377  0.00  0.00    +0.043 C 
BRANCH  82  83
ATOM     83  C   UNL     1       8.816   6.363  23.031  0.00  0.00    +0.243 C 
BRANCH  83  84
ATOM     84  N   UNL     1       8.945   7.102  24.283  0.00  0.00    -0.114 NA
ATOM     85  C   UNL     1       9.263   6.449  25.337  0.00  0.00    +0.376 C 
ATOM     86  N   UNL     1       9.293   7.090  26.523  0.00  0.00    -0.289 N 
ATOM     87  H   UNL     1      10.012   6.815  27.174  0.00  0.00    +0.255 HD
ATOM     88  H   UNL     1       9.242   8.098  26.402  0.00  0.00    +0.255 HD
ATOM     89  N   UNL     1       9.526   5.129  25.471  0.00  0.00    -0.289 N 
ATOM     90  H   UNL     1      10.128   4.866  26.236  0.00  0.00    +0.255 HD
ATOM     91  H   UNL     1       9.725   4.626  24.619  0.00  0.00    +0.255 HD
ENDBRANCH  83  84
ENDBRANCH  82  83
ENDBRANCH  81  82
ENDBRANCH  63  81
ENDBRANCH  60  63
ENDBRANCH  58  59
BRANCH  58  92
ATOM     92  C   UNL     1       4.670   4.713  27.645  0.00  0.00    +0.034 C 
BRANCH  92  94
ATOM     93  C   UNL     1       3.872   6.607  29.163  0.00  0.00    +0.007 C 
ATOM     94  C   UNL     1       5.053   5.994  28.412  0.00  0.00    -0.015 C 
ATOM     95  C   UNL     1       6.185   5.693  29.403  0.00  0.00    +0.007 C 
ENDBRANCH  92  94
ENDBRANCH  58  92
ENDBRANCH  54  58
ENDBRANCH  53  56
ENDBRANCH  49  53
ENDBRANCH   1  51
BRANCH   1  96
ATOM     96  C   UNL     1       9.207  -0.558  25.787  0.00  0.00    +0.067 C 
BRANCH  96  97
ATOM     97  C   UNL     1       9.696   0.611  24.958  0.00  0.00    -0.045 A 
ATOM     98  C   UNL     1      11.058   0.746  24.648  0.00  0.00    +0.007 A 
ATOM     99  C   UNL     1      11.495   1.764  23.797  0.00  0.00    +0.045 A 
ATOM    100  C   UNL     1      10.575   2.650  23.252  0.00  0.00    +0.117 A 
ATOM    101  C   UNL     1       9.233   2.580  23.603  0.00  0.00    +0.045 A 
ATOM    102  C   UNL     1       8.805   1.587  24.487  0.00  0.00    +0.007 A 
BRANCH 100 103
ATOM    103  O   UNL     1      11.033   3.601  22.390  0.00  0.00    -0.507 OA
ATOM    104  H   UNL     1      10.307   4.215  22.191  0.00  0.00    +0.292 HD
ENDBRANCH 100 103
ENDBRANCH  96  97
ENDBRANCH   1  96
TORSDOF 33
ENDMDL
MODEL 5
REMARK VINA RESULT:      -3.6      2.440      7.482
REMARK  Name = 
REMARK  35 active torsions:
REMARK  status: ('A' for Active; 'I' for Inactive)
REMARK    1  A    between atoms: C_1  and  C_2
REMARK    2  A    between atoms: C_2  and  C_3
REMARK    3  A    between atoms: C_2  and  C_4
REMARK    4  A    between atoms: C_4  and  C_5
REMARK    5  A    between atoms: C_5  and  N_6
REMARK    6  A    between atoms: C_5  and  C_61
REMARK    7  A    between atoms: C_7  and  C_9
REMARK    8  A    between atoms: C_9  and  N_10
REMARK    9  A    between atoms: C_11  and  C_13
REMARK   10  A    between atoms: C_13  and  C_14
REMARK   11  A    between atoms: C_13  and  N_22
REMARK   12  A    between atoms: C_14  and  C_15
REMARK   13  A    between atoms: C_18  and  O_19
REMARK   14  A    between atoms: C_23  and  CA_25
REMARK   15  A    between atoms: CA_25  and  C_26
REMARK   16  A    between atoms: CA_25  and  N_28
REMARK   17  A    between atoms: C_26  and  O_27
REMARK   18  A    between atoms: C_29  and  CA_31
REMARK   19  A    between atoms: CA_31  and  CB_32
REMARK   20  A    between atoms: CA_31  and  N_42
REMARK   21  A    between atoms: CB_32  and  CG_33
REMARK   22  A    between atoms: C_43  and  CA_45
REMARK   23  A    between atoms: CA_45  and  CB_46
REMARK   24  A    between atoms: CA_45  and  N_52
REMARK   25  A    between atoms: CB_46  and  CG_47
REMARK   26  A    between atoms: C_53  and  CA_55
REMARK   27  A    between atoms: N_63  and  C_64
REMARK   28  A    between atoms: C_64  and  C_65
REMARK   29  A    between atoms: C_64  and  C_72
REMARK   30  A    between atoms: C_65  and  C_66
REMARK   31  A    between atoms: C_66  and  C_67
REMARK   32  A    between atoms: C_67  and  N_68
REMARK   33  A    between atoms: C_78  and  C_79
REMARK   34  A    between atoms: N_81  and  C_82
REMARK   35  A    between atoms: C_82  and  C_83
REMARK                            x       y       z     vdW  Elec       q    Type
REMARK                         _______ _______ _______ _____ _____    ______ ____
ROOT
ATOM      1  C   UNL     1       2.152  -4.813  24.830  0.00  0.00    +0.163 C 
ENDROOT
BRANCH   1   2
ATOM      2  N   UNL     1       3.407  -4.406  24.160  0.00  0.00    -0.302 N 
ATOM      3  H   UNL     1       3.584  -3.410  24.121  0.00  0.00    +0.150 HD
ATOM      4  C   UNL     1       4.525  -5.214  24.068  0.00  0.00    +0.236 C 
ATOM      5  O   UNL     1       4.529  -6.392  24.418  0.00  0.00    -0.274 OA
BRANCH   4   6
ATOM      6  CA  UNL     1       5.683  -4.599  23.251  0.00  0.00    +0.184 C 
BRANCH   6   7
ATOM      7  N   UNL     1       6.546  -3.914  24.229  0.00  0.00    -0.301 N 
ATOM      8  H   UNL     1       7.488  -4.267  24.300  0.00  0.00    +0.150 HD
ATOM      9  C   UNL     1       6.107  -2.886  25.022  0.00  0.00    +0.234 C 
ATOM     10  O   UNL     1       5.006  -2.378  24.803  0.00  0.00    -0.274 OA
BRANCH   9  11
ATOM     11  CA  UNL     1       7.067  -2.330  26.129  0.00  0.00    +0.163 C 
BRANCH  11  12
ATOM     12  N   UNL     1       8.196  -1.624  25.474  0.00  0.00    -0.302 N 
ATOM     13  H   UNL     1       8.327  -1.815  24.494  0.00  0.00    +0.150 HD
ATOM     14  C   UNL     1       8.949  -0.644  26.100  0.00  0.00    +0.234 C 
ATOM     15  O   UNL     1       8.692  -0.265  27.240  0.00  0.00    -0.274 OA
BRANCH  14  16
ATOM     16  CA  UNL     1      10.122  -0.006  25.283  0.00  0.00    +0.165 C 
BRANCH  16  17
ATOM     17  N   UNL     1       9.796   1.348  24.822  0.00  0.00    -0.302 N 
ATOM     18  H   UNL     1       8.849   1.699  24.907  0.00  0.00    +0.150 HD
ATOM     19  C   UNL     1      10.720   2.159  24.195  0.00  0.00    +0.234 C 
ATOM     20  O   UNL     1      11.865   1.800  23.936  0.00  0.00    -0.274 OA
BRANCH  19  21
ATOM     21  CA  UNL     1      10.166   3.502  23.684  0.00  0.00    +0.159 C 
ATOM     22  N   UNL     1      11.092   4.604  23.800  0.00  0.00    -0.304 N 
ATOM     23  H   UNL     1      12.040   4.617  23.448  0.00  0.00    +0.149 HD
ATOM     24  C   UNL     1      10.456   5.787  24.121  0.00  0.00    +0.214 C 
ATOM     25  O   UNL     1      10.987   6.879  24.202  0.00  0.00    -0.276 OA
ATOM     26  C   UNL     1       8.995   5.496  24.312  0.00  0.00    +0.098 C 
ATOM     27  C   UNL     1       8.993   3.986  24.527  0.00  0.00    +0.041 C 
ENDBRANCH  19  21
ENDBRANCH  16  17
BRANCH  16  28
ATOM     28  CB  UNL     1      10.614  -0.892  24.127  0.00  0.00    +0.086 C 
BRANCH  28  29
ATOM     29  CG  UNL     1       9.819  -0.802  22.871  0.00  0.00    +0.038 A 
ATOM     30  ND1 UNL     1       9.742   0.320  22.080  0.00  0.00    -0.348 N 
ATOM     31  HD1 UNL     1      10.159   1.224  22.261  0.00  0.00    +0.166 HD
ATOM     32  CE1 UNL     1       9.001  -0.007  20.980  0.00  0.00    +0.196 A 
ATOM     33  NE2 UNL     1       8.573  -1.246  21.034  0.00  0.00    -0.244 NA
ATOM     34  CD2 UNL     1       9.071  -1.749  22.204  0.00  0.00    +0.133 A 
ENDBRANCH  28  29
ENDBRANCH  16  28
ENDBRANCH  14  16
ENDBRANCH  11  12
BRANCH  11  35
ATOM     35  CB  UNL     1       7.645  -3.350  27.147  0.00  0.00    +0.069 C 
BRANCH  35  36
ATOM     36  CG  UNL     1       6.828  -4.585  27.395  0.00  0.00    -0.020 A 
ATOM     37  CD2 UNL     1       5.564  -4.698  28.057  0.00  0.00    +0.003 A 
ATOM     38  CE2 UNL     1       5.089  -5.988  27.814  0.00  0.00    +0.047 A 
ATOM     39  CZ2 UNL     1       3.800  -6.403  28.162  0.00  0.00    +0.026 A 
ATOM     40  CH2 UNL     1       2.985  -5.487  28.828  0.00  0.00    +0.002 A 
ATOM     41  CZ3 UNL     1       3.459  -4.221  29.166  0.00  0.00    +0.001 A 
ATOM     42  NE1 UNL     1       6.098  -6.686  27.197  0.00  0.00    -0.360 N 
ATOM     43  HE1 UNL     1       6.042  -7.660  26.929  0.00  0.00    +0.165 HD
ATOM     44  CE3 UNL     1       4.744  -3.813  28.785  0.00  0.00    +0.010 A 
ATOM     45  CD1 UNL     1       7.162  -5.859  26.965  0.00  0.00    +0.087 A 
ENDBRANCH  35  36
ENDBRANCH  11  35
ENDBRANCH   9  11
ENDBRANCH   6   7
BRANCH   6  46
ATOM     46  C   UNL     1       5.149  -3.595  22.217  0.00  0.00    +0.187 C 
BRANCH  46  47
ATOM     47  O   UNL     1       5.613  -3.888  20.898  0.00  0.00    -0.393 OA
ATOM     48  H   UNL     1       4.839  -4.140  20.360  0.00  0.00    +0.209 HD
ENDBRANCH  46  47
ENDBRANCH   6  46
ENDBRANCH   4   6
ENDBRANCH   1   2
BRANCH   1  51
ATOM     49  N   UNL     1       1.686  -2.916  26.413  0.00  0.00    -0.305 N 
ATOM     50  H   UNL     1       2.204  -3.425  27.115  0.00  0.00    +0.149 HD
ATOM     51  C   UNL     1       1.321  -3.554  25.243  0.00  0.00    +0.234 C 
ATOM     52  O   UNL     1       0.443  -3.093  24.509  0.00  0.00    -0.274 OA
BRANCH  49  53
ATOM     53  C   UNL     1       1.039  -1.687  26.863  0.00  0.00    +0.200 C 
BRANCH  53  56
ATOM     54  N   UNL     1       2.083   0.515  27.307  0.00  0.00    -0.303 N 
ATOM     55  H   UNL     1       1.746   0.766  26.382  0.00  0.00    +0.149 HD
ATOM     56  C   UNL     1       1.999  -0.809  27.693  0.00  0.00    +0.231 C 
ATOM     57  O   UNL     1       2.595  -1.243  28.677  0.00  0.00    -0.274 OA
BRANCH  54  58
ATOM     58  C   UNL     1       3.075   1.444  27.876  0.00  0.00    +0.159 C 
BRANCH  58  59
ATOM     59  C   UNL     1       3.407   2.474  26.772  0.00  0.00    +0.234 C 
ATOM     60  N   UNL     1       3.255   3.811  27.101  0.00  0.00    -0.302 N 
ATOM     61  H   UNL     1       3.115   4.078  28.071  0.00  0.00    +0.150 HD
ATOM     62  O   UNL     1       3.735   2.110  25.641  0.00  0.00    -0.274 OA
BRANCH  60  63
ATOM     63  C   UNL     1       3.574   4.865  26.129  0.00  0.00    +0.159 C 
BRANCH  63  64
ATOM     64  C   UNL     1       3.056   4.479  24.721  0.00  0.00    +0.237 C 
ATOM     65  N   UNL     1       4.009   4.242  23.751  0.00  0.00    -0.288 N 
ATOM     66  C   UNL     1       3.705   3.543  22.495  0.00  0.00    +0.162 C 
ATOM     67  C   UNL     1       5.042   3.575  21.720  0.00  0.00    +0.033 C 
ATOM     68  C   UNL     1       6.008   4.367  22.598  0.00  0.00    +0.021 C 
ATOM     69  C   UNL     1       5.438   4.200  23.984  0.00  0.00    +0.109 C 
ATOM     70  O   UNL     1       1.853   4.453  24.456  0.00  0.00    -0.274 OA
BRANCH  66  71
ATOM     71  C   UNL     1       2.538   4.110  21.654  0.00  0.00    +0.234 C 
ATOM     72  N   UNL     1       2.653   3.825  20.312  0.00  0.00    -0.305 N 
ATOM     73  H   UNL     1       3.204   3.006  20.069  0.00  0.00    +0.149 HD
ATOM     74  O   UNL     1       1.592   4.729  22.142  0.00  0.00    -0.274 OA
BRANCH  72  75
ATOM     75  C   UNL     1       1.670   4.262  19.333  0.00  0.00    +0.199 C 
BRANCH  75  76
ATOM     76  C   UNL     1       1.990   5.598  18.657  0.00  0.00    +0.228 C 
ATOM     77  O   UNL     1       2.306   6.603  19.288  0.00  0.00    -0.274 OA
ATOM     78  N   UNL     1       1.797   5.663  17.309  0.00  0.00    -0.328 N 
ATOM     79  H   UNL     1       2.064   6.520  16.849  0.00  0.00    +0.145 HD
ATOM     80  H   UNL     1       1.835   4.804  16.766  0.00  0.00    +0.145 HD
ENDBRANCH  75  76
ENDBRANCH  72  75
ENDBRANCH  66  71
ENDBRANCH  63  64
BRANCH  63  81
ATOM     81  C   UNL     1       5.077   5.187  26.119  0.00  0.00    +0.035 C 
BRANCH  81  82
ATOM     82  C   UNL     1       5.707   5.304  27.520  0.00  0.00    +0.043 C 
BRANCH  82  83
ATOM     83  C   UNL     1       7.089   4.660  27.640  0.00  0.00    +0.243 C 
BRANCH  83  84
ATOM     84  N   UNL     1       7.000   3.534  28.566  0.00  0.00    -0.114 NA
ATOM     85  C   UNL     1       6.869   2.359  28.074  0.00  0.00    +0.376 C 
ATOM     86  N   UNL     1       6.687   1.315  28.906  0.00  0.00    -0.289 N 
ATOM     87  H   UNL     1       7.123   0.443  28.648  0.00  0.00    +0.255 HD
ATOM     88  H   UNL     1       6.872   1.573  29.872  0.00  0.00    +0.255 HD
ATOM     89  N   UNL     1       6.818   1.984  26.775  0.00  0.00    -0.289 N 
ATOM     90  H   UNL     1       7.113   1.043  26.567  0.00  0.00    +0.255 HD
ATOM     91  H   UNL     1       7.148   2.660  26.102  0.00  0.00    +0.255 HD
ENDBRANCH  83  84
ENDBRANCH  82  83
ENDBRANCH  81  82
ENDBRANCH  63  81
ENDBRANCH  60  63
ENDBRANCH  58  59
BRANCH  58  92
ATOM     92  C   UNL     1       2.508   2.210  29.086  0.00  0.00    +0.034 C 
BRANCH  92  94
ATOM     93  C   UNL     1       0.506   3.275  30.263  0.00  0.00    +0.007 C 
ATOM     94  C   UNL     1       0.974   2.357  29.135  0.00  0.00    -0.015 C 
ATOM     95  C   UNL     1       0.456   2.894  27.794  0.00  0.00    +0.007 C 
ENDBRANCH  92  94
ENDBRANCH  58  92
ENDBRANCH  54  58
ENDBRANCH  53  56
ENDBRANCH  49  53
ENDBRANCH   1  51
BRANCH   1  96
ATOM     96  C   UNL     1       1.388  -5.870  23.989  0.00  0.00    +0.067 C 
BRANCH  96  97
ATOM     97  C   UNL     1       1.100  -7.187  24.677  0.00  0.00    -0.045 A 
ATOM     98  C   UNL     1       1.324  -8.404  24.014  0.00  0.00    +0.007 A 
ATOM     99  C   UNL     1       1.158  -9.619  24.683  0.00  0.00    +0.045 A 
ATOM    100  C   UNL     1       0.770  -9.624  26.016  0.00  0.00    +0.117 A 
ATOM    101  C   UNL     1       0.472  -8.437  26.670  0.00  0.00    +0.045 A 
ATOM    102  C   UNL     1       0.598  -7.225  25.987  0.00  0.00    +0.007 A 
BRANCH 100 103
ATOM    103  O   UNL     1       0.664 -10.827  26.648  0.00  0.00    -0.507 OA
ATOM    104  H   UNL     1       1.556 -11.178  26.798  0.00  0.00    +0.292 HD
ENDBRANCH 100 103
ENDBRANCH  96  97
ENDBRANCH   1  96
TORSDOF 33
ENDMDL
MODEL 6
REMARK VINA RESULT:      -3.0      2.340      7.228
REMARK  Name = 
REMARK  35 active torsions:
REMARK  status: ('A' for Active; 'I' for Inactive)
REMARK    1  A    between atoms: C_1  and  C_2
REMARK    2  A    between atoms: C_2  and  C_3
REMARK    3  A    between atoms: C_2  and  C_4
REMARK    4  A    between atoms: C_4  and  C_5
REMARK    5  A    between atoms: C_5  and  N_6
REMARK    6  A    between atoms: C_5  and  C_61
REMARK    7  A    between atoms: C_7  and  C_9
REMARK    8  A    between atoms: C_9  and  N_10
REMARK    9  A    between atoms: C_11  and  C_13
REMARK   10  A    between atoms: C_13  and  C_14
REMARK   11  A    between atoms: C_13  and  N_22
REMARK   12  A    between atoms: C_14  and  C_15
REMARK   13  A    between atoms: C_18  and  O_19
REMARK   14  A    between atoms: C_23  and  CA_25
REMARK   15  A    between atoms: CA_25  and  C_26
REMARK   16  A    between atoms: CA_25  and  N_28
REMARK   17  A    between atoms: C_26  and  O_27
REMARK   18  A    between atoms: C_29  and  CA_31
REMARK   19  A    between atoms: CA_31  and  CB_32
REMARK   20  A    between atoms: CA_31  and  N_42
REMARK   21  A    between atoms: CB_32  and  CG_33
REMARK   22  A    between atoms: C_43  and  CA_45
REMARK   23  A    between atoms: CA_45  and  CB_46
REMARK   24  A    between atoms: CA_45  and  N_52
REMARK   25  A    between atoms: CB_46  and  CG_47
REMARK   26  A    between atoms: C_53  and  CA_55
REMARK   27  A    between atoms: N_63  and  C_64
REMARK   28  A    between atoms: C_64  and  C_65
REMARK   29  A    between atoms: C_64  and  C_72
REMARK   30  A    between atoms: C_65  and  C_66
REMARK   31  A    between atoms: C_66  and  C_67
REMARK   32  A    between atoms: C_67  and  N_68
REMARK   33  A    between atoms: C_78  and  C_79
REMARK   34  A    between atoms: N_81  and  C_82
REMARK   35  A    between atoms: C_82  and  C_83
REMARK                            x       y       z     vdW  Elec       q    Type
REMARK                         _______ _______ _______ _____ _____    ______ ____
ROOT
ATOM      1  C   UNL     1       1.917  -4.667  25.134  0.00  0.00    +0.163 C 
ENDROOT
BRANCH   1   2
ATOM      2  N   UNL     1       3.224  -4.396  24.494  0.00  0.00    -0.302 N 
ATOM      3  H   UNL     1       3.596  -3.464  24.628  0.00  0.00    +0.150 HD
ATOM      4  C   UNL     1       4.157  -5.374  24.209  0.00  0.00    +0.236 C 
ATOM      5  O   UNL     1       3.928  -6.575  24.340  0.00  0.00    -0.274 OA
BRANCH   4   6
ATOM      6  CA  UNL     1       5.408  -4.857  23.467  0.00  0.00    +0.184 C 
BRANCH   6   7
ATOM      7  N   UNL     1       6.304  -4.326  24.509  0.00  0.00    -0.301 N 
ATOM      8  H   UNL     1       6.809  -5.018  25.041  0.00  0.00    +0.150 HD
ATOM      9  C   UNL     1       6.431  -2.988  24.775  0.00  0.00    +0.234 C 
ATOM     10  O   UNL     1       5.923  -2.167  24.010  0.00  0.00    -0.274 OA
BRANCH   9  11
ATOM     11  CA  UNL     1       7.299  -2.545  26.002  0.00  0.00    +0.163 C 
BRANCH  11  12
ATOM     12  N   UNL     1       8.357  -1.617  25.531  0.00  0.00    -0.302 N 
ATOM     13  H   UNL     1       8.787  -1.848  24.651  0.00  0.00    +0.150 HD
ATOM     14  C   UNL     1       8.655  -0.419  26.159  0.00  0.00    +0.234 C 
ATOM     15  O   UNL     1       8.020  -0.028  27.136  0.00  0.00    -0.274 OA
BRANCH  14  16
ATOM     16  CA  UNL     1       9.814   0.443  25.554  0.00  0.00    +0.165 C 
BRANCH  16  17
ATOM     17  N   UNL     1       9.330   1.730  25.044  0.00  0.00    -0.302 N 
ATOM     18  H   UNL     1       9.871   2.573  25.197  0.00  0.00    +0.150 HD
ATOM     19  C   UNL     1       8.107   1.865  24.417  0.00  0.00    +0.234 C 
ATOM     20  O   UNL     1       7.317   0.936  24.276  0.00  0.00    -0.274 OA
BRANCH  19  21
ATOM     21  CA  UNL     1       7.722   3.310  24.049  0.00  0.00    +0.159 C 
ATOM     22  N   UNL     1       6.301   3.520  23.899  0.00  0.00    -0.304 N 
ATOM     23  H   UNL     1       5.594   3.277  24.580  0.00  0.00    +0.149 HD
ATOM     24  C   UNL     1       6.011   4.415  22.888  0.00  0.00    +0.214 C 
ATOM     25  O   UNL     1       4.903   4.829  22.603  0.00  0.00    -0.276 OA
ATOM     26  C   UNL     1       7.302   4.816  22.233  0.00  0.00    +0.098 C 
ATOM     27  C   UNL     1       8.245   3.701  22.673  0.00  0.00    +0.041 C 
ENDBRANCH  19  21
ENDBRANCH  16  17
BRANCH  16  28
ATOM     28  CB  UNL     1      10.643  -0.306  24.498  0.00  0.00    +0.086 C 
BRANCH  28  29
ATOM     29  CG  UNL     1      10.001  -0.444  23.161  0.00  0.00    +0.038 A 
ATOM     30  ND1 UNL     1      10.084   0.495  22.160  0.00  0.00    -0.348 N 
ATOM     31  HD1 UNL     1      10.532   1.400  22.208  0.00  0.00    +0.166 HD
ATOM     32  CE1 UNL     1       9.452  -0.021  21.065  0.00  0.00    +0.196 A 
ATOM     33  NE2 UNL     1       8.944  -1.206  21.310  0.00  0.00    -0.244 NA
ATOM     34  CD2 UNL     1       9.276  -1.478  22.609  0.00  0.00    +0.133 A 
ENDBRANCH  28  29
ENDBRANCH  16  28
ENDBRANCH  14  16
ENDBRANCH  11  12
BRANCH  11  35
ATOM     35  CB  UNL     1       7.965  -3.667  26.844  0.00  0.00    +0.069 C 
BRANCH  35  36
ATOM     36  CG  UNL     1       7.048  -4.712  27.412  0.00  0.00    -0.020 A 
ATOM     37  CD2 UNL     1       5.757  -4.536  28.004  0.00  0.00    +0.003 A 
ATOM     38  CE2 UNL     1       5.194  -5.806  28.142  0.00  0.00    +0.047 A 
ATOM     39  CZ2 UNL     1       3.865  -6.012  28.527  0.00  0.00    +0.026 A 
ATOM     40  CH2 UNL     1       3.100  -4.886  28.833  0.00  0.00    +0.002 A 
ATOM     41  CZ3 UNL     1       3.657  -3.610  28.793  0.00  0.00    +0.001 A 
ATOM     42  NE1 UNL     1       6.167  -6.722  27.827  0.00  0.00    -0.360 N 
ATOM     43  HE1 UNL     1       6.046  -7.725  27.867  0.00  0.00    +0.165 HD
ATOM     44  CE3 UNL     1       4.982  -3.420  28.379  0.00  0.00    +0.010 A 
ATOM     45  CD1 UNL     1       7.298  -6.075  27.412  0.00  0.00    +0.087 A 
ENDBRANCH  35  36
ENDBRANCH  11  35
ENDBRANCH   9  11
ENDBRANCH   6   7
BRANCH   6  46
ATOM     46  C   UNL     1       5.033  -3.747  22.472  0.00  0.00    +0.187 C 
BRANCH  46  47
ATOM     47  O   UNL     1       5.819  -3.808  21.280  0.00  0.00    -0.393 OA
ATOM     48  H   UNL     1       6.659  -4.252  21.502  0.00  0.00    +0.209 HD
ENDBRANCH  46  47
ENDBRANCH   6  46
ENDBRANCH   4   6
ENDBRANCH   1   2
BRANCH   1  51
ATOM     49  N   UNL     1       1.241  -2.859  26.745  0.00  0.00    -0.305 N 
ATOM     50  H   UNL     1       1.444  -3.504  27.495  0.00  0.00    +0.149 HD
ATOM     51  C   UNL     1       1.174  -3.327  25.447  0.00  0.00    +0.234 C 
ATOM     52  O   UNL     1       0.635  -2.666  24.555  0.00  0.00    -0.274 OA
BRANCH  49  53
ATOM     53  C   UNL     1       0.656  -1.581  27.143  0.00  0.00    +0.200 C 
BRANCH  53  56
ATOM     54  N   UNL     1       1.916   0.453  27.779  0.00  0.00    -0.303 N 
ATOM     55  H   UNL     1       1.811   0.720  26.805  0.00  0.00    +0.149 HD
ATOM     56  C   UNL     1       1.557  -0.830  28.146  0.00  0.00    +0.231 C 
ATOM     57  O   UNL     1       1.873  -1.315  29.230  0.00  0.00    -0.274 OA
BRANCH  54  58
ATOM     58  C   UNL     1       2.908   1.242  28.532  0.00  0.00    +0.159 C 
BRANCH  58  59
ATOM     59  C   UNL     1       3.351   2.400  27.609  0.00  0.00    +0.234 C 
ATOM     60  N   UNL     1       3.842   3.538  28.228  0.00  0.00    -0.302 N 
ATOM     61  H   UNL     1       4.063   3.516  29.219  0.00  0.00    +0.150 HD
ATOM     62  O   UNL     1       3.216   2.325  26.386  0.00  0.00    -0.274 OA
BRANCH  60  63
ATOM     63  C   UNL     1       4.315   4.680  27.435  0.00  0.00    +0.159 C 
BRANCH  63  64
ATOM     64  C   UNL     1       3.409   4.894  26.198  0.00  0.00    +0.237 C 
ATOM     65  N   UNL     1       2.324   5.732  26.359  0.00  0.00    -0.288 N 
ATOM     66  C   UNL     1       1.587   6.303  25.223  0.00  0.00    +0.162 C 
ATOM     67  C   UNL     1       0.443   7.102  25.887  0.00  0.00    +0.033 C 
ATOM     68  C   UNL     1       0.590   6.862  27.388  0.00  0.00    +0.021 C 
ATOM     69  C   UNL     1       2.050   6.517  27.545  0.00  0.00    +0.109 C 
ATOM     70  O   UNL     1       3.601   4.293  25.139  0.00  0.00    -0.274 OA
BRANCH  66  71
ATOM     71  C   UNL     1       1.055   5.302  24.171  0.00  0.00    +0.234 C 
ATOM     72  N   UNL     1       1.363   5.664  22.879  0.00  0.00    -0.305 N 
ATOM     73  H   UNL     1       2.177   6.260  22.759  0.00  0.00    +0.149 HD
ATOM     74  O   UNL     1       0.443   4.275  24.465  0.00  0.00    -0.274 OA
BRANCH  72  75
ATOM     75  C   UNL     1       0.961   4.871  21.728  0.00  0.00    +0.199 C 
BRANCH  75  76
ATOM     76  C   UNL     1       1.940   3.755  21.347  0.00  0.00    +0.228 C 
ATOM     77  O   UNL     1       2.424   2.986  22.173  0.00  0.00    -0.274 OA
ATOM     78  N   UNL     1       2.350   3.721  20.048  0.00  0.00    -0.328 N 
ATOM     79  H   UNL     1       2.946   2.953  19.777  0.00  0.00    +0.145 HD
ATOM     80  H   UNL     1       1.754   4.130  19.334  0.00  0.00    +0.145 HD
ENDBRANCH  75  76
ENDBRANCH  72  75
ENDBRANCH  66  71
ENDBRANCH  63  64
BRANCH  63  81
ATOM     81  C   UNL     1       5.793   4.520  27.041  0.00  0.00    +0.035 C 
BRANCH  81  82
ATOM     82  C   UNL     1       6.669   5.744  27.371  0.00  0.00    +0.043 C 
BRANCH  82  83
ATOM     83  C   UNL     1       6.517   6.905  26.386  0.00  0.00    +0.243 C 
BRANCH  83  84
ATOM     84  N   UNL     1       7.485   6.731  25.307  0.00  0.00    -0.114 NA
ATOM     85  C   UNL     1       8.721   6.619  25.621  0.00  0.00    +0.376 C 
ATOM     86  N   UNL     1       9.645   6.556  24.641  0.00  0.00    -0.289 N 
ATOM     87  H   UNL     1      10.436   5.950  24.795  0.00  0.00    +0.255 HD
ATOM     88  H   UNL     1       9.213   6.408  23.732  0.00  0.00    +0.255 HD
ATOM     89  N   UNL     1       9.289   6.618  26.849  0.00  0.00    -0.289 N 
ATOM     90  H   UNL     1      10.168   6.134  26.937  0.00  0.00    +0.255 HD
ATOM     91  H   UNL     1       8.667   6.455  27.627  0.00  0.00    +0.255 HD
ENDBRANCH  83  84
ENDBRANCH  82  83
ENDBRANCH  81  82
ENDBRANCH  63  81
ENDBRANCH  60  63
ENDBRANCH  58  59
BRANCH  58  92
ATOM     92  C   UNL     1       2.297   1.856  29.805  0.00  0.00    +0.034 C 
BRANCH  92  94
ATOM     93  C   UNL     1       0.806   3.865  30.325  0.00  0.00    +0.007 C 
ATOM     94  C   UNL     1       0.905   2.499  29.646  0.00  0.00    -0.015 C 
ATOM     95  C   UNL     1       0.562   2.645  28.158  0.00  0.00    +0.007 C 
ENDBRANCH  92  94
ENDBRANCH  58  92
ENDBRANCH  54  58
ENDBRANCH  53  56
ENDBRANCH  49  53
ENDBRANCH   1  51
BRANCH   1  96
ATOM     96  C   UNL     1       1.103  -5.707  24.320  0.00  0.00    +0.067 C 
BRANCH  96  97
ATOM     97  C   UNL     1       0.894  -7.053  24.980  0.00  0.00    -0.045 A 
ATOM     98  C   UNL     1       0.621  -8.193  24.207  0.00  0.00    +0.007 A 
ATOM     99  C   UNL     1       0.531  -9.452  24.806  0.00  0.00    +0.045 A 
ATOM    100  C   UNL     1       0.716  -9.579  26.176  0.00  0.00    +0.117 A 
ATOM    101  C   UNL     1       0.914  -8.457  26.969  0.00  0.00    +0.045 A 
ATOM    102  C   UNL     1       0.961  -7.194  26.374  0.00  0.00    +0.007 A 
BRANCH 100 103
ATOM    103  O   UNL     1       0.667 -10.829  26.717  0.00  0.00    -0.507 OA
ATOM    104  H   UNL     1       0.331 -11.444  26.045  0.00  0.00    +0.292 HD
ENDBRANCH 100 103
ENDBRANCH  96  97
ENDBRANCH   1  96
TORSDOF 33
ENDMDL
