MODEL 1
REMARK VINA RESULT:      -7.2      0.000      0.000
REMARK  Name = 
REMARK  12 active torsions:
REMARK  status: ('A' for Active; 'I' for Inactive)
REMARK    1  A    between atoms: C_1  and  C_2
REMARK    2  A    between atoms: C_2  and  O_4
REMARK    3  A    between atoms: C_2  and  C_5
REMARK    4  A    between atoms: C_5  and  N_7
REMARK    5  A    between atoms: C_5  and  C_8
REMARK    6  A    between atoms: N_10  and  S_11
REMARK    7  A    between atoms: S_11  and  O_14
REMARK    8  A    between atoms: O_14  and  C_15
REMARK    9  A    between atoms: C_15  and  C_16
REMARK   10  A    between atoms: C_19  and  N_27
REMARK   11  A    between atoms: C_21  and  O_23
REMARK   12  A    between atoms: C_24  and  O_26
REMARK                            x       y       z     vdW  Elec       q    Type
REMARK                         _______ _______ _______ _____ _____    ______ ____
ROOT
ATOM      1  C   UNL     1       8.763  -5.171  24.589  0.00  0.00    +0.180 C 
ATOM      2  C   UNL     1       7.405  -5.168  23.884  0.00  0.00    +0.178 C 
ATOM      3  C   UNL     1       7.146  -3.703  23.495  0.00  0.00    +0.195 C 
ATOM      4  C   UNL     1       8.368  -2.954  24.039  0.00  0.00    +0.253 C 
ATOM      5  O   UNL     1       9.404  -3.956  24.159  0.00  0.00    -0.346 OA
ENDROOT
BRANCH   4   6
ATOM      6  N   UNL     1       8.903  -1.850  23.269  0.00  0.00    -0.286 N 
ATOM      7  C   UNL     1       8.316  -0.648  22.978  0.00  0.00    +0.167 A 
ATOM      8  N   UNL     1       7.046  -0.258  23.194  0.00  0.00    -0.216 NA
ATOM      9  C   UNL     1       6.857   1.010  22.750  0.00  0.00    +0.225 A 
ATOM     10  N   UNL     1       7.752   1.855  22.188  0.00  0.00    -0.219 NA
ATOM     11  C   UNL     1       9.022   1.427  22.031  0.00  0.00    +0.147 A 
ATOM     12  N   UNL     1       9.969   2.294  21.504  0.00  0.00    -0.341 N 
ATOM     13  H   UNL     1      10.797   1.830  21.150  0.00  0.00    +0.144 HD
ATOM     14  H   UNL     1       9.568   3.043  20.955  0.00  0.00    +0.144 HD
ATOM     15  C   UNL     1       9.332   0.111  22.410  0.00  0.00    +0.147 A 
ATOM     16  N   UNL     1      10.505  -0.603  22.335  0.00  0.00    -0.231 NA
ATOM     17  C   UNL     1      10.219  -1.765  22.873  0.00  0.00    +0.203 A 
ENDBRANCH   4   6
BRANCH   2  18
ATOM     18  O   UNL     1       7.489  -5.960  22.684  0.00  0.00    -0.386 OA
ATOM     19  H   UNL     1       6.991  -6.786  22.820  0.00  0.00    +0.210 HD
ENDBRANCH   2  18
BRANCH   3  20
ATOM     20  O   UNL     1       5.939  -3.233  24.100  0.00  0.00    -0.385 OA
ATOM     21  H   UNL     1       5.615  -2.495  23.546  0.00  0.00    +0.210 HD
ENDBRANCH   3  20
BRANCH   1  22
ATOM     22  C   UNL     1       8.702  -5.166  26.121  0.00  0.00    +0.229 C 
BRANCH  22  23
ATOM     23  O   UNL     1       7.522  -5.783  26.603  0.00  0.00    -0.220 OA
BRANCH  23  24
ATOM     24  S   UNL     1       6.439  -4.808  27.325  0.00  0.00    +0.169 S 
ATOM     25  O   UNL     1       6.329  -5.228  28.707  0.00  0.00    -0.126 OA
ATOM     26  O   UNL     1       6.762  -3.440  27.000  0.00  0.00    -0.126 OA
BRANCH  24  28
ATOM     27  C   UNL     1       4.469  -6.460  26.519  0.00  0.00    +0.253 C 
ATOM     28  N   UNL     1       5.004  -5.173  26.625  0.00  0.00    -0.164 N 
ATOM     29  H   UNL     1       4.528  -4.412  26.143  0.00  0.00    +0.179 HD
ATOM     30  O   UNL     1       4.988  -7.446  27.019  0.00  0.00    -0.272 OA
BRANCH  27  31
ATOM     31  C   UNL     1       3.122  -6.517  25.788  0.00  0.00    +0.168 C 
BRANCH  31  32
ATOM     32  N   UNL     1       2.217  -7.540  26.396  0.00  0.00    -0.318 NA
ATOM     33  H   UNL     1       2.426  -7.593  27.396  0.00  0.00    +0.119 HD
ATOM     34  H   UNL     1       1.275  -7.137  26.349  0.00  0.00    +0.119 HD
ENDBRANCH  31  32
BRANCH  31  36
ATOM     35  C   UNL     1       3.324  -5.508  23.417  0.00  0.00    +0.040 C 
ATOM     36  C   UNL     1       3.375  -6.765  24.285  0.00  0.00    +0.137 C 
BRANCH  36  37
ATOM     37  O   UNL     1       4.670  -7.363  24.140  0.00  0.00    -0.390 OA
ATOM     38  H   UNL     1       4.707  -7.760  23.251  0.00  0.00    +0.210 HD
ENDBRANCH  36  37
ENDBRANCH  31  36
ENDBRANCH  27  31
ENDBRANCH  24  28
ENDBRANCH  23  24
ENDBRANCH  22  23
ENDBRANCH   1  22
TORSDOF 11
ENDMDL
MODEL 2
REMARK VINA RESULT:      -7.0      2.101      3.173
REMARK  Name = 
REMARK  12 active torsions:
REMARK  status: ('A' for Active; 'I' for Inactive)
REMARK    1  A    between atoms: C_1  and  C_2
REMARK    2  A    between atoms: C_2  and  O_4
REMARK    3  A    between atoms: C_2  and  C_5
REMARK    4  A    between atoms: C_5  and  N_7
REMARK    5  A    between atoms: C_5  and  C_8
REMARK    6  A    between atoms: N_10  and  S_11
REMARK    7  A    between atoms: S_11  and  O_14
REMARK    8  A    between atoms: O_14  and  C_15
REMARK    9  A    between atoms: C_15  and  C_16
REMARK   10  A    between atoms: C_19  and  N_27
REMARK   11  A    between atoms: C_21  and  O_23
REMARK   12  A    between atoms: C_24  and  O_26
REMARK                            x       y       z     vdW  Elec       q    Type
REMARK                         _______ _______ _______ _____ _____    ______ ____
ROOT
ATOM      1  C   UNL     1       9.156  -1.854  24.971  0.00  0.00    +0.180 C 
ATOM      2  C   UNL     1       9.265  -2.617  23.650  0.00  0.00    +0.178 C 
ATOM      3  C   UNL     1       8.356  -1.865  22.662  0.00  0.00    +0.195 C 
ATOM      4  C   UNL     1       7.755  -0.733  23.504  0.00  0.00    +0.253 C 
ATOM      5  O   UNL     1       8.675  -0.548  24.604  0.00  0.00    -0.346 OA
ENDROOT
BRANCH   4   6
ATOM      6  N   UNL     1       7.544   0.556  22.878  0.00  0.00    -0.286 N 
ATOM      7  C   UNL     1       6.656   1.538  23.226  0.00  0.00    +0.167 A 
ATOM      8  N   UNL     1       5.655   1.488  24.124  0.00  0.00    -0.216 NA
ATOM      9  C   UNL     1       4.995   2.673  24.166  0.00  0.00    +0.225 A 
ATOM     10  N   UNL     1       5.243   3.808  23.474  0.00  0.00    -0.219 NA
ATOM     11  C   UNL     1       6.284   3.816  22.615  0.00  0.00    +0.147 A 
ATOM     12  N   UNL     1       6.589   4.986  21.931  0.00  0.00    -0.341 N 
ATOM     13  H   UNL     1       7.171   4.842  21.114  0.00  0.00    +0.144 HD
ATOM     14  H   UNL     1       5.809   5.625  21.858  0.00  0.00    +0.144 HD
ATOM     15  C   UNL     1       7.018   2.632  22.447  0.00  0.00    +0.147 A 
ATOM     16  N   UNL     1       8.084   2.331  21.632  0.00  0.00    -0.231 NA
ATOM     17  C   UNL     1       8.385   1.089  21.927  0.00  0.00    +0.203 A 
ENDBRANCH   4   6
BRANCH   2  18
ATOM     18  O   UNL     1      10.623  -2.553  23.172  0.00  0.00    -0.386 OA
ATOM     19  H   UNL     1      10.840  -3.396  22.736  0.00  0.00    +0.210 HD
ENDBRANCH   2  18
BRANCH   3  20
ATOM     20  O   UNL     1       7.338  -2.735  22.163  0.00  0.00    -0.385 OA
ATOM     21  H   UNL     1       7.716  -3.638  22.159  0.00  0.00    +0.210 HD
ENDBRANCH   3  20
BRANCH   1  22
ATOM     22  C   UNL     1       8.182  -2.455  25.992  0.00  0.00    +0.229 C 
BRANCH  22  23
ATOM     23  O   UNL     1       8.329  -3.860  26.096  0.00  0.00    -0.220 OA
BRANCH  23  24
ATOM     24  S   UNL     1       7.054  -4.678  26.688  0.00  0.00    +0.169 S 
ATOM     25  O   UNL     1       7.567  -5.676  27.606  0.00  0.00    -0.126 OA
ATOM     26  O   UNL     1       6.058  -3.728  27.122  0.00  0.00    -0.126 OA
BRANCH  24  28
ATOM     27  C   UNL     1       5.768  -4.932  24.334  0.00  0.00    +0.253 C 
ATOM     28  N   UNL     1       6.448  -5.506  25.412  0.00  0.00    -0.164 N 
ATOM     29  H   UNL     1       6.482  -6.523  25.474  0.00  0.00    +0.179 HD
ATOM     30  O   UNL     1       5.628  -3.726  24.194  0.00  0.00    -0.272 OA
BRANCH  27  31
ATOM     31  C   UNL     1       5.281  -5.946  23.293  0.00  0.00    +0.168 C 
BRANCH  31  32
ATOM     32  N   UNL     1       4.750  -7.182  23.944  0.00  0.00    -0.318 NA
ATOM     33  H   UNL     1       3.966  -7.524  23.383  0.00  0.00    +0.119 HD
ATOM     34  H   UNL     1       5.483  -7.891  23.827  0.00  0.00    +0.119 HD
ENDBRANCH  31  32
BRANCH  31  36
ATOM     35  C   UNL     1       6.172  -5.766  20.873  0.00  0.00    +0.040 C 
ATOM     36  C   UNL     1       6.429  -6.241  22.303  0.00  0.00    +0.137 C 
BRANCH  36  37
ATOM     37  O   UNL     1       7.616  -5.600  22.787  0.00  0.00    -0.390 OA
ATOM     38  H   UNL     1       8.356  -5.905  22.232  0.00  0.00    +0.210 HD
ENDBRANCH  36  37
ENDBRANCH  31  36
ENDBRANCH  27  31
ENDBRANCH  24  28
ENDBRANCH  23  24
ENDBRANCH  22  23
ENDBRANCH   1  22
TORSDOF 11
ENDMDL
MODEL 3
REMARK VINA RESULT:      -7.0      1.659      2.162
REMARK  Name = 
REMARK  12 active torsions:
REMARK  status: ('A' for Active; 'I' for Inactive)
REMARK    1  A    between atoms: C_1  and  C_2
REMARK    2  A    between atoms: C_2  and  O_4
REMARK    3  A    between atoms: C_2  and  C_5
REMARK    4  A    between atoms: C_5  and  N_7
REMARK    5  A    between atoms: C_5  and  C_8
REMARK    6  A    between atoms: N_10  and  S_11
REMARK    7  A    between atoms: S_11  and  O_14
REMARK    8  A    between atoms: O_14  and  C_15
REMARK    9  A    between atoms: C_15  and  C_16
REMARK   10  A    between atoms: C_19  and  N_27
REMARK   11  A    between atoms: C_21  and  O_23
REMARK   12  A    between atoms: C_24  and  O_26
REMARK                            x       y       z     vdW  Elec       q    Type
REMARK                         _______ _______ _______ _____ _____    ______ ____
ROOT
ATOM      1  C   UNL     1       8.379  -4.483  26.701  0.00  0.00    +0.180 C 
ATOM      2  C   UNL     1       8.860  -5.166  25.419  0.00  0.00    +0.178 C 
ATOM      3  C   UNL     1       8.876  -4.065  24.345  0.00  0.00    +0.195 C 
ATOM      4  C   UNL     1       8.364  -2.823  25.083  0.00  0.00    +0.253 C 
ATOM      5  O   UNL     1       8.620  -3.080  26.483  0.00  0.00    -0.346 OA
ENDROOT
BRANCH   4   6
ATOM      6  N   UNL     1       8.942  -1.536  24.755  0.00  0.00    -0.286 N 
ATOM      7  C   UNL     1       9.123  -0.971  23.521  0.00  0.00    +0.167 A 
ATOM      8  N   UNL     1       8.962  -1.530  22.308  0.00  0.00    -0.216 NA
ATOM      9  C   UNL     1       9.254  -0.636  21.330  0.00  0.00    +0.225 A 
ATOM     10  N   UNL     1       9.631   0.658  21.448  0.00  0.00    -0.219 NA
ATOM     11  C   UNL     1       9.739   1.180  22.688  0.00  0.00    +0.147 A 
ATOM     12  N   UNL     1      10.074   2.520  22.831  0.00  0.00    -0.341 N 
ATOM     13  H   UNL     1      10.417   2.759  23.755  0.00  0.00    +0.144 HD
ATOM     14  H   UNL     1      10.553   2.904  22.028  0.00  0.00    +0.144 HD
ATOM     15  C   UNL     1       9.507   0.339  23.787  0.00  0.00    +0.147 A 
ATOM     16  N   UNL     1       9.578   0.572  25.140  0.00  0.00    -0.231 NA
ATOM     17  C   UNL     1       9.217  -0.563  25.690  0.00  0.00    +0.203 A 
ENDBRANCH   4   6
BRANCH   2  18
ATOM     18  O   UNL     1      10.205  -5.647  25.611  0.00  0.00    -0.386 OA
ATOM     19  H   UNL     1      10.198  -6.620  25.562  0.00  0.00    +0.210 HD
ENDBRANCH   2  18
BRANCH   3  20
ATOM     20  O   UNL     1       8.013  -4.416  23.261  0.00  0.00    -0.385 OA
ATOM     21  H   UNL     1       7.100  -4.405  23.614  0.00  0.00    +0.210 HD
ENDBRANCH   3  20
BRANCH   1  22
ATOM     22  C   UNL     1       6.891  -4.671  27.021  0.00  0.00    +0.229 C 
BRANCH  22  23
ATOM     23  O   UNL     1       6.511  -6.035  26.976  0.00  0.00    -0.220 OA
BRANCH  23  24
ATOM     24  S   UNL     1       5.384  -6.507  28.049  0.00  0.00    +0.169 S 
ATOM     25  O   UNL     1       5.924  -7.638  28.777  0.00  0.00    -0.126 OA
ATOM     26  O   UNL     1       4.903  -5.344  28.754  0.00  0.00    -0.126 OA
BRANCH  24  28
ATOM     27  C   UNL     1       3.385  -6.348  26.249  0.00  0.00    +0.253 C 
ATOM     28  N   UNL     1       4.154  -7.099  27.142  0.00  0.00    -0.164 N 
ATOM     29  H   UNL     1       3.871  -8.059  27.333  0.00  0.00    +0.179 HD
ATOM     30  O   UNL     1       3.610  -5.176  25.989  0.00  0.00    -0.272 OA
BRANCH  27  31
ATOM     31  C   UNL     1       2.278  -7.149  25.554  0.00  0.00    +0.168 C 
BRANCH  31  32
ATOM     32  N   UNL     1       1.875  -8.337  26.367  0.00  0.00    -0.318 NA
ATOM     33  H   UNL     1       2.695  -8.657  26.888  0.00  0.00    +0.119 HD
ATOM     34  H   UNL     1       1.236  -7.976  27.084  0.00  0.00    +0.119 HD
ENDBRANCH  31  32
BRANCH  31  36
ATOM     35  C   UNL     1       2.295  -6.572  23.034  0.00  0.00    +0.040 C 
ATOM     36  C   UNL     1       2.748  -7.532  24.134  0.00  0.00    +0.137 C 
BRANCH  36  37
ATOM     37  O   UNL     1       4.182  -7.578  24.133  0.00  0.00    -0.390 OA
ATOM     38  H   UNL     1       4.456  -8.035  24.948  0.00  0.00    +0.210 HD
ENDBRANCH  36  37
ENDBRANCH  31  36
ENDBRANCH  27  31
ENDBRANCH  24  28
ENDBRANCH  23  24
ENDBRANCH  22  23
ENDBRANCH   1  22
TORSDOF 11
ENDMDL
MODEL 4
REMARK VINA RESULT:      -6.9      2.537      8.174
REMARK  Name = 
REMARK  12 active torsions:
REMARK  status: ('A' for Active; 'I' for Inactive)
REMARK    1  A    between atoms: C_1  and  C_2
REMARK    2  A    between atoms: C_2  and  O_4
REMARK    3  A    between atoms: C_2  and  C_5
REMARK    4  A    between atoms: C_5  and  N_7
REMARK    5  A    between atoms: C_5  and  C_8
REMARK    6  A    between atoms: N_10  and  S_11
REMARK    7  A    between atoms: S_11  and  O_14
REMARK    8  A    between atoms: O_14  and  C_15
REMARK    9  A    between atoms: C_15  and  C_16
REMARK   10  A    between atoms: C_19  and  N_27
REMARK   11  A    between atoms: C_21  and  O_23
REMARK   12  A    between atoms: C_24  and  O_26
REMARK                            x       y       z     vdW  Elec       q    Type
REMARK                         _______ _______ _______ _____ _____    ______ ____
ROOT
ATOM      1  C   UNL     1       5.949  -3.780  22.207  0.00  0.00    +0.180 C 
ATOM      2  C   UNL     1       7.112  -4.760  22.041  0.00  0.00    +0.178 C 
ATOM      3  C   UNL     1       7.247  -5.474  23.397  0.00  0.00    +0.195 C 
ATOM      4  C   UNL     1       6.166  -4.822  24.266  0.00  0.00    +0.253 C 
ATOM      5  O   UNL     1       5.203  -4.280  23.332  0.00  0.00    -0.346 OA
ENDROOT
BRANCH   4   6
ATOM      6  N   UNL     1       5.448  -5.649  25.214  0.00  0.00    -0.286 N 
ATOM      7  C   UNL     1       5.802  -5.987  26.492  0.00  0.00    +0.167 A 
ATOM      8  N   UNL     1       6.970  -5.772  27.126  0.00  0.00    -0.216 NA
ATOM      9  C   UNL     1       6.925  -6.272  28.387  0.00  0.00    +0.225 A 
ATOM     10  N   UNL     1       5.899  -6.884  29.021  0.00  0.00    -0.219 NA
ATOM     11  C   UNL     1       4.737  -7.038  28.352  0.00  0.00    +0.147 A 
ATOM     12  N   UNL     1       3.654  -7.618  29.000  0.00  0.00    -0.341 N 
ATOM     13  H   UNL     1       2.937  -7.962  28.372  0.00  0.00    +0.144 HD
ATOM     14  H   UNL     1       3.918  -8.195  29.788  0.00  0.00    +0.144 HD
ATOM     15  C   UNL     1       4.673  -6.604  27.019  0.00  0.00    +0.147 A 
ATOM     16  N   UNL     1       3.659  -6.662  26.092  0.00  0.00    -0.231 NA
ATOM     17  C   UNL     1       4.149  -6.067  25.030  0.00  0.00    +0.203 A 
ENDBRANCH   4   6
BRANCH   2  18
ATOM     18  O   UNL     1       6.775  -5.735  21.035  0.00  0.00    -0.386 OA
ATOM     19  H   UNL     1       6.082  -6.321  21.389  0.00  0.00    +0.210 HD
ENDBRANCH   2  18
BRANCH   3  20
ATOM     20  O   UNL     1       8.550  -5.259  23.944  0.00  0.00    -0.385 OA
ATOM     21  H   UNL     1       8.517  -4.407  24.424  0.00  0.00    +0.210 HD
ENDBRANCH   3  20
BRANCH   1  22
ATOM     22  C   UNL     1       6.356  -2.331  22.505  0.00  0.00    +0.229 C 
BRANCH  22  23
ATOM     23  O   UNL     1       7.727  -2.103  22.235  0.00  0.00    -0.220 OA
BRANCH  23  24
ATOM     24  S   UNL     1       8.649  -1.659  23.499  0.00  0.00    +0.169 S 
ATOM     25  O   UNL     1       7.781  -1.560  24.655  0.00  0.00    -0.126 OA
ATOM     26  O   UNL     1       9.821  -2.501  23.533  0.00  0.00    -0.126 OA
BRANCH  24  28
ATOM     27  C   UNL     1       8.276   0.970  23.044  0.00  0.00    +0.253 C 
ATOM     28  N   UNL     1       9.130  -0.130  23.161  0.00  0.00    -0.164 N 
ATOM     29  H   UNL     1      10.111  -0.008  22.915  0.00  0.00    +0.179 HD
ATOM     30  O   UNL     1       7.076   0.916  23.268  0.00  0.00    -0.272 OA
BRANCH  27  31
ATOM     31  C   UNL     1       8.991   2.279  22.690  0.00  0.00    +0.168 C 
BRANCH  31  32
ATOM     32  N   UNL     1      10.015   2.067  21.622  0.00  0.00    -0.318 NA
ATOM     33  H   UNL     1       9.738   1.247  21.077  0.00  0.00    +0.119 HD
ATOM     34  H   UNL     1       9.906   2.857  20.976  0.00  0.00    +0.119 HD
ENDBRANCH  31  32
BRANCH  31  36
ATOM     35  C   UNL     1       9.076   4.288  24.315  0.00  0.00    +0.040 C 
ATOM     36  C   UNL     1       9.591   2.889  23.976  0.00  0.00    +0.137 C 
BRANCH  36  37
ATOM     37  O   UNL     1       9.286   2.016  25.072  0.00  0.00    -0.390 OA
ATOM     38  H   UNL     1       8.551   1.444  24.789  0.00  0.00    +0.210 HD
ENDBRANCH  36  37
ENDBRANCH  31  36
ENDBRANCH  27  31
ENDBRANCH  24  28
ENDBRANCH  23  24
ENDBRANCH  22  23
ENDBRANCH   1  22
TORSDOF 11
ENDMDL
MODEL 5
REMARK VINA RESULT:      -6.7      4.267      8.016
REMARK  Name = 
REMARK  12 active torsions:
REMARK  status: ('A' for Active; 'I' for Inactive)
REMARK    1  A    between atoms: C_1  and  C_2
REMARK    2  A    between atoms: C_2  and  O_4
REMARK    3  A    between atoms: C_2  and  C_5
REMARK    4  A    between atoms: C_5  and  N_7
REMARK    5  A    between atoms: C_5  and  C_8
REMARK    6  A    between atoms: N_10  and  S_11
REMARK    7  A    between atoms: S_11  and  O_14
REMARK    8  A    between atoms: O_14  and  C_15
REMARK    9  A    between atoms: C_15  and  C_16
REMARK   10  A    between atoms: C_19  and  N_27
REMARK   11  A    between atoms: C_21  and  O_23
REMARK   12  A    between atoms: C_24  and  O_26
REMARK                            x       y       z     vdW  Elec       q    Type
REMARK                         _______ _______ _______ _____ _____    ______ ____
ROOT
ATOM      1  C   UNL     1       9.889  -0.102  25.513  0.00  0.00    +0.180 C 
ATOM      2  C   UNL     1       8.469   0.361  25.845  0.00  0.00    +0.178 C 
ATOM      3  C   UNL     1       7.539  -0.511  24.984  0.00  0.00    +0.195 C 
ATOM      4  C   UNL     1       8.500  -1.397  24.184  0.00  0.00    +0.253 C 
ATOM      5  O   UNL     1       9.726  -1.418  24.951  0.00  0.00    -0.346 OA
ENDROOT
BRANCH   4   6
ATOM      6  N   UNL     1       8.118  -2.769  23.919  0.00  0.00    -0.286 N 
ATOM      7  C   UNL     1       7.178  -3.240  23.043  0.00  0.00    +0.167 A 
ATOM      8  N   UNL     1       6.267  -2.547  22.334  0.00  0.00    -0.216 NA
ATOM      9  C   UNL     1       5.507  -3.387  21.588  0.00  0.00    +0.225 A 
ATOM     10  N   UNL     1       5.590  -4.733  21.476  0.00  0.00    -0.219 NA
ATOM     11  C   UNL     1       6.547  -5.374  22.178  0.00  0.00    +0.147 A 
ATOM     12  N   UNL     1       6.683  -6.748  22.039  0.00  0.00    -0.341 N 
ATOM     13  H   UNL     1       7.204  -7.186  22.791  0.00  0.00    +0.144 HD
ATOM     14  H   UNL     1       5.845  -7.205  21.707  0.00  0.00    +0.144 HD
ATOM     15  C   UNL     1       7.369  -4.616  23.027  0.00  0.00    +0.147 A 
ATOM     16  N   UNL     1       8.383  -4.988  23.878  0.00  0.00    -0.231 NA
ATOM     17  C   UNL     1       8.822  -3.858  24.381  0.00  0.00    +0.203 A 
ENDBRANCH   4   6
BRANCH   2  18
ATOM     18  O   UNL     1       8.195   0.100  27.235  0.00  0.00    -0.386 OA
ATOM     19  H   UNL     1       8.500  -0.800  27.449  0.00  0.00    +0.210 HD
ENDBRANCH   2  18
BRANCH   3  20
ATOM     20  O   UNL     1       6.749   0.309  24.119  0.00  0.00    -0.385 OA
ATOM     21  H   UNL     1       7.037   1.232  24.267  0.00  0.00    +0.210 HD
ENDBRANCH   3  20
BRANCH   1  22
ATOM     22  C   UNL     1      10.636   0.767  24.494  0.00  0.00    +0.229 C 
BRANCH  22  23
ATOM     23  O   UNL     1      10.114   2.083  24.441  0.00  0.00    -0.220 OA
BRANCH  23  24
ATOM     24  S   UNL     1      10.376   2.909  23.065  0.00  0.00    +0.169 S 
ATOM     25  O   UNL     1      11.418   3.880  23.333  0.00  0.00    -0.126 OA
ATOM     26  O   UNL     1      10.515   1.967  21.981  0.00  0.00    -0.126 OA
BRANCH  24  28
ATOM     27  C   UNL     1       7.795   3.240  22.365  0.00  0.00    +0.253 C 
ATOM     28  N   UNL     1       9.006   3.772  22.819  0.00  0.00    -0.164 N 
ATOM     29  H   UNL     1       9.086   4.784  22.903  0.00  0.00    +0.179 HD
ATOM     30  O   UNL     1       7.612   2.046  22.184  0.00  0.00    -0.272 OA
BRANCH  27  31
ATOM     31  C   UNL     1       6.683   4.281  22.194  0.00  0.00    +0.168 C 
BRANCH  31  32
ATOM     32  N   UNL     1       7.231   5.591  21.727  0.00  0.00    -0.318 NA
ATOM     33  H   UNL     1       6.784   5.822  20.837  0.00  0.00    +0.119 HD
ATOM     34  H   UNL     1       6.874   6.290  22.387  0.00  0.00    +0.119 HD
ENDBRANCH  31  32
BRANCH  31  36
ATOM     35  C   UNL     1       4.379   4.457  23.354  0.00  0.00    +0.040 C 
ATOM     36  C   UNL     1       5.899   4.404  23.518  0.00  0.00    +0.137 C 
BRANCH  36  37
ATOM     37  O   UNL     1       6.226   3.275  24.340  0.00  0.00    -0.390 OA
ATOM     38  H   UNL     1       5.645   2.542  24.068  0.00  0.00    +0.210 HD
ENDBRANCH  36  37
ENDBRANCH  31  36
ENDBRANCH  27  31
ENDBRANCH  24  28
ENDBRANCH  23  24
ENDBRANCH  22  23
ENDBRANCH   1  22
TORSDOF 11
ENDMDL
MODEL 6
REMARK VINA RESULT:      -6.7      3.482      8.350
REMARK  Name = 
REMARK  12 active torsions:
REMARK  status: ('A' for Active; 'I' for Inactive)
REMARK    1  A    between atoms: C_1  and  C_2
REMARK    2  A    between atoms: C_2  and  O_4
REMARK    3  A    between atoms: C_2  and  C_5
REMARK    4  A    between atoms: C_5  and  N_7
REMARK    5  A    between atoms: C_5  and  C_8
REMARK    6  A    between atoms: N_10  and  S_11
REMARK    7  A    between atoms: S_11  and  O_14
REMARK    8  A    between atoms: O_14  and  C_15
REMARK    9  A    between atoms: C_15  and  C_16
REMARK   10  A    between atoms: C_19  and  N_27
REMARK   11  A    between atoms: C_21  and  O_23
REMARK   12  A    between atoms: C_24  and  O_26
REMARK                            x       y       z     vdW  Elec       q    Type
REMARK                         _______ _______ _______ _____ _____    ______ ____
ROOT
ATOM      1  C   UNL     1       9.342  -3.205  24.376  0.00  0.00    +0.180 C 
ATOM      2  C   UNL     1       9.577  -4.263  25.455  0.00  0.00    +0.178 C 
ATOM      3  C   UNL     1       8.215  -4.944  25.669  0.00  0.00    +0.195 C 
ATOM      4  C   UNL     1       7.276  -4.199  24.714  0.00  0.00    +0.253 C 
ATOM      5  O   UNL     1       8.138  -3.622  23.706  0.00  0.00    -0.346 OA
ENDROOT
BRANCH   4   6
ATOM      6  N   UNL     1       6.239  -4.950  24.036  0.00  0.00    -0.286 N 
ATOM      7  C   UNL     1       5.341  -5.836  24.567  0.00  0.00    +0.167 A 
ATOM      8  N   UNL     1       5.301  -6.350  25.810  0.00  0.00    -0.216 NA
ATOM      9  C   UNL     1       4.256  -7.206  25.936  0.00  0.00    +0.225 A 
ATOM     10  N   UNL     1       3.317  -7.540  25.021  0.00  0.00    -0.219 NA
ATOM     11  C   UNL     1       3.381  -6.964  23.802  0.00  0.00    +0.147 A 
ATOM     12  N   UNL     1       2.399  -7.253  22.865  0.00  0.00    -0.341 N 
ATOM     13  H   UNL     1       2.664  -7.030  21.912  0.00  0.00    +0.144 HD
ATOM     14  H   UNL     1       1.922  -8.128  23.037  0.00  0.00    +0.144 HD
ATOM     15  C   UNL     1       4.448  -6.094  23.533  0.00  0.00    +0.147 A 
ATOM     16  N   UNL     1       4.792  -5.403  22.395  0.00  0.00    -0.231 NA
ATOM     17  C   UNL     1       5.856  -4.715  22.735  0.00  0.00    +0.203 A 
ENDBRANCH   4   6
BRANCH   2  18
ATOM     18  O   UNL     1      10.515  -5.242  24.967  0.00  0.00    -0.386 OA
ATOM     19  H   UNL     1      10.929  -5.683  25.730  0.00  0.00    +0.210 HD
ENDBRANCH   2  18
BRANCH   3  20
ATOM     20  O   UNL     1       7.794  -4.798  27.027  0.00  0.00    -0.385 OA
ATOM     21  H   UNL     1       7.094  -4.115  27.033  0.00  0.00    +0.210 HD
ENDBRANCH   3  20
BRANCH   1  22
ATOM     22  C   UNL     1       9.132  -1.778  24.896  0.00  0.00    +0.229 C 
BRANCH  22  23
ATOM     23  O   UNL     1       8.751  -0.890  23.861  0.00  0.00    -0.220 OA
BRANCH  23  24
ATOM     24  S   UNL     1       9.812   0.286  23.489  0.00  0.00    +0.169 S 
ATOM     25  O   UNL     1      10.973   0.106  24.337  0.00  0.00    -0.126 OA
ATOM     26  O   UNL     1       9.954   0.342  22.054  0.00  0.00    -0.126 OA
BRANCH  24  28
ATOM     27  C   UNL     1       9.700   2.937  23.959  0.00  0.00    +0.253 C 
ATOM     28  N   UNL     1       9.100   1.675  23.986  0.00  0.00    -0.164 N 
ATOM     29  H   UNL     1       8.194   1.582  24.444  0.00  0.00    +0.179 HD
ATOM     30  O   UNL     1      10.804   3.146  23.478  0.00  0.00    -0.272 OA
BRANCH  27  31
ATOM     31  C   UNL     1       8.816   4.060  24.513  0.00  0.00    +0.168 C 
BRANCH  31  32
ATOM     32  N   UNL     1       7.902   3.555  25.583  0.00  0.00    -0.318 NA
ATOM     33  H   UNL     1       7.963   2.533  25.594  0.00  0.00    +0.119 HD
ATOM     34  H   UNL     1       8.326   3.850  26.469  0.00  0.00    +0.119 HD
ENDBRANCH  31  32
BRANCH  31  36
ATOM     35  C   UNL     1       8.475   6.163  23.049  0.00  0.00    +0.040 C 
ATOM     36  C   UNL     1       8.054   4.724  23.345  0.00  0.00    +0.137 C 
BRANCH  36  37
ATOM     37  O   UNL     1       8.268   3.938  22.165  0.00  0.00    -0.390 OA
ATOM     38  H   UNL     1       7.406   3.567  21.905  0.00  0.00    +0.210 HD
ENDBRANCH  36  37
ENDBRANCH  31  36
ENDBRANCH  27  31
ENDBRANCH  24  28
ENDBRANCH  23  24
ENDBRANCH  22  23
ENDBRANCH   1  22
TORSDOF 11
ENDMDL
MODEL 7
REMARK VINA RESULT:      -6.6      2.896      7.704
REMARK  Name = 
REMARK  12 active torsions:
REMARK  status: ('A' for Active; 'I' for Inactive)
REMARK    1  A    between atoms: C_1  and  C_2
REMARK    2  A    between atoms: C_2  and  O_4
REMARK    3  A    between atoms: C_2  and  C_5
REMARK    4  A    between atoms: C_5  and  N_7
REMARK    5  A    between atoms: C_5  and  C_8
REMARK    6  A    between atoms: N_10  and  S_11
REMARK    7  A    between atoms: S_11  and  O_14
REMARK    8  A    between atoms: O_14  and  C_15
REMARK    9  A    between atoms: C_15  and  C_16
REMARK   10  A    between atoms: C_19  and  N_27
REMARK   11  A    between atoms: C_21  and  O_23
REMARK   12  A    between atoms: C_24  and  O_26
REMARK                            x       y       z     vdW  Elec       q    Type
REMARK                         _______ _______ _______ _____ _____    ______ ____
ROOT
ATOM      1  C   UNL     1       7.202  -2.616  22.721  0.00  0.00    +0.180 C 
ATOM      2  C   UNL     1       6.842  -3.847  21.887  0.00  0.00    +0.178 C 
ATOM      3  C   UNL     1       6.992  -5.047  22.838  0.00  0.00    +0.195 C 
ATOM      4  C   UNL     1       7.466  -4.419  24.153  0.00  0.00    +0.253 C 
ATOM      5  O   UNL     1       7.044  -3.037  24.088  0.00  0.00    -0.346 OA
ENDROOT
BRANCH   4   6
ATOM      6  N   UNL     1       6.982  -4.974  25.400  0.00  0.00    -0.286 N 
ATOM      7  C   UNL     1       5.746  -5.491  25.682  0.00  0.00    +0.167 A 
ATOM      8  N   UNL     1       4.632  -5.466  24.927  0.00  0.00    -0.216 NA
ATOM      9  C   UNL     1       3.608  -6.081  25.571  0.00  0.00    +0.225 A 
ATOM     10  N   UNL     1       3.609  -6.689  26.780  0.00  0.00    -0.219 NA
ATOM     11  C   UNL     1       4.764  -6.720  27.477  0.00  0.00    +0.147 A 
ATOM     12  N   UNL     1       4.800  -7.383  28.697  0.00  0.00    -0.341 N 
ATOM     13  H   UNL     1       5.586  -7.121  29.282  0.00  0.00    +0.144 HD
ATOM     14  H   UNL     1       3.892  -7.481  29.130  0.00  0.00    +0.144 HD
ATOM     15  C   UNL     1       5.886  -6.074  26.936  0.00  0.00    +0.147 A 
ATOM     16  N   UNL     1       7.161  -5.908  27.423  0.00  0.00    -0.231 NA
ATOM     17  C   UNL     1       7.795  -5.262  26.473  0.00  0.00    +0.203 A 
ENDBRANCH   4   6
BRANCH   2  18
ATOM     18  O   UNL     1       5.466  -3.755  21.470  0.00  0.00    -0.386 OA
ATOM     19  H   UNL     1       5.401  -4.048  20.543  0.00  0.00    +0.210 HD
ENDBRANCH   2  18
BRANCH   3  20
ATOM     20  O   UNL     1       7.957  -5.969  22.327  0.00  0.00    -0.385 OA
ATOM     21  H   UNL     1       7.572  -6.863  22.425  0.00  0.00    +0.210 HD
ENDBRANCH   3  20
BRANCH   1  22
ATOM     22  C   UNL     1       8.635  -2.102  22.538  0.00  0.00    +0.229 C 
BRANCH  22  23
ATOM     23  O   UNL     1       9.305  -1.959  23.778  0.00  0.00    -0.220 OA
BRANCH  23  24
ATOM     24  S   UNL     1       9.663  -0.440  24.236  0.00  0.00    +0.169 S 
ATOM     25  O   UNL     1       9.624  -0.403  25.684  0.00  0.00    -0.126 OA
ATOM     26  O   UNL     1      10.843  -0.010  23.524  0.00  0.00    -0.126 OA
BRANCH  24  28
ATOM     27  C   UNL     1       8.235   1.831  23.987  0.00  0.00    +0.253 C 
ATOM     28  N   UNL     1       8.399   0.468  23.725  0.00  0.00    -0.164 N 
ATOM     29  H   UNL     1       7.633  -0.033  23.278  0.00  0.00    +0.179 HD
ATOM     30  O   UNL     1       9.073   2.510  24.561  0.00  0.00    -0.272 OA
BRANCH  27  31
ATOM     31  C   UNL     1       6.943   2.425  23.415  0.00  0.00    +0.168 C 
BRANCH  31  32
ATOM     32  N   UNL     1       5.899   1.371  23.224  0.00  0.00    -0.318 NA
ATOM     33  H   UNL     1       6.311   0.469  23.474  0.00  0.00    +0.119 HD
ATOM     34  H   UNL     1       5.196   1.546  23.950  0.00  0.00    +0.119 HD
ENDBRANCH  31  32
BRANCH  31  36
ATOM     35  C   UNL     1       7.280   4.703  22.240  0.00  0.00    +0.040 C 
ATOM     36  C   UNL     1       7.271   3.180  22.108  0.00  0.00    +0.137 C 
BRANCH  36  37
ATOM     37  O   UNL     1       8.565   2.757  21.657  0.00  0.00    -0.390 OA
ATOM     38  H   UNL     1       8.611   2.938  20.702  0.00  0.00    +0.210 HD
ENDBRANCH  36  37
ENDBRANCH  31  36
ENDBRANCH  27  31
ENDBRANCH  24  28
ENDBRANCH  23  24
ENDBRANCH  22  23
ENDBRANCH   1  22
TORSDOF 11
ENDMDL
MODEL 8
REMARK VINA RESULT:      -6.5      3.290      6.671
REMARK  Name = 
REMARK  12 active torsions:
REMARK  status: ('A' for Active; 'I' for Inactive)
REMARK    1  A    between atoms: C_1  and  C_2
REMARK    2  A    between atoms: C_2  and  O_4
REMARK    3  A    between atoms: C_2  and  C_5
REMARK    4  A    between atoms: C_5  and  N_7
REMARK    5  A    between atoms: C_5  and  C_8
REMARK    6  A    between atoms: N_10  and  S_11
REMARK    7  A    between atoms: S_11  and  O_14
REMARK    8  A    between atoms: O_14  and  C_15
REMARK    9  A    between atoms: C_15  and  C_16
REMARK   10  A    between atoms: C_19  and  N_27
REMARK   11  A    between atoms: C_21  and  O_23
REMARK   12  A    between atoms: C_24  and  O_26
REMARK                            x       y       z     vdW  Elec       q    Type
REMARK                         _______ _______ _______ _____ _____    ______ ____
ROOT
ATOM      1  C   UNL     1       8.704  -0.311  26.330  0.00  0.00    +0.180 C 
ATOM      2  C   UNL     1       7.469   0.265  27.023  0.00  0.00    +0.178 C 
ATOM      3  C   UNL     1       6.469  -0.900  27.120  0.00  0.00    +0.195 C 
ATOM      4  C   UNL     1       7.193  -2.065  26.437  0.00  0.00    +0.253 C 
ATOM      5  O   UNL     1       8.599  -1.736  26.512  0.00  0.00    -0.346 OA
ENDROOT
BRANCH   4   6
ATOM      6  N   UNL     1       7.020  -3.399  26.975  0.00  0.00    -0.286 N 
ATOM      7  C   UNL     1       5.874  -3.995  27.428  0.00  0.00    +0.167 A 
ATOM      8  N   UNL     1       4.664  -3.442  27.637  0.00  0.00    -0.216 NA
ATOM      9  C   UNL     1       3.792  -4.371  28.103  0.00  0.00    +0.225 A 
ATOM     10  N   UNL     1       3.996  -5.689  28.330  0.00  0.00    -0.219 NA
ATOM     11  C   UNL     1       5.217  -6.200  28.066  0.00  0.00    +0.147 A 
ATOM     12  N   UNL     1       5.435  -7.559  28.242  0.00  0.00    -0.341 N 
ATOM     13  H   UNL     1       6.414  -7.812  28.310  0.00  0.00    +0.144 HD
ATOM     14  H   UNL     1       4.783  -7.993  28.883  0.00  0.00    +0.144 HD
ATOM     15  C   UNL     1       6.222  -5.326  27.622  0.00  0.00    +0.147 A 
ATOM     16  N   UNL     1       7.545  -5.545  27.316  0.00  0.00    -0.231 NA
ATOM     17  C   UNL     1       7.988  -4.376  26.915  0.00  0.00    +0.203 A 
ENDBRANCH   4   6
BRANCH   2  18
ATOM     18  O   UNL     1       7.822   0.685  28.355  0.00  0.00    -0.386 OA
ATOM     19  H   UNL     1       7.005   0.834  28.863  0.00  0.00    +0.210 HD
ENDBRANCH   2  18
BRANCH   3  20
ATOM     20  O   UNL     1       5.256  -0.572  26.438  0.00  0.00    -0.385 OA
ATOM     21  H   UNL     1       4.588  -0.384  27.128  0.00  0.00    +0.210 HD
ENDBRANCH   3  20
BRANCH   1  22
ATOM     22  C   UNL     1       8.800  -0.025  24.826  0.00  0.00    +0.229 C 
BRANCH  22  23
ATOM     23  O   UNL     1       9.736  -0.874  24.187  0.00  0.00    -0.220 OA
BRANCH  23  24
ATOM     24  S   UNL     1       9.439  -1.237  22.629  0.00  0.00    +0.169 S 
ATOM     25  O   UNL     1       8.985  -0.023  21.980  0.00  0.00    -0.126 OA
ATOM     26  O   UNL     1      10.564  -1.971  22.104  0.00  0.00    -0.126 OA
BRANCH  24  28
ATOM     27  C   UNL     1       8.130  -3.506  23.259  0.00  0.00    +0.253 C 
ATOM     28  N   UNL     1       8.145  -2.241  22.665  0.00  0.00    -0.164 N 
ATOM     29  H   UNL     1       7.334  -1.956  22.118  0.00  0.00    +0.179 HD
ATOM     30  O   UNL     1       9.069  -3.962  23.893  0.00  0.00    -0.272 OA
BRANCH  27  31
ATOM     31  C   UNL     1       6.794  -4.245  23.118  0.00  0.00    +0.168 C 
BRANCH  31  32
ATOM     32  N   UNL     1       6.759  -5.472  23.971  0.00  0.00    -0.318 NA
ATOM     33  H   UNL     1       6.505  -5.190  24.921  0.00  0.00    +0.119 HD
ATOM     34  H   UNL     1       5.956  -6.016  23.638  0.00  0.00    +0.119 HD
ENDBRANCH  31  32
BRANCH  31  36
ATOM     35  C   UNL     1       6.004  -5.956  21.348  0.00  0.00    +0.040 C 
ATOM     36  C   UNL     1       6.544  -4.552  21.625  0.00  0.00    +0.137 C 
BRANCH  36  37
ATOM     37  O   UNL     1       5.600  -3.597  21.122  0.00  0.00    -0.390 OA
ATOM     38  H   UNL     1       6.110  -2.840  20.782  0.00  0.00    +0.210 HD
ENDBRANCH  36  37
ENDBRANCH  31  36
ENDBRANCH  27  31
ENDBRANCH  24  28
ENDBRANCH  23  24
ENDBRANCH  22  23
ENDBRANCH   1  22
TORSDOF 11
ENDMDL
MODEL 9
REMARK VINA RESULT:      -6.5      2.518      3.548
REMARK  Name = 
REMARK  12 active torsions:
REMARK  status: ('A' for Active; 'I' for Inactive)
REMARK    1  A    between atoms: C_1  and  C_2
REMARK    2  A    between atoms: C_2  and  O_4
REMARK    3  A    between atoms: C_2  and  C_5
REMARK    4  A    between atoms: C_5  and  N_7
REMARK    5  A    between atoms: C_5  and  C_8
REMARK    6  A    between atoms: N_10  and  S_11
REMARK    7  A    between atoms: S_11  and  O_14
REMARK    8  A    between atoms: O_14  and  C_15
REMARK    9  A    between atoms: C_15  and  C_16
REMARK   10  A    between atoms: C_19  and  N_27
REMARK   11  A    between atoms: C_21  and  O_23
REMARK   12  A    between atoms: C_24  and  O_26
REMARK                            x       y       z     vdW  Elec       q    Type
REMARK                         _______ _______ _______ _____ _____    ______ ____
ROOT
ATOM      1  C   UNL     1       8.298  -2.166  24.002  0.00  0.00    +0.180 C 
ATOM      2  C   UNL     1       6.893  -1.625  24.272  0.00  0.00    +0.178 C 
ATOM      3  C   UNL     1       7.079  -0.129  24.581  0.00  0.00    +0.195 C 
ATOM      4  C   UNL     1       8.596   0.078  24.502  0.00  0.00    +0.253 C 
ATOM      5  O   UNL     1       9.085  -1.005  23.677  0.00  0.00    -0.346 OA
ENDROOT
BRANCH   4   6
ATOM      6  N   UNL     1       9.097   1.319  23.949  0.00  0.00    -0.286 N 
ATOM      7  C   UNL     1       8.913   2.595  24.410  0.00  0.00    +0.167 A 
ATOM      8  N   UNL     1       8.095   3.026  25.388  0.00  0.00    -0.216 NA
ATOM      9  C   UNL     1       8.197   4.371  25.533  0.00  0.00    +0.225 A 
ATOM     10  N   UNL     1       8.994   5.239  24.869  0.00  0.00    -0.219 NA
ATOM     11  C   UNL     1       9.824   4.748  23.925  0.00  0.00    +0.147 A 
ATOM     12  N   UNL     1      10.687   5.612  23.266  0.00  0.00    -0.341 N 
ATOM     13  H   UNL     1      11.054   5.241  22.397  0.00  0.00    +0.144 HD
ATOM     14  H   UNL     1      10.384   6.577  23.285  0.00  0.00    +0.144 HD
ATOM     15  C   UNL     1       9.777   3.373  23.648  0.00  0.00    +0.147 A 
ATOM     16  N   UNL     1      10.461   2.607  22.733  0.00  0.00    -0.231 NA
ATOM     17  C   UNL     1      10.045   1.382  22.952  0.00  0.00    +0.203 A 
ENDBRANCH   4   6
BRANCH   2  18
ATOM     18  O   UNL     1       6.094  -1.756  23.080  0.00  0.00    -0.386 OA
ATOM     19  H   UNL     1       5.165  -1.574  23.306  0.00  0.00    +0.210 HD
ENDBRANCH   2  18
BRANCH   3  20
ATOM     20  O   UNL     1       6.583   0.174  25.887  0.00  0.00    -0.385 OA
ATOM     21  H   UNL     1       7.364   0.294  26.464  0.00  0.00    +0.210 HD
ENDBRANCH   3  20
BRANCH   1  22
ATOM     22  C   UNL     1       8.961  -2.878  25.188  0.00  0.00    +0.229 C 
BRANCH  22  23
ATOM     23  O   UNL     1       8.007  -3.512  26.022  0.00  0.00    -0.220 OA
BRANCH  23  24
ATOM     24  S   UNL     1       7.848  -5.121  25.846  0.00  0.00    +0.169 S 
ATOM     25  O   UNL     1       9.002  -5.593  25.107  0.00  0.00    -0.126 OA
ATOM     26  O   UNL     1       7.517  -5.694  27.129  0.00  0.00    -0.126 OA
BRANCH  24  28
ATOM     27  C   UNL     1       6.630  -5.385  23.457  0.00  0.00    +0.253 C 
ATOM     28  N   UNL     1       6.562  -5.317  24.852  0.00  0.00    -0.164 N 
ATOM     29  H   UNL     1       5.642  -5.278  25.288  0.00  0.00    +0.179 HD
ATOM     30  O   UNL     1       7.682  -5.387  22.836  0.00  0.00    -0.272 OA
BRANCH  27  31
ATOM     31  C   UNL     1       5.268  -5.540  22.773  0.00  0.00    +0.168 C 
BRANCH  31  32
ATOM     32  N   UNL     1       4.810  -4.250  22.174  0.00  0.00    -0.318 NA
ATOM     33  H   UNL     1       3.939  -3.977  22.636  0.00  0.00    +0.119 HD
ATOM     34  H   UNL     1       5.495  -3.548  22.476  0.00  0.00    +0.119 HD
ENDBRANCH  31  32
BRANCH  31  36
ATOM     35  C   UNL     1       2.790  -5.931  23.398  0.00  0.00    +0.040 C 
ATOM     36  C   UNL     1       4.257  -6.115  23.789  0.00  0.00    +0.137 C 
BRANCH  36  37
ATOM     37  O   UNL     1       4.513  -7.519  23.934  0.00  0.00    -0.390 OA
ATOM     38  H   UNL     1       5.362  -7.610  24.402  0.00  0.00    +0.210 HD
ENDBRANCH  36  37
ENDBRANCH  31  36
ENDBRANCH  27  31
ENDBRANCH  24  28
ENDBRANCH  23  24
ENDBRANCH  22  23
ENDBRANCH   1  22
TORSDOF 11
ENDMDL
