MODEL 1
REMARK VINA RESULT:      -7.4      0.000      0.000
REMARK  Name = 
REMARK  16 active torsions:
REMARK  status: ('A' for Active; 'I' for Inactive)
REMARK    1  A    between atoms: N_10  and  C_11
REMARK    2  A    between atoms: C_11  and  C_12
REMARK    3  A    between atoms: C_12  and  O_14
REMARK    4  A    between atoms: C_12  and  C_15
REMARK    5  A    between atoms: C_15  and  C_17
REMARK    6  A    between atoms: C_15  and  N_25
REMARK    7  A    between atoms: C_17  and  S_18
REMARK    8  A    between atoms: S_18  and  C_19
REMARK    9  A    between atoms: C_26  and  C_28
REMARK   10  A    between atoms: C_29  and  C_30
REMARK   11  A    between atoms: C_31  and  O_32
REMARK   12  A    between atoms: C_36  and  C_39
REMARK   13  A    between atoms: N_41  and  C_42
REMARK   14  A    between atoms: C_42  and  C_43
REMARK   15  A    between atoms: C_42  and  C_44
REMARK   16  A    between atoms: C_42  and  C_45
REMARK                            x       y       z     vdW  Elec       q    Type
REMARK                         _______ _______ _______ _____ _____    ______ ____
ROOT
ATOM      1  C   UNL     1       9.227  -4.262  24.509  0.00  0.00    +0.149 C 
ENDROOT
BRANCH   1   2
ATOM      2  O   UNL     1      10.124  -5.217  25.110  0.00  0.00    -0.389 OA
ATOM      3  H   UNL     1       9.896  -5.231  26.053  0.00  0.00    +0.210 HD
ENDBRANCH   1   2
BRANCH   1   4
ATOM      4  C   UNL     1       9.198  -2.921  25.317  0.00  0.00    +0.118 C 
BRANCH   4   8
ATOM      5  C   UNL     1      10.448   0.617  23.214  0.00  0.00    -0.005 C 
ATOM      6  C   UNL     1      10.259   0.648  24.736  0.00  0.00    +0.032 C 
ATOM      7  C   UNL     1       9.418  -0.466  25.389  0.00  0.00    +0.143 C 
ATOM      8  N   UNL     1       8.986  -1.637  24.602  0.00  0.00    -0.289 NA
ATOM      9  C   UNL     1       9.528  -1.700  23.242  0.00  0.00    +0.089 C 
ATOM     10  C   UNL     1       9.518  -0.357  22.491  0.00  0.00    +0.006 C 
ATOM     11  C   UNL     1       8.101   0.186  22.247  0.00  0.00    +0.005 C 
ATOM     12  C   UNL     1       8.063   1.631  21.754  0.00  0.00    +0.000 C 
ATOM     13  C   UNL     1       8.962   2.560  22.561  0.00  0.00    +0.000 C 
ATOM     14  C   UNL     1      10.388   2.027  22.615  0.00  0.00    +0.004 C 
BRANCH   7  15
ATOM     15  C   UNL     1       8.165   0.186  26.056  0.00  0.00    +0.231 C 
ATOM     16  N   UNL     1       8.111   1.560  25.884  0.00  0.00    -0.309 N 
ATOM     17  H   UNL     1       9.022   1.989  25.767  0.00  0.00    +0.149 HD
ATOM     18  O   UNL     1       7.290  -0.446  26.641  0.00  0.00    -0.274 OA
BRANCH  16  19
ATOM     19  C   UNL     1       7.062   2.429  26.437  0.00  0.00    +0.026 C 
ATOM     20  C   UNL     1       5.700   2.165  25.775  0.00  0.00    +0.031 C 
ATOM     21  C   UNL     1       7.473   3.882  26.142  0.00  0.00    +0.031 C 
ATOM     22  C   UNL     1       6.942   2.263  27.957  0.00  0.00    +0.031 C 
ENDBRANCH  16  19
ENDBRANCH   7  15
ENDBRANCH   4   8
ENDBRANCH   1   4
BRANCH   1  23
ATOM     23  C   UNL     1       7.831  -4.895  24.269  0.00  0.00    +0.113 C 
BRANCH  23  24
ATOM     24  N   UNL     1       6.827  -4.505  25.268  0.00  0.00    -0.305 N 
ATOM     25  H   UNL     1       6.055  -3.944  24.937  0.00  0.00    +0.149 HD
ATOM     26  C   UNL     1       6.768  -5.049  26.535  0.00  0.00    +0.245 C 
ATOM     27  O   UNL     1       7.533  -5.911  26.957  0.00  0.00    -0.270 OA
BRANCH  26  28
ATOM     28  C   UNL     1       5.662  -4.583  27.400  0.00  0.00    +0.043 A 
ATOM     29  C   UNL     1       5.327  -3.216  27.355  0.00  0.00    +0.013 A 
ATOM     30  C   UNL     1       4.329  -2.712  28.182  0.00  0.00    +0.004 A 
ATOM     31  C   UNL     1       3.688  -3.559  29.078  0.00  0.00    +0.046 A 
ATOM     32  C   UNL     1       4.039  -4.909  29.138  0.00  0.00    +0.120 A 
ATOM     33  C   UNL     1       5.005  -5.465  28.287  0.00  0.00    +0.003 A 
ATOM     34  C   UNL     1       5.290  -6.942  28.348  0.00  0.00    +0.048 C 
BRANCH  32  35
ATOM     35  O   UNL     1       3.383  -5.648  30.085  0.00  0.00    -0.506 OA
ATOM     36  H   UNL     1       2.479  -5.310  30.184  0.00  0.00    +0.292 HD
ENDBRANCH  32  35
ENDBRANCH  26  28
ENDBRANCH  23  24
BRANCH  23  37
ATOM     37  C   UNL     1       7.324  -4.729  22.806  0.00  0.00    +0.099 C 
BRANCH  37  38
ATOM     38  S   UNL     1       6.129  -5.992  22.234  0.00  0.00    -0.123 S 
BRANCH  38  39
ATOM     39  C   UNL     1       4.736  -5.801  23.322  0.00  0.00    +0.008 A 
ATOM     40  C   UNL     1       3.994  -4.625  23.437  0.00  0.00    +0.015 A 
ATOM     41  C   UNL     1       2.996  -4.514  24.409  0.00  0.00    +0.001 A 
ATOM     42  C   UNL     1       2.733  -5.578  25.272  0.00  0.00    +0.000 A 
ATOM     43  C   UNL     1       3.460  -6.759  25.158  0.00  0.00    +0.001 A 
ATOM     44  C   UNL     1       4.457  -6.868  24.187  0.00  0.00    +0.015 A 
ENDBRANCH  38  39
ENDBRANCH  37  38
ENDBRANCH  23  37
ENDBRANCH   1  23
TORSDOF 12
ENDMDL
MODEL 2
REMARK VINA RESULT:      -7.3      2.112      7.512
REMARK  Name = 
REMARK  16 active torsions:
REMARK  status: ('A' for Active; 'I' for Inactive)
REMARK    1  A    between atoms: N_10  and  C_11
REMARK    2  A    between atoms: C_11  and  C_12
REMARK    3  A    between atoms: C_12  and  O_14
REMARK    4  A    between atoms: C_12  and  C_15
REMARK    5  A    between atoms: C_15  and  C_17
REMARK    6  A    between atoms: C_15  and  N_25
REMARK    7  A    between atoms: C_17  and  S_18
REMARK    8  A    between atoms: S_18  and  C_19
REMARK    9  A    between atoms: C_26  and  C_28
REMARK   10  A    between atoms: C_29  and  C_30
REMARK   11  A    between atoms: C_31  and  O_32
REMARK   12  A    between atoms: C_36  and  C_39
REMARK   13  A    between atoms: N_41  and  C_42
REMARK   14  A    between atoms: C_42  and  C_43
REMARK   15  A    between atoms: C_42  and  C_44
REMARK   16  A    between atoms: C_42  and  C_45
REMARK                            x       y       z     vdW  Elec       q    Type
REMARK                         _______ _______ _______ _____ _____    ______ ____
ROOT
ATOM      1  C   UNL     1       8.652  -4.408  26.567  0.00  0.00    +0.149 C 
ENDROOT
BRANCH   1   2
ATOM      2  O   UNL     1       9.955  -5.005  26.413  0.00  0.00    -0.389 OA
ATOM      3  H   UNL     1       9.989  -5.728  27.058  0.00  0.00    +0.210 HD
ENDBRANCH   1   2
BRANCH   1   4
ATOM      4  C   UNL     1       7.597  -5.460  27.048  0.00  0.00    +0.118 C 
BRANCH   4   8
ATOM      5  C   UNL     1       3.576  -5.331  28.569  0.00  0.00    -0.005 C 
ATOM      6  C   UNL     1       4.034  -6.503  27.693  0.00  0.00    +0.032 C 
ATOM      7  C   UNL     1       5.296  -6.318  26.828  0.00  0.00    +0.143 C 
ATOM      8  N   UNL     1       6.151  -5.128  26.997  0.00  0.00    -0.289 NA
ATOM      9  C   UNL     1       5.776  -4.252  28.111  0.00  0.00    +0.089 C 
ATOM     10  C   UNL     1       4.264  -4.005  28.243  0.00  0.00    +0.006 C 
ATOM     11  C   UNL     1       3.666  -3.262  27.038  0.00  0.00    +0.005 C 
ATOM     12  C   UNL     1       2.139  -3.244  27.011  0.00  0.00    +0.000 C 
ATOM     13  C   UNL     1       1.521  -4.611  27.277  0.00  0.00    +0.000 C 
ATOM     14  C   UNL     1       2.049  -5.203  28.578  0.00  0.00    +0.004 C 
BRANCH   7  15
ATOM     15  C   UNL     1       4.888  -6.439  25.324  0.00  0.00    +0.231 C 
ATOM     16  N   UNL     1       5.148  -5.289  24.596  0.00  0.00    -0.309 N 
ATOM     17  H   UNL     1       5.135  -4.444  25.157  0.00  0.00    +0.149 HD
ATOM     18  O   UNL     1       4.421  -7.456  24.819  0.00  0.00    -0.274 OA
BRANCH  16  19
ATOM     19  C   UNL     1       4.831  -5.115  23.172  0.00  0.00    +0.026 C 
ATOM     20  C   UNL     1       5.749  -5.964  22.278  0.00  0.00    +0.031 C 
ATOM     21  C   UNL     1       5.058  -3.631  22.833  0.00  0.00    +0.031 C 
ATOM     22  C   UNL     1       3.364  -5.454  22.880  0.00  0.00    +0.031 C 
ENDBRANCH  16  19
ENDBRANCH   7  15
ENDBRANCH   4   8
ENDBRANCH   1   4
BRANCH   1  23
ATOM     23  C   UNL     1       8.247  -3.636  25.283  0.00  0.00    +0.113 C 
BRANCH  23  24
ATOM     24  N   UNL     1       7.252  -2.581  25.519  0.00  0.00    -0.305 N 
ATOM     25  H   UNL     1       6.302  -2.787  25.243  0.00  0.00    +0.149 HD
ATOM     26  C   UNL     1       7.502  -1.462  26.288  0.00  0.00    +0.245 C 
ATOM     27  O   UNL     1       8.565  -1.234  26.856  0.00  0.00    -0.270 OA
BRANCH  26  28
ATOM     28  C   UNL     1       6.373  -0.523  26.467  0.00  0.00    +0.043 A 
ATOM     29  C   UNL     1       5.747  -0.484  27.728  0.00  0.00    +0.013 A 
ATOM     30  C   UNL     1       4.649   0.343  27.940  0.00  0.00    +0.004 A 
ATOM     31  C   UNL     1       4.152   1.104  26.890  0.00  0.00    +0.046 A 
ATOM     32  C   UNL     1       4.759   1.046  25.634  0.00  0.00    +0.120 A 
ATOM     33  C   UNL     1       5.897   0.262  25.394  0.00  0.00    +0.003 A 
ATOM     34  C   UNL     1       6.550   0.295  24.037  0.00  0.00    +0.048 C 
BRANCH  32  35
ATOM     35  O   UNL     1       4.165   1.797  24.656  0.00  0.00    -0.506 OA
ATOM     36  H   UNL     1       3.750   1.206  24.007  0.00  0.00    +0.292 HD
ENDBRANCH  32  35
ENDBRANCH  26  28
ENDBRANCH  23  24
BRANCH  23  37
ATOM     37  C   UNL     1       9.468  -3.140  24.453  0.00  0.00    +0.099 C 
BRANCH  37  38
ATOM     38  S   UNL     1       9.069  -2.357  22.848  0.00  0.00    -0.123 S 
BRANCH  38  39
ATOM     39  C   UNL     1       9.722  -0.709  22.989  0.00  0.00    +0.008 A 
ATOM     40  C   UNL     1      10.256  -0.184  24.166  0.00  0.00    +0.015 A 
ATOM     41  C   UNL     1      10.630   1.161  24.231  0.00  0.00    +0.001 A 
ATOM     42  C   UNL     1      10.471   1.990  23.120  0.00  0.00    +0.000 A 
ATOM     43  C   UNL     1       9.950   1.472  21.938  0.00  0.00    +0.001 A 
ATOM     44  C   UNL     1       9.577   0.129  21.875  0.00  0.00    +0.015 A 
ENDBRANCH  38  39
ENDBRANCH  37  38
ENDBRANCH  23  37
ENDBRANCH   1  23
TORSDOF 12
ENDMDL
MODEL 3
REMARK VINA RESULT:      -7.0      2.898      7.796
REMARK  Name = 
REMARK  16 active torsions:
REMARK  status: ('A' for Active; 'I' for Inactive)
REMARK    1  A    between atoms: N_10  and  C_11
REMARK    2  A    between atoms: C_11  and  C_12
REMARK    3  A    between atoms: C_12  and  O_14
REMARK    4  A    between atoms: C_12  and  C_15
REMARK    5  A    between atoms: C_15  and  C_17
REMARK    6  A    between atoms: C_15  and  N_25
REMARK    7  A    between atoms: C_17  and  S_18
REMARK    8  A    between atoms: S_18  and  C_19
REMARK    9  A    between atoms: C_26  and  C_28
REMARK   10  A    between atoms: C_29  and  C_30
REMARK   11  A    between atoms: C_31  and  O_32
REMARK   12  A    between atoms: C_36  and  C_39
REMARK   13  A    between atoms: N_41  and  C_42
REMARK   14  A    between atoms: C_42  and  C_43
REMARK   15  A    between atoms: C_42  and  C_44
REMARK   16  A    between atoms: C_42  and  C_45
REMARK                            x       y       z     vdW  Elec       q    Type
REMARK                         _______ _______ _______ _____ _____    ______ ____
ROOT
ATOM      1  C   UNL     1       9.278   0.417  23.236  0.00  0.00    +0.149 C 
ENDROOT
BRANCH   1   2
ATOM      2  O   UNL     1       9.715   0.007  21.925  0.00  0.00    -0.389 OA
ATOM      3  H   UNL     1       8.903  -0.129  21.410  0.00  0.00    +0.210 HD
ENDBRANCH   1   2
BRANCH   1   4
ATOM      4  C   UNL     1       9.767  -0.582  24.338  0.00  0.00    +0.118 C 
BRANCH   4   8
ATOM      5  C   UNL     1       8.779  -4.170  26.495  0.00  0.00    -0.005 C 
ATOM      6  C   UNL     1       9.251  -4.249  25.038  0.00  0.00    +0.032 C 
ATOM      7  C   UNL     1       9.180  -2.972  24.178  0.00  0.00    +0.143 C 
ATOM      8  N   UNL     1       8.866  -1.670  24.796  0.00  0.00    -0.289 NA
ATOM      9  C   UNL     1       8.770  -1.688  26.258  0.00  0.00    +0.089 C 
ATOM     10  C   UNL     1       8.006  -2.894  26.830  0.00  0.00    +0.006 C 
ATOM     11  C   UNL     1       6.527  -2.924  26.412  0.00  0.00    +0.005 C 
ATOM     12  C   UNL     1       5.814  -4.236  26.732  0.00  0.00    +0.000 C 
ATOM     13  C   UNL     1       6.611  -5.465  26.310  0.00  0.00    +0.000 C 
ATOM     14  C   UNL     1       8.014  -5.434  26.903  0.00  0.00    +0.004 C 
BRANCH   7  15
ATOM     15  C   UNL     1       8.189  -3.225  22.997  0.00  0.00    +0.231 C 
ATOM     16  N   UNL     1       7.300  -4.258  23.246  0.00  0.00    -0.309 N 
ATOM     17  H   UNL     1       7.658  -4.954  23.889  0.00  0.00    +0.149 HD
ATOM     18  O   UNL     1       8.164  -2.558  21.966  0.00  0.00    -0.274 OA
BRANCH  16  19
ATOM     19  C   UNL     1       6.285  -4.731  22.294  0.00  0.00    +0.026 C 
ATOM     20  C   UNL     1       5.623  -3.565  21.543  0.00  0.00    +0.031 C 
ATOM     21  C   UNL     1       5.202  -5.461  23.109  0.00  0.00    +0.031 C 
ATOM     22  C   UNL     1       6.881  -5.724  21.289  0.00  0.00    +0.031 C 
ENDBRANCH  16  19
ENDBRANCH   7  15
ENDBRANCH   4   8
ENDBRANCH   1   4
BRANCH   1  23
ATOM     23  C   UNL     1       7.749   0.684  23.246  0.00  0.00    +0.113 C 
BRANCH  23  24
ATOM     24  N   UNL     1       7.233   1.105  24.556  0.00  0.00    -0.305 N 
ATOM     25  H   UNL     1       7.631   1.946  24.949  0.00  0.00    +0.149 HD
ATOM     26  C   UNL     1       6.107   0.558  25.138  0.00  0.00    +0.245 C 
ATOM     27  O   UNL     1       5.420  -0.321  24.628  0.00  0.00    -0.270 OA
BRANCH  26  28
ATOM     28  C   UNL     1       5.694   1.134  26.437  0.00  0.00    +0.043 A 
ATOM     29  C   UNL     1       6.353   0.678  27.594  0.00  0.00    +0.013 A 
ATOM     30  C   UNL     1       5.972   1.146  28.847  0.00  0.00    +0.004 A 
ATOM     31  C   UNL     1       4.914   2.040  28.953  0.00  0.00    +0.046 A 
ATOM     32  C   UNL     1       4.246   2.472  27.805  0.00  0.00    +0.120 A 
ATOM     33  C   UNL     1       4.632   2.061  26.521  0.00  0.00    +0.003 A 
ATOM     34  C   UNL     1       3.919   2.616  25.316  0.00  0.00    +0.048 C 
BRANCH  32  35
ATOM     35  O   UNL     1       3.189   3.315  28.019  0.00  0.00    -0.506 OA
ATOM     36  H   UNL     1       2.616   2.939  28.707  0.00  0.00    +0.292 HD
ENDBRANCH  32  35
ENDBRANCH  26  28
ENDBRANCH  23  24
BRANCH  23  37
ATOM     37  C   UNL     1       7.279   1.611  22.086  0.00  0.00    +0.099 C 
BRANCH  37  38
ATOM     38  S   UNL     1       6.329   3.092  22.590  0.00  0.00    -0.123 S 
BRANCH  38  39
ATOM     39  C   UNL     1       7.571   4.325  22.899  0.00  0.00    +0.008 A 
ATOM     40  C   UNL     1       8.690   4.116  23.707  0.00  0.00    +0.015 A 
ATOM     41  C   UNL     1       9.552   5.175  24.005  0.00  0.00    +0.001 A 
ATOM     42  C   UNL     1       9.300   6.450  23.499  0.00  0.00    +0.000 A 
ATOM     43  C   UNL     1       8.193   6.666  22.683  0.00  0.00    +0.001 A 
ATOM     44  C   UNL     1       7.333   5.608  22.387  0.00  0.00    +0.015 A 
ENDBRANCH  38  39
ENDBRANCH  37  38
ENDBRANCH  23  37
ENDBRANCH   1  23
TORSDOF 12
ENDMDL
MODEL 4
REMARK VINA RESULT:      -6.9      2.353      5.575
REMARK  Name = 
REMARK  16 active torsions:
REMARK  status: ('A' for Active; 'I' for Inactive)
REMARK    1  A    between atoms: N_10  and  C_11
REMARK    2  A    between atoms: C_11  and  C_12
REMARK    3  A    between atoms: C_12  and  O_14
REMARK    4  A    between atoms: C_12  and  C_15
REMARK    5  A    between atoms: C_15  and  C_17
REMARK    6  A    between atoms: C_15  and  N_25
REMARK    7  A    between atoms: C_17  and  S_18
REMARK    8  A    between atoms: S_18  and  C_19
REMARK    9  A    between atoms: C_26  and  C_28
REMARK   10  A    between atoms: C_29  and  C_30
REMARK   11  A    between atoms: C_31  and  O_32
REMARK   12  A    between atoms: C_36  and  C_39
REMARK   13  A    between atoms: N_41  and  C_42
REMARK   14  A    between atoms: C_42  and  C_43
REMARK   15  A    between atoms: C_42  and  C_44
REMARK   16  A    between atoms: C_42  and  C_45
REMARK                            x       y       z     vdW  Elec       q    Type
REMARK                         _______ _______ _______ _____ _____    ______ ____
ROOT
ATOM      1  C   UNL     1       6.487  -0.267  24.581  0.00  0.00    +0.149 C 
ENDROOT
BRANCH   1   2
ATOM      2  O   UNL     1       5.103  -0.402  24.960  0.00  0.00    -0.389 OA
ATOM      3  H   UNL     1       5.027   0.028  25.826  0.00  0.00    +0.210 HD
ENDBRANCH   1   2
BRANCH   1   4
ATOM      4  C   UNL     1       6.691   0.919  23.580  0.00  0.00    +0.118 C 
BRANCH   4   8
ATOM      5  C   UNL     1       8.133   4.906  24.311  0.00  0.00    -0.005 C 
ATOM      6  C   UNL     1       8.275   3.822  25.387  0.00  0.00    +0.032 C 
ATOM      7  C   UNL     1       7.391   2.565  25.278  0.00  0.00    +0.143 C 
ATOM      8  N   UNL     1       6.586   2.318  24.066  0.00  0.00    -0.289 NA
ATOM      9  C   UNL     1       6.809   3.270  22.974  0.00  0.00    +0.089 C 
ATOM     10  C   UNL     1       6.901   4.739  23.420  0.00  0.00    +0.006 C 
ATOM     11  C   UNL     1       5.597   5.264  24.041  0.00  0.00    +0.005 C 
ATOM     12  C   UNL     1       5.736   6.617  24.736  0.00  0.00    +0.000 C 
ATOM     13  C   UNL     1       6.946   6.691  25.660  0.00  0.00    +0.000 C 
ATOM     14  C   UNL     1       8.221   6.310  24.918  0.00  0.00    +0.004 C 
BRANCH   7  15
ATOM     15  C   UNL     1       6.455   2.508  26.528  0.00  0.00    +0.231 C 
ATOM     16  N   UNL     1       7.148   2.529  27.727  0.00  0.00    -0.309 N 
ATOM     17  H   UNL     1       8.084   2.148  27.660  0.00  0.00    +0.149 HD
ATOM     18  O   UNL     1       5.229   2.487  26.468  0.00  0.00    -0.274 OA
BRANCH  16  19
ATOM     19  C   UNL     1       6.521   2.450  29.054  0.00  0.00    +0.026 C 
ATOM     20  C   UNL     1       5.750   3.735  29.395  0.00  0.00    +0.031 C 
ATOM     21  C   UNL     1       7.652   2.275  30.083  0.00  0.00    +0.031 C 
ATOM     22  C   UNL     1       5.585   1.240  29.159  0.00  0.00    +0.031 C 
ENDBRANCH  16  19
ENDBRANCH   7  15
ENDBRANCH   4   8
ENDBRANCH   1   4
BRANCH   1  23
ATOM     23  C   UNL     1       7.057  -1.625  24.089  0.00  0.00    +0.113 C 
BRANCH  23  24
ATOM     24  N   UNL     1       6.278  -2.787  24.538  0.00  0.00    -0.305 N 
ATOM     25  H   UNL     1       5.274  -2.678  24.557  0.00  0.00    +0.149 HD
ATOM     26  C   UNL     1       6.821  -4.046  24.697  0.00  0.00    +0.245 C 
ATOM     27  O   UNL     1       7.994  -4.329  24.477  0.00  0.00    -0.270 OA
BRANCH  26  28
ATOM     28  C   UNL     1       5.886  -5.118  25.105  0.00  0.00    +0.043 A 
ATOM     29  C   UNL     1       5.784  -5.411  26.478  0.00  0.00    +0.013 A 
ATOM     30  C   UNL     1       4.959  -6.441  26.915  0.00  0.00    +0.004 A 
ATOM     31  C   UNL     1       4.262  -7.203  25.986  0.00  0.00    +0.046 A 
ATOM     32  C   UNL     1       4.383  -6.926  24.622  0.00  0.00    +0.120 A 
ATOM     33  C   UNL     1       5.166  -5.865  24.145  0.00  0.00    +0.003 A 
ATOM     34  C   UNL     1       5.201  -5.570  22.669  0.00  0.00    +0.048 C 
BRANCH  32  35
ATOM     35  O   UNL     1       3.694  -7.762  23.786  0.00  0.00    -0.506 OA
ATOM     36  H   UNL     1       4.242  -7.960  23.010  0.00  0.00    +0.292 HD
ENDBRANCH  32  35
ENDBRANCH  26  28
ENDBRANCH  23  24
BRANCH  23  37
ATOM     37  C   UNL     1       7.354  -1.649  22.560  0.00  0.00    +0.099 C 
BRANCH  37  38
ATOM     38  S   UNL     1       9.119  -1.797  22.099  0.00  0.00    -0.123 S 
BRANCH  38  39
ATOM     39  C   UNL     1       9.845  -0.272  22.654  0.00  0.00    +0.008 A 
ATOM     40  C   UNL     1      10.383  -0.085  23.928  0.00  0.00    +0.015 A 
ATOM     41  C   UNL     1      10.817   1.180  24.331  0.00  0.00    +0.001 A 
ATOM     42  C   UNL     1      10.716   2.268  23.463  0.00  0.00    +0.000 A 
ATOM     43  C   UNL     1      10.192   2.089  22.186  0.00  0.00    +0.001 A 
ATOM     44  C   UNL     1       9.758   0.825  21.786  0.00  0.00    +0.015 A 
ENDBRANCH  38  39
ENDBRANCH  37  38
ENDBRANCH  23  37
ENDBRANCH   1  23
TORSDOF 12
ENDMDL
MODEL 5
REMARK VINA RESULT:      -6.9      2.915      6.255
REMARK  Name = 
REMARK  16 active torsions:
REMARK  status: ('A' for Active; 'I' for Inactive)
REMARK    1  A    between atoms: N_10  and  C_11
REMARK    2  A    between atoms: C_11  and  C_12
REMARK    3  A    between atoms: C_12  and  O_14
REMARK    4  A    between atoms: C_12  and  C_15
REMARK    5  A    between atoms: C_15  and  C_17
REMARK    6  A    between atoms: C_15  and  N_25
REMARK    7  A    between atoms: C_17  and  S_18
REMARK    8  A    between atoms: S_18  and  C_19
REMARK    9  A    between atoms: C_26  and  C_28
REMARK   10  A    between atoms: C_29  and  C_30
REMARK   11  A    between atoms: C_31  and  O_32
REMARK   12  A    between atoms: C_36  and  C_39
REMARK   13  A    between atoms: N_41  and  C_42
REMARK   14  A    between atoms: C_42  and  C_43
REMARK   15  A    between atoms: C_42  and  C_44
REMARK   16  A    between atoms: C_42  and  C_45
REMARK                            x       y       z     vdW  Elec       q    Type
REMARK                         _______ _______ _______ _____ _____    ______ ____
ROOT
ATOM      1  C   UNL     1       5.881  -0.081  25.966  0.00  0.00    +0.149 C 
ENDROOT
BRANCH   1   2
ATOM      2  O   UNL     1       5.306  -0.000  24.647  0.00  0.00    -0.389 OA
ATOM      3  H   UNL     1       4.550   0.602  24.729  0.00  0.00    +0.210 HD
ENDBRANCH   1   2
BRANCH   1   4
ATOM      4  C   UNL     1       6.455   1.302  26.423  0.00  0.00    +0.118 C 
BRANCH   4   8
ATOM      5  C   UNL     1       7.219   5.362  25.224  0.00  0.00    -0.005 C 
ATOM      6  C   UNL     1       5.852   4.969  25.798  0.00  0.00    +0.032 C 
ATOM      7  C   UNL     1       5.467   3.477  25.810  0.00  0.00    +0.143 C 
ATOM      8  N   UNL     1       6.465   2.444  25.474  0.00  0.00    -0.289 NA
ATOM      9  C   UNL     1       7.828   2.944  25.273  0.00  0.00    +0.089 C 
ATOM     10  C   UNL     1       7.913   4.241  24.450  0.00  0.00    +0.006 C 
ATOM     11  C   UNL     1       7.419   4.071  23.004  0.00  0.00    +0.005 C 
ATOM     12  C   UNL     1       7.235   5.386  22.250  0.00  0.00    +0.000 C 
ATOM     13  C   UNL     1       6.477   6.435  23.054  0.00  0.00    +0.000 C 
ATOM     14  C   UNL     1       7.132   6.658  24.411  0.00  0.00    +0.004 C 
BRANCH   7  15
ATOM     15  C   UNL     1       4.210   3.282  24.902  0.00  0.00    +0.231 C 
ATOM     16  N   UNL     1       3.983   4.353  24.054  0.00  0.00    -0.309 N 
ATOM     17  H   UNL     1       4.336   5.234  24.410  0.00  0.00    +0.149 HD
ATOM     18  O   UNL     1       3.513   2.272  24.903  0.00  0.00    -0.274 OA
BRANCH  16  19
ATOM     19  C   UNL     1       2.852   4.451  23.120  0.00  0.00    +0.026 C 
ATOM     20  C   UNL     1       2.988   3.455  21.957  0.00  0.00    +0.031 C 
ATOM     21  C   UNL     1       2.860   5.877  22.542  0.00  0.00    +0.031 C 
ATOM     22  C   UNL     1       1.514   4.231  23.837  0.00  0.00    +0.031 C 
ENDBRANCH  16  19
ENDBRANCH   7  15
ENDBRANCH   4   8
ENDBRANCH   1   4
BRANCH   1  23
ATOM     23  C   UNL     1       6.894  -1.255  26.052  0.00  0.00    +0.113 C 
BRANCH  23  24
ATOM     24  N   UNL     1       6.648  -2.319  25.069  0.00  0.00    -0.305 N 
ATOM     25  H   UNL     1       6.601  -2.036  24.101  0.00  0.00    +0.149 HD
ATOM     26  C   UNL     1       6.716  -3.663  25.375  0.00  0.00    +0.245 C 
ATOM     27  O   UNL     1       6.993  -4.109  26.484  0.00  0.00    -0.270 OA
BRANCH  26  28
ATOM     28  C   UNL     1       6.493  -4.603  24.255  0.00  0.00    +0.043 A 
ATOM     29  C   UNL     1       7.607  -4.973  23.478  0.00  0.00    +0.013 A 
ATOM     30  C   UNL     1       7.448  -5.815  22.382  0.00  0.00    +0.004 A 
ATOM     31  C   UNL     1       6.178  -6.261  22.039  0.00  0.00    +0.046 A 
ATOM     32  C   UNL     1       5.071  -5.873  22.797  0.00  0.00    +0.120 A 
ATOM     33  C   UNL     1       5.196  -5.066  23.937  0.00  0.00    +0.003 A 
ATOM     34  C   UNL     1       3.975  -4.739  24.755  0.00  0.00    +0.048 C 
BRANCH  32  35
ATOM     35  O   UNL     1       3.860  -6.326  22.348  0.00  0.00    -0.506 OA
ATOM     36  H   UNL     1       3.274  -5.569  22.191  0.00  0.00    +0.292 HD
ENDBRANCH  32  35
ENDBRANCH  26  28
ENDBRANCH  23  24
BRANCH  23  37
ATOM     37  C   UNL     1       8.379  -0.784  26.075  0.00  0.00    +0.099 C 
BRANCH  37  38
ATOM     38  S   UNL     1       9.437  -1.437  24.732  0.00  0.00    -0.123 S 
BRANCH  38  39
ATOM     39  C   UNL     1       9.944   0.009  23.832  0.00  0.00    +0.008 A 
ATOM     40  C   UNL     1      10.729   1.027  24.374  0.00  0.00    +0.015 A 
ATOM     41  C   UNL     1      10.977   2.192  23.643  0.00  0.00    +0.001 A 
ATOM     42  C   UNL     1      10.440   2.347  22.365  0.00  0.00    +0.000 A 
ATOM     43  C   UNL     1       9.665   1.332  21.810  0.00  0.00    +0.001 A 
ATOM     44  C   UNL     1       9.419   0.170  22.542  0.00  0.00    +0.015 A 
ENDBRANCH  38  39
ENDBRANCH  37  38
ENDBRANCH  23  37
ENDBRANCH   1  23
TORSDOF 12
ENDMDL
MODEL 6
REMARK VINA RESULT:      -6.9      2.085      7.666
REMARK  Name = 
REMARK  16 active torsions:
REMARK  status: ('A' for Active; 'I' for Inactive)
REMARK    1  A    between atoms: N_10  and  C_11
REMARK    2  A    between atoms: C_11  and  C_12
REMARK    3  A    between atoms: C_12  and  O_14
REMARK    4  A    between atoms: C_12  and  C_15
REMARK    5  A    between atoms: C_15  and  C_17
REMARK    6  A    between atoms: C_15  and  N_25
REMARK    7  A    between atoms: C_17  and  S_18
REMARK    8  A    between atoms: S_18  and  C_19
REMARK    9  A    between atoms: C_26  and  C_28
REMARK   10  A    between atoms: C_29  and  C_30
REMARK   11  A    between atoms: C_31  and  O_32
REMARK   12  A    between atoms: C_36  and  C_39
REMARK   13  A    between atoms: N_41  and  C_42
REMARK   14  A    between atoms: C_42  and  C_43
REMARK   15  A    between atoms: C_42  and  C_44
REMARK   16  A    between atoms: C_42  and  C_45
REMARK                            x       y       z     vdW  Elec       q    Type
REMARK                         _______ _______ _______ _____ _____    ______ ____
ROOT
ATOM      1  C   UNL     1       8.771  -4.184  25.073  0.00  0.00    +0.149 C 
ENDROOT
BRANCH   1   2
ATOM      2  O   UNL     1      10.015  -4.875  24.838  0.00  0.00    -0.389 OA
ATOM      3  H   UNL     1       9.889  -5.365  24.010  0.00  0.00    +0.210 HD
ENDBRANCH   1   2
BRANCH   1   4
ATOM      4  C   UNL     1       7.545  -5.141  24.892  0.00  0.00    +0.118 C 
BRANCH   4   8
ATOM      5  C   UNL     1       5.170  -6.713  28.115  0.00  0.00    -0.005 C 
ATOM      6  C   UNL     1       4.768  -6.976  26.659  0.00  0.00    +0.032 C 
ATOM      7  C   UNL     1       5.362  -6.069  25.563  0.00  0.00    +0.143 C 
ATOM      8  N   UNL     1       6.441  -5.116  25.884  0.00  0.00    -0.289 NA
ATOM      9  C   UNL     1       6.963  -5.211  27.250  0.00  0.00    +0.089 C 
ATOM     10  C   UNL     1       5.882  -5.378  28.332  0.00  0.00    +0.006 C 
ATOM     11  C   UNL     1       4.939  -4.168  28.434  0.00  0.00    +0.005 C 
ATOM     12  C   UNL     1       3.704  -4.411  29.298  0.00  0.00    +0.000 C 
ATOM     13  C   UNL     1       3.005  -5.727  28.983  0.00  0.00    +0.000 C 
ATOM     14  C   UNL     1       3.981  -6.895  29.065  0.00  0.00    +0.004 C 
BRANCH   7  15
ATOM     15  C   UNL     1       4.192  -5.296  24.873  0.00  0.00    +0.231 C 
ATOM     16  N   UNL     1       2.944  -5.650  25.361  0.00  0.00    -0.309 N 
ATOM     17  H   UNL     1       2.907  -6.594  25.729  0.00  0.00    +0.149 HD
ATOM     18  O   UNL     1       4.351  -4.434  24.014  0.00  0.00    -0.274 OA
BRANCH  16  19
ATOM     19  C   UNL     1       1.671  -5.108  24.866  0.00  0.00    +0.026 C 
ATOM     20  C   UNL     1       1.558  -5.229  23.339  0.00  0.00    +0.031 C 
ATOM     21  C   UNL     1       1.637  -3.615  25.240  0.00  0.00    +0.031 C 
ATOM     22  C   UNL     1       0.473  -5.797  25.532  0.00  0.00    +0.031 C 
ENDBRANCH  16  19
ENDBRANCH   7  15
ENDBRANCH   4   8
ENDBRANCH   1   4
BRANCH   1  23
ATOM     23  C   UNL     1       8.699  -2.883  24.229  0.00  0.00    +0.113 C 
BRANCH  23  24
ATOM     24  N   UNL     1       7.943  -1.802  24.876  0.00  0.00    -0.305 N 
ATOM     25  H   UNL     1       8.346  -1.411  25.716  0.00  0.00    +0.149 HD
ATOM     26  C   UNL     1       6.877  -1.161  24.280  0.00  0.00    +0.245 C 
ATOM     27  O   UNL     1       6.453  -1.416  23.157  0.00  0.00    -0.270 OA
BRANCH  26  28
ATOM     28  C   UNL     1       6.260  -0.057  25.049  0.00  0.00    +0.043 A 
ATOM     29  C   UNL     1       6.798   1.234  24.887  0.00  0.00    +0.013 A 
ATOM     30  C   UNL     1       6.292   2.300  25.622  0.00  0.00    +0.004 A 
ATOM     31  C   UNL     1       5.275   2.078  26.542  0.00  0.00    +0.046 A 
ATOM     32  C   UNL     1       4.760   0.791  26.719  0.00  0.00    +0.120 A 
ATOM     33  C   UNL     1       5.210  -0.300  25.962  0.00  0.00    +0.003 A 
ATOM     34  C   UNL     1       4.567  -1.649  26.146  0.00  0.00    +0.048 C 
BRANCH  32  35
ATOM     35  O   UNL     1       3.795   0.669  27.682  0.00  0.00    -0.506 OA
ATOM     36  H   UNL     1       2.921   0.763  27.271  0.00  0.00    +0.292 HD
ENDBRANCH  32  35
ENDBRANCH  26  28
ENDBRANCH  23  24
BRANCH  23  37
ATOM     37  C   UNL     1      10.087  -2.417  23.697  0.00  0.00    +0.099 C 
BRANCH  37  38
ATOM     38  S   UNL     1      10.063  -1.519  22.103  0.00  0.00    -0.123 S 
BRANCH  38  39
ATOM     39  C   UNL     1       9.791   0.177  22.560  0.00  0.00    +0.008 A 
ATOM     40  C   UNL     1       9.053   1.081  21.793  0.00  0.00    +0.015 A 
ATOM     41  C   UNL     1       8.995   2.429  22.156  0.00  0.00    +0.001 A 
ATOM     42  C   UNL     1       9.673   2.883  23.287  0.00  0.00    +0.000 A 
ATOM     43  C   UNL     1      10.401   1.988  24.065  0.00  0.00    +0.001 A 
ATOM     44  C   UNL     1      10.460   0.642  23.701  0.00  0.00    +0.015 A 
ENDBRANCH  38  39
ENDBRANCH  37  38
ENDBRANCH  23  37
ENDBRANCH   1  23
TORSDOF 12
ENDMDL
MODEL 7
REMARK VINA RESULT:      -6.9      2.564      5.837
REMARK  Name = 
REMARK  16 active torsions:
REMARK  status: ('A' for Active; 'I' for Inactive)
REMARK    1  A    between atoms: N_10  and  C_11
REMARK    2  A    between atoms: C_11  and  C_12
REMARK    3  A    between atoms: C_12  and  O_14
REMARK    4  A    between atoms: C_12  and  C_15
REMARK    5  A    between atoms: C_15  and  C_17
REMARK    6  A    between atoms: C_15  and  N_25
REMARK    7  A    between atoms: C_17  and  S_18
REMARK    8  A    between atoms: S_18  and  C_19
REMARK    9  A    between atoms: C_26  and  C_28
REMARK   10  A    between atoms: C_29  and  C_30
REMARK   11  A    between atoms: C_31  and  O_32
REMARK   12  A    between atoms: C_36  and  C_39
REMARK   13  A    between atoms: N_41  and  C_42
REMARK   14  A    between atoms: C_42  and  C_43
REMARK   15  A    between atoms: C_42  and  C_44
REMARK   16  A    between atoms: C_42  and  C_45
REMARK                            x       y       z     vdW  Elec       q    Type
REMARK                         _______ _______ _______ _____ _____    ______ ____
ROOT
ATOM      1  C   UNL     1       6.058   0.109  25.557  0.00  0.00    +0.149 C 
ENDROOT
BRANCH   1   2
ATOM      2  O   UNL     1       4.647  -0.180  25.610  0.00  0.00    -0.389 OA
ATOM      3  H   UNL     1       4.498  -0.871  24.946  0.00  0.00    +0.210 HD
ENDBRANCH   1   2
BRANCH   1   4
ATOM      4  C   UNL     1       6.438   0.853  24.233  0.00  0.00    +0.118 C 
BRANCH   4   8
ATOM      5  C   UNL     1       8.212   4.673  23.360  0.00  0.00    -0.005 C 
ATOM      6  C   UNL     1       8.447   4.004  24.719  0.00  0.00    +0.032 C 
ATOM      7  C   UNL     1       7.481   2.887  25.159  0.00  0.00    +0.143 C 
ATOM      8  N   UNL     1       6.492   2.337  24.213  0.00  0.00    -0.289 NA
ATOM      9  C   UNL     1       6.607   2.837  22.840  0.00  0.00    +0.089 C 
ATOM     10  C   UNL     1       6.854   4.352  22.735  0.00  0.00    +0.006 C 
ATOM     11  C   UNL     1       5.691   5.193  23.285  0.00  0.00    +0.005 C 
ATOM     12  C   UNL     1       6.014   6.676  23.445  0.00  0.00    +0.000 C 
ATOM     13  C   UNL     1       7.350   6.924  24.136  0.00  0.00    +0.000 C 
ATOM     14  C   UNL     1       8.475   6.182  23.426  0.00  0.00    +0.004 C 
BRANCH   7  15
ATOM     15  C   UNL     1       6.740   3.354  26.453  0.00  0.00    +0.231 C 
ATOM     16  N   UNL     1       7.193   2.719  27.598  0.00  0.00    -0.309 N 
ATOM     17  H   UNL     1       7.576   1.797  27.424  0.00  0.00    +0.149 HD
ATOM     18  O   UNL     1       5.872   4.222  26.472  0.00  0.00    -0.274 OA
BRANCH  16  19
ATOM     19  C   UNL     1       6.648   2.941  28.945  0.00  0.00    +0.026 C 
ATOM     20  C   UNL     1       6.795   4.406  29.382  0.00  0.00    +0.031 C 
ATOM     21  C   UNL     1       7.457   2.060  29.914  0.00  0.00    +0.031 C 
ATOM     22  C   UNL     1       5.176   2.519  29.029  0.00  0.00    +0.031 C 
ENDBRANCH  16  19
ENDBRANCH   7  15
ENDBRANCH   4   8
ENDBRANCH   1   4
BRANCH   1  23
ATOM     23  C   UNL     1       6.892  -1.171  25.834  0.00  0.00    +0.113 C 
BRANCH  23  24
ATOM     24  N   UNL     1       6.654  -2.250  24.866  0.00  0.00    -0.305 N 
ATOM     25  H   UNL     1       6.667  -1.991  23.890  0.00  0.00    +0.149 HD
ATOM     26  C   UNL     1       6.652  -3.587  25.208  0.00  0.00    +0.245 C 
ATOM     27  O   UNL     1       6.854  -4.014  26.341  0.00  0.00    -0.270 OA
BRANCH  26  28
ATOM     28  C   UNL     1       6.449  -4.548  24.102  0.00  0.00    +0.043 A 
ATOM     29  C   UNL     1       7.568  -4.894  23.321  0.00  0.00    +0.013 A 
ATOM     30  C   UNL     1       7.426  -5.754  22.236  0.00  0.00    +0.004 A 
ATOM     31  C   UNL     1       6.167  -6.241  21.908  0.00  0.00    +0.046 A 
ATOM     32  C   UNL     1       5.055  -5.876  22.669  0.00  0.00    +0.120 A 
ATOM     33  C   UNL     1       5.164  -5.052  23.798  0.00  0.00    +0.003 A 
ATOM     34  C   UNL     1       3.940  -4.751  24.622  0.00  0.00    +0.048 C 
BRANCH  32  35
ATOM     35  O   UNL     1       3.855  -6.371  22.235  0.00  0.00    -0.506 OA
ATOM     36  H   UNL     1       3.985  -6.829  21.389  0.00  0.00    +0.292 HD
ENDBRANCH  32  35
ENDBRANCH  26  28
ENDBRANCH  23  24
BRANCH  23  37
ATOM     37  C   UNL     1       8.406  -0.881  26.057  0.00  0.00    +0.099 C 
BRANCH  37  38
ATOM     38  S   UNL     1       9.541  -1.604  24.817  0.00  0.00    -0.123 S 
BRANCH  38  39
ATOM     39  C   UNL     1       9.866  -0.268  23.689  0.00  0.00    +0.008 A 
ATOM     40  C   UNL     1      10.508   0.916  24.052  0.00  0.00    +0.015 A 
ATOM     41  C   UNL     1      10.610   1.970  23.141  0.00  0.00    +0.001 A 
ATOM     42  C   UNL     1      10.070   1.847  21.860  0.00  0.00    +0.000 A 
ATOM     43  C   UNL     1       9.438   0.665  21.485  0.00  0.00    +0.001 A 
ATOM     44  C   UNL     1       9.337  -0.386  22.397  0.00  0.00    +0.015 A 
ENDBRANCH  38  39
ENDBRANCH  37  38
ENDBRANCH  23  37
ENDBRANCH   1  23
TORSDOF 12
ENDMDL
MODEL 8
REMARK VINA RESULT:      -6.8      2.200      3.814
REMARK  Name = 
REMARK  16 active torsions:
REMARK  status: ('A' for Active; 'I' for Inactive)
REMARK    1  A    between atoms: N_10  and  C_11
REMARK    2  A    between atoms: C_11  and  C_12
REMARK    3  A    between atoms: C_12  and  O_14
REMARK    4  A    between atoms: C_12  and  C_15
REMARK    5  A    between atoms: C_15  and  C_17
REMARK    6  A    between atoms: C_15  and  N_25
REMARK    7  A    between atoms: C_17  and  S_18
REMARK    8  A    between atoms: S_18  and  C_19
REMARK    9  A    between atoms: C_26  and  C_28
REMARK   10  A    between atoms: C_29  and  C_30
REMARK   11  A    between atoms: C_31  and  O_32
REMARK   12  A    between atoms: C_36  and  C_39
REMARK   13  A    between atoms: N_41  and  C_42
REMARK   14  A    between atoms: C_42  and  C_43
REMARK   15  A    between atoms: C_42  and  C_44
REMARK   16  A    between atoms: C_42  and  C_45
REMARK                            x       y       z     vdW  Elec       q    Type
REMARK                         _______ _______ _______ _____ _____    ______ ____
ROOT
ATOM      1  C   UNL     1       7.560  -4.110  23.234  0.00  0.00    +0.149 C 
ENDROOT
BRANCH   1   2
ATOM      2  O   UNL     1       8.872  -4.124  23.832  0.00  0.00    -0.389 OA
ATOM      3  H   UNL     1       9.200  -5.030  23.719  0.00  0.00    +0.210 HD
ENDBRANCH   1   2
BRANCH   1   4
ATOM      4  C   UNL     1       7.407  -2.924  22.224  0.00  0.00    +0.118 C 
BRANCH   4   8
ATOM      5  C   UNL     1      10.488  -0.340  23.752  0.00  0.00    -0.005 C 
ATOM      6  C   UNL     1       9.317  -0.761  24.648  0.00  0.00    +0.032 C 
ATOM      7  C   UNL     1       8.043  -1.308  23.975  0.00  0.00    +0.143 C 
ATOM      8  N   UNL     1       8.030  -1.612  22.531  0.00  0.00    -0.289 NA
ATOM      9  C   UNL     1       9.328  -1.480  21.862  0.00  0.00    +0.089 C 
ATOM     10  C   UNL     1      10.129  -0.232  22.269  0.00  0.00    +0.006 C 
ATOM     11  C   UNL     1       9.434   1.084  21.882  0.00  0.00    +0.005 C 
ATOM     12  C   UNL     1      10.061   2.328  22.506  0.00  0.00    +0.000 C 
ATOM     13  C   UNL     1      10.330   2.176  23.998  0.00  0.00    +0.000 C 
ATOM     14  C   UNL     1      11.164   0.931  24.276  0.00  0.00    +0.004 C 
BRANCH   7  15
ATOM     15  C   UNL     1       6.858  -0.343  24.300  0.00  0.00    +0.231 C 
ATOM     16  N   UNL     1       7.276   0.917  24.697  0.00  0.00    -0.309 N 
ATOM     17  H   UNL     1       8.191   0.920  25.134  0.00  0.00    +0.149 HD
ATOM     18  O   UNL     1       5.674  -0.644  24.180  0.00  0.00    -0.274 OA
BRANCH  16  19
ATOM     19  C   UNL     1       6.375   2.007  25.096  0.00  0.00    +0.026 C 
ATOM     20  C   UNL     1       5.550   2.525  23.908  0.00  0.00    +0.031 C 
ATOM     21  C   UNL     1       7.255   3.158  25.615  0.00  0.00    +0.031 C 
ATOM     22  C   UNL     1       5.437   1.571  26.229  0.00  0.00    +0.031 C 
ENDBRANCH  16  19
ENDBRANCH   7  15
ENDBRANCH   4   8
ENDBRANCH   1   4
BRANCH   1  23
ATOM     23  C   UNL     1       6.458  -4.169  24.326  0.00  0.00    +0.113 C 
BRANCH  23  24
ATOM     24  N   UNL     1       5.432  -5.190  24.074  0.00  0.00    -0.305 N 
ATOM     25  H   UNL     1       5.751  -6.147  24.017  0.00  0.00    +0.149 HD
ATOM     26  C   UNL     1       4.078  -4.936  24.147  0.00  0.00    +0.245 C 
ATOM     27  O   UNL     1       3.590  -3.847  24.435  0.00  0.00    -0.270 OA
BRANCH  26  28
ATOM     28  C   UNL     1       3.180  -6.089  23.916  0.00  0.00    +0.043 A 
ATOM     29  C   UNL     1       2.194  -5.962  22.919  0.00  0.00    +0.013 A 
ATOM     30  C   UNL     1       1.290  -6.994  22.692  0.00  0.00    +0.004 A 
ATOM     31  C   UNL     1       1.344  -8.138  23.478  0.00  0.00    +0.046 A 
ATOM     32  C   UNL     1       2.308  -8.252  24.483  0.00  0.00    +0.120 A 
ATOM     33  C   UNL     1       3.267  -7.255  24.710  0.00  0.00    +0.003 A 
ATOM     34  C   UNL     1       4.325  -7.464  25.760  0.00  0.00    +0.048 C 
BRANCH  32  35
ATOM     35  O   UNL     1       2.247  -9.396  25.232  0.00  0.00    -0.506 OA
ATOM     36  H   UNL     1       2.884  -9.333  25.962  0.00  0.00    +0.292 HD
ENDBRANCH  32  35
ENDBRANCH  26  28
ENDBRANCH  23  24
BRANCH  23  37
ATOM     37  C   UNL     1       7.031  -4.232  25.773  0.00  0.00    +0.099 C 
BRANCH  37  38
ATOM     38  S   UNL     1       6.132  -3.244  27.024  0.00  0.00    -0.123 S 
BRANCH  38  39
ATOM     39  C   UNL     1       5.242  -4.450  27.979  0.00  0.00    +0.008 A 
ATOM     40  C   UNL     1       5.850  -5.502  28.664  0.00  0.00    +0.015 A 
ATOM     41  C   UNL     1       5.072  -6.483  29.284  0.00  0.00    +0.001 A 
ATOM     42  C   UNL     1       3.680  -6.419  29.223  0.00  0.00    +0.000 A 
ATOM     43  C   UNL     1       3.063  -5.367  28.552  0.00  0.00    +0.001 A 
ATOM     44  C   UNL     1       3.842  -4.389  27.933  0.00  0.00    +0.015 A 
ENDBRANCH  38  39
ENDBRANCH  37  38
ENDBRANCH  23  37
ENDBRANCH   1  23
TORSDOF 12
ENDMDL
MODEL 9
REMARK VINA RESULT:      -6.7      2.274      8.424
REMARK  Name = 
REMARK  16 active torsions:
REMARK  status: ('A' for Active; 'I' for Inactive)
REMARK    1  A    between atoms: N_10  and  C_11
REMARK    2  A    between atoms: C_11  and  C_12
REMARK    3  A    between atoms: C_12  and  O_14
REMARK    4  A    between atoms: C_12  and  C_15
REMARK    5  A    between atoms: C_15  and  C_17
REMARK    6  A    between atoms: C_15  and  N_25
REMARK    7  A    between atoms: C_17  and  S_18
REMARK    8  A    between atoms: S_18  and  C_19
REMARK    9  A    between atoms: C_26  and  C_28
REMARK   10  A    between atoms: C_29  and  C_30
REMARK   11  A    between atoms: C_31  and  O_32
REMARK   12  A    between atoms: C_36  and  C_39
REMARK   13  A    between atoms: N_41  and  C_42
REMARK   14  A    between atoms: C_42  and  C_43
REMARK   15  A    between atoms: C_42  and  C_44
REMARK   16  A    between atoms: C_42  and  C_45
REMARK                            x       y       z     vdW  Elec       q    Type
REMARK                         _______ _______ _______ _____ _____    ______ ____
ROOT
ATOM      1  C   UNL     1       7.277  -2.166  25.475  0.00  0.00    +0.149 C 
ENDROOT
BRANCH   1   2
ATOM      2  O   UNL     1       8.340  -1.626  26.285  0.00  0.00    -0.389 OA
ATOM      3  H   UNL     1       8.905  -1.127  25.674  0.00  0.00    +0.210 HD
ENDBRANCH   1   2
BRANCH   1   4
ATOM      4  C   UNL     1       7.378  -3.725  25.366  0.00  0.00    +0.118 C 
BRANCH   4   8
ATOM      5  C   UNL     1       3.575  -4.766  23.647  0.00  0.00    -0.005 C 
ATOM      6  C   UNL     1       3.645  -3.833  24.862  0.00  0.00    +0.032 C 
ATOM      7  C   UNL     1       4.938  -3.824  25.702  0.00  0.00    +0.143 C 
ATOM      8  N   UNL     1       6.141  -4.534  25.231  0.00  0.00    -0.289 NA
ATOM      9  C   UNL     1       6.034  -5.104  23.885  0.00  0.00    +0.089 C 
ATOM     10  C   UNL     1       4.696  -5.805  23.597  0.00  0.00    +0.006 C 
ATOM     11  C   UNL     1       4.456  -7.037  24.485  0.00  0.00    +0.005 C 
ATOM     12  C   UNL     1       3.034  -7.588  24.416  0.00  0.00    +0.000 C 
ATOM     13  C   UNL     1       1.968  -6.507  24.541  0.00  0.00    +0.000 C 
ATOM     14  C   UNL     1       2.188  -5.404  23.513  0.00  0.00    +0.004 C 
BRANCH   7  15
ATOM     15  C   UNL     1       4.593  -4.313  27.146  0.00  0.00    +0.231 C 
ATOM     16  N   UNL     1       3.395  -5.006  27.213  0.00  0.00    -0.309 N 
ATOM     17  H   UNL     1       2.732  -4.738  26.494  0.00  0.00    +0.149 HD
ATOM     18  O   UNL     1       5.319  -4.142  28.120  0.00  0.00    -0.274 OA
BRANCH  16  19
ATOM     19  C   UNL     1       2.812  -5.545  28.449  0.00  0.00    +0.026 C 
ATOM     20  C   UNL     1       2.780  -4.492  29.568  0.00  0.00    +0.031 C 
ATOM     21  C   UNL     1       3.709  -6.710  28.905  0.00  0.00    +0.031 C 
ATOM     22  C   UNL     1       1.399  -6.091  28.210  0.00  0.00    +0.031 C 
ENDBRANCH  16  19
ENDBRANCH   7  15
ENDBRANCH   4   8
ENDBRANCH   1   4
BRANCH   1  23
ATOM     23  C   UNL     1       7.200  -1.433  24.109  0.00  0.00    +0.113 C 
BRANCH  23  24
ATOM     24  N   UNL     1       7.504   0.003  24.193  0.00  0.00    -0.305 N 
ATOM     25  H   UNL     1       8.424   0.288  23.888  0.00  0.00    +0.149 HD
ATOM     26  C   UNL     1       6.545   0.966  24.432  0.00  0.00    +0.245 C 
ATOM     27  O   UNL     1       5.351   0.733  24.592  0.00  0.00    -0.270 OA
BRANCH  26  28
ATOM     28  C   UNL     1       7.012   2.370  24.433  0.00  0.00    +0.043 A 
ATOM     29  C   UNL     1       7.536   2.886  25.634  0.00  0.00    +0.013 A 
ATOM     30  C   UNL     1       7.943   4.214  25.707  0.00  0.00    +0.004 A 
ATOM     31  C   UNL     1       7.798   5.038  24.598  0.00  0.00    +0.046 A 
ATOM     32  C   UNL     1       7.255   4.530  23.415  0.00  0.00    +0.120 A 
ATOM     33  C   UNL     1       6.879   3.186  23.287  0.00  0.00    +0.003 A 
ATOM     34  C   UNL     1       6.366   2.679  21.965  0.00  0.00    +0.048 C 
BRANCH  32  35
ATOM     35  O   UNL     1       7.110   5.434  22.397  0.00  0.00    -0.506 OA
ATOM     36  H   UNL     1       7.081   4.959  21.551  0.00  0.00    +0.292 HD
ENDBRANCH  32  35
ENDBRANCH  26  28
ENDBRANCH  23  24
BRANCH  23  37
ATOM     37  C   UNL     1       7.995  -2.153  22.979  0.00  0.00    +0.099 C 
BRANCH  37  38
ATOM     38  S   UNL     1       9.818  -2.069  23.116  0.00  0.00    -0.123 S 
BRANCH  38  39
ATOM     39  C   UNL     1      10.179  -0.329  23.084  0.00  0.00    +0.008 A 
ATOM     40  C   UNL     1      10.686   0.380  24.174  0.00  0.00    +0.015 A 
ATOM     41  C   UNL     1      10.821   1.769  24.110  0.00  0.00    +0.001 A 
ATOM     42  C   UNL     1      10.449   2.460  22.956  0.00  0.00    +0.000 A 
ATOM     43  C   UNL     1       9.953   1.760  21.860  0.00  0.00    +0.001 A 
ATOM     44  C   UNL     1       9.818   0.373  21.926  0.00  0.00    +0.015 A 
ENDBRANCH  38  39
ENDBRANCH  37  38
ENDBRANCH  23  37
ENDBRANCH   1  23
TORSDOF 12
ENDMDL
