MODEL 1
REMARK VINA RESULT:      -7.1      0.000      0.000
REMARK  Name = 
REMARK  2 active torsions:
REMARK  status: ('A' for Active; 'I' for Inactive)
REMARK    1  A    between atoms: C_5  and  C_8
REMARK    2  A    between atoms: C_11  and  C_13
REMARK                            x       y       z     vdW  Elec       q    Type
REMARK                         _______ _______ _______ _____ _____    ______ ____
ROOT
ATOM      1  C   UNL     1       9.020  -2.743  23.868  0.00  0.00    +0.162 A 
ATOM      2  N   UNL     1       7.724  -3.151  24.058  0.00  0.00    -0.321 N 
ATOM      3  H   UNL     1       6.898  -2.608  23.878  0.00  0.00    +0.169 HD
ATOM      4  C   UNL     1       7.756  -4.453  24.488  0.00  0.00    +0.162 A 
ATOM      5  N   UNL     1       9.023  -4.804  24.599  0.00  0.00    -0.129 NA
ATOM      6  N   UNL     1       9.807  -3.743  24.214  0.00  0.00    -0.129 NA
ENDROOT
BRANCH   1  11
ATOM      7  F   UNL     1      10.476   2.250  21.774  0.00  0.00    -0.205 F 
ATOM      8  C   UNL     1      10.144   1.054  22.277  0.00  0.00    +0.123 A 
ATOM      9  C   UNL     1      10.431   0.768  23.605  0.00  0.00    +0.039 A 
ATOM     10  C   UNL     1      10.079  -0.476  24.140  0.00  0.00    +0.014 A 
ATOM     11  C   UNL     1       9.434  -1.439  23.345  0.00  0.00    +0.019 A 
ATOM     12  C   UNL     1       9.165  -1.125  22.001  0.00  0.00    +0.014 A 
ATOM     13  C   UNL     1       9.517   0.118  21.468  0.00  0.00    +0.039 A 
ENDBRANCH   1  11
BRANCH   4  14
ATOM     14  C   UNL     1       6.583  -5.292  24.746  0.00  0.00    +0.019 A 
ATOM     15  C   UNL     1       5.769  -5.789  23.717  0.00  0.00    +0.011 A 
ATOM     16  C   UNL     1       4.672  -6.608  24.005  0.00  0.00    +0.001 A 
ATOM     17  C   UNL     1       4.374  -6.941  25.324  0.00  0.00    +0.000 A 
ATOM     18  C   UNL     1       5.168  -6.452  26.358  0.00  0.00    +0.001 A 
ATOM     19  C   UNL     1       6.263  -5.633  26.069  0.00  0.00    +0.011 A 
ENDBRANCH   4  14
TORSDOF 2
ENDMDL
MODEL 2
REMARK VINA RESULT:      -7.0      0.106      1.142
REMARK  Name = 
REMARK  2 active torsions:
REMARK  status: ('A' for Active; 'I' for Inactive)
REMARK    1  A    between atoms: C_5  and  C_8
REMARK    2  A    between atoms: C_11  and  C_13
REMARK                            x       y       z     vdW  Elec       q    Type
REMARK                         _______ _______ _______ _____ _____    ______ ____
ROOT
ATOM      1  C   UNL     1       8.952  -2.722  23.821  0.00  0.00    +0.162 A 
ATOM      2  N   UNL     1       7.669  -3.144  24.060  0.00  0.00    -0.321 N 
ATOM      3  H   UNL     1       6.830  -2.615  23.899  0.00  0.00    +0.169 HD
ATOM      4  C   UNL     1       7.732  -4.437  24.512  0.00  0.00    +0.162 A 
ATOM      5  N   UNL     1       9.007  -4.770  24.587  0.00  0.00    -0.129 NA
ATOM      6  N   UNL     1       9.764  -3.705  24.158  0.00  0.00    -0.129 NA
ENDROOT
BRANCH   1  11
ATOM      7  F   UNL     1      10.539   2.251  21.776  0.00  0.00    -0.205 F 
ATOM      8  C   UNL     1      10.144   1.068  22.262  0.00  0.00    +0.123 A 
ATOM      9  C   UNL     1       9.451   0.189  21.440  0.00  0.00    +0.039 A 
ATOM     10  C   UNL     1       9.044  -1.053  21.938  0.00  0.00    +0.014 A 
ATOM     11  C   UNL     1       9.332  -1.422  23.263  0.00  0.00    +0.019 A 
ATOM     12  C   UNL     1      10.027  -0.507  24.075  0.00  0.00    +0.014 A 
ATOM     13  C   UNL     1      10.434   0.733  23.576  0.00  0.00    +0.039 A 
ENDBRANCH   1  11
BRANCH   4  14
ATOM     14  C   UNL     1       6.581  -5.287  24.822  0.00  0.00    +0.019 A 
ATOM     15  C   UNL     1       5.744  -5.817  23.828  0.00  0.00    +0.011 A 
ATOM     16  C   UNL     1       4.667  -6.645  24.167  0.00  0.00    +0.001 A 
ATOM     17  C   UNL     1       4.413  -6.953  25.501  0.00  0.00    +0.000 A 
ATOM     18  C   UNL     1       5.231  -6.432  26.499  0.00  0.00    +0.001 A 
ATOM     19  C   UNL     1       6.305  -5.604  26.161  0.00  0.00    +0.011 A 
ENDBRANCH   4  14
TORSDOF 2
ENDMDL
MODEL 3
REMARK VINA RESULT:      -7.0      0.163      1.616
REMARK  Name = 
REMARK  2 active torsions:
REMARK  status: ('A' for Active; 'I' for Inactive)
REMARK    1  A    between atoms: C_5  and  C_8
REMARK    2  A    between atoms: C_11  and  C_13
REMARK                            x       y       z     vdW  Elec       q    Type
REMARK                         _______ _______ _______ _____ _____    ______ ____
ROOT
ATOM      1  C   UNL     1       8.998  -2.740  23.893  0.00  0.00    +0.162 A 
ATOM      2  N   UNL     1       7.723  -3.155  24.182  0.00  0.00    -0.321 N 
ATOM      3  H   UNL     1       6.882  -2.621  24.054  0.00  0.00    +0.169 HD
ATOM      4  C   UNL     1       7.797  -4.449  24.630  0.00  0.00    +0.162 A 
ATOM      5  N   UNL     1       9.072  -4.789  24.655  0.00  0.00    -0.129 NA
ATOM      6  N   UNL     1       9.817  -3.728  24.198  0.00  0.00    -0.129 NA
ENDROOT
BRANCH   1  11
ATOM      7  F   UNL     1      10.523   2.233  21.802  0.00  0.00    -0.205 F 
ATOM      8  C   UNL     1      10.143   1.049  22.298  0.00  0.00    +0.123 A 
ATOM      9  C   UNL     1       9.524   0.127  21.465  0.00  0.00    +0.039 A 
ATOM     10  C   UNL     1       9.133  -1.116  21.974  0.00  0.00    +0.014 A 
ATOM     11  C   UNL     1       9.363  -1.442  23.321  0.00  0.00    +0.019 A 
ATOM     12  C   UNL     1       9.984  -0.484  24.144  0.00  0.00    +0.014 A 
ATOM     13  C   UNL     1      10.375   0.757  23.634  0.00  0.00    +0.039 A 
ENDBRANCH   1  11
BRANCH   4  14
ATOM     14  C   UNL     1       6.654  -5.293  24.985  0.00  0.00    +0.019 A 
ATOM     15  C   UNL     1       6.354  -5.640  26.311  0.00  0.00    +0.011 A 
ATOM     16  C   UNL     1       5.237  -6.429  26.609  0.00  0.00    +0.001 A 
ATOM     17  C   UNL     1       4.407  -6.882  25.586  0.00  0.00    +0.000 A 
ATOM     18  C   UNL     1       4.693  -6.551  24.265  0.00  0.00    +0.001 A 
ATOM     19  C   UNL     1       5.809  -5.764  23.968  0.00  0.00    +0.011 A 
ENDBRANCH   4  14
TORSDOF 2
ENDMDL
MODEL 4
REMARK VINA RESULT:      -7.0      2.937      7.131
REMARK  Name = 
REMARK  2 active torsions:
REMARK  status: ('A' for Active; 'I' for Inactive)
REMARK    1  A    between atoms: C_5  and  C_8
REMARK    2  A    between atoms: C_11  and  C_13
REMARK                            x       y       z     vdW  Elec       q    Type
REMARK                         _______ _______ _______ _____ _____    ______ ____
ROOT
ATOM      1  C   UNL     1       8.159  -3.755  23.870  0.00  0.00    +0.162 A 
ATOM      2  N   UNL     1       8.087  -2.447  23.464  0.00  0.00    -0.321 N 
ATOM      3  H   UNL     1       7.256  -1.956  23.185  0.00  0.00    +0.169 HD
ATOM      4  C   UNL     1       9.346  -1.912  23.559  0.00  0.00    +0.162 A 
ATOM      5  N   UNL     1      10.157  -2.872  23.961  0.00  0.00    -0.129 NA
ATOM      6  N   UNL     1       9.420  -4.016  24.154  0.00  0.00    -0.129 NA
ENDROOT
BRANCH   1  11
ATOM      7  F   UNL     1       3.865  -7.346  24.188  0.00  0.00    -0.205 F 
ATOM      8  C   UNL     1       4.881  -6.477  24.120  0.00  0.00    +0.123 A 
ATOM      9  C   UNL     1       5.453  -6.002  25.293  0.00  0.00    +0.039 A 
ATOM     10  C   UNL     1       6.521  -5.101  25.229  0.00  0.00    +0.014 A 
ATOM     11  C   UNL     1       7.023  -4.674  23.988  0.00  0.00    +0.019 A 
ATOM     12  C   UNL     1       6.418  -5.165  22.817  0.00  0.00    +0.014 A 
ATOM     13  C   UNL     1       5.351  -6.065  22.882  0.00  0.00    +0.039 A 
ENDBRANCH   1  11
BRANCH   4  14
ATOM     14  C   UNL     1       9.701  -0.517  23.284  0.00  0.00    +0.019 A 
ATOM     15  C   UNL     1       9.488   0.084  22.035  0.00  0.00    +0.011 A 
ATOM     16  C   UNL     1       9.819   1.427  21.822  0.00  0.00    +0.001 A 
ATOM     17  C   UNL     1      10.367   2.185  22.854  0.00  0.00    +0.000 A 
ATOM     18  C   UNL     1      10.590   1.602  24.098  0.00  0.00    +0.001 A 
ATOM     19  C   UNL     1      10.260   0.261  24.310  0.00  0.00    +0.011 A 
ENDBRANCH   4  14
TORSDOF 2
ENDMDL
MODEL 5
REMARK VINA RESULT:      -6.9      2.960      7.317
REMARK  Name = 
REMARK  2 active torsions:
REMARK  status: ('A' for Active; 'I' for Inactive)
REMARK    1  A    between atoms: C_5  and  C_8
REMARK    2  A    between atoms: C_11  and  C_13
REMARK                            x       y       z     vdW  Elec       q    Type
REMARK                         _______ _______ _______ _____ _____    ______ ____
ROOT
ATOM      1  C   UNL     1       8.130  -3.960  24.161  0.00  0.00    +0.162 A 
ATOM      2  N   UNL     1       8.023  -2.645  23.784  0.00  0.00    -0.321 N 
ATOM      3  H   UNL     1       7.168  -2.143  23.619  0.00  0.00    +0.169 HD
ATOM      4  C   UNL     1       9.290  -2.124  23.723  0.00  0.00    +0.162 A 
ATOM      5  N   UNL     1      10.134  -3.098  24.007  0.00  0.00    -0.129 NA
ATOM      6  N   UNL     1       9.415  -4.237  24.278  0.00  0.00    -0.129 NA
ENDROOT
BRANCH   1  11
ATOM      7  F   UNL     1       3.808  -7.358  25.260  0.00  0.00    -0.205 F 
ATOM      8  C   UNL     1       4.848  -6.559  24.989  0.00  0.00    +0.123 A 
ATOM      9  C   UNL     1       5.141  -6.242  23.669  0.00  0.00    +0.039 A 
ATOM     10  C   UNL     1       6.220  -5.401  23.380  0.00  0.00    +0.014 A 
ATOM     11  C   UNL     1       7.009  -4.869  24.413  0.00  0.00    +0.019 A 
ATOM     12  C   UNL     1       6.695  -5.214  25.740  0.00  0.00    +0.014 A 
ATOM     13  C   UNL     1       5.616  -6.055  26.028  0.00  0.00    +0.039 A 
ENDBRANCH   1  11
BRANCH   4  14
ATOM     14  C   UNL     1       9.622  -0.730  23.423  0.00  0.00    +0.019 A 
ATOM     15  C   UNL     1      10.180   0.136  24.376  0.00  0.00    +0.011 A 
ATOM     16  C   UNL     1      10.505   1.455  24.040  0.00  0.00    +0.001 A 
ATOM     17  C   UNL     1      10.277   1.926  22.749  0.00  0.00    +0.000 A 
ATOM     18  C   UNL     1       9.719   1.082  21.793  0.00  0.00    +0.001 A 
ATOM     19  C   UNL     1       9.394  -0.235  22.129  0.00  0.00    +0.011 A 
ENDBRANCH   4  14
TORSDOF 2
ENDMDL
MODEL 6
REMARK VINA RESULT:      -6.4      1.126      1.773
REMARK  Name = 
REMARK  2 active torsions:
REMARK  status: ('A' for Active; 'I' for Inactive)
REMARK    1  A    between atoms: C_5  and  C_8
REMARK    2  A    between atoms: C_11  and  C_13
REMARK                            x       y       z     vdW  Elec       q    Type
REMARK                         _______ _______ _______ _____ _____    ______ ____
ROOT
ATOM      1  C   UNL     1       8.433  -2.090  23.247  0.00  0.00    +0.162 A 
ATOM      2  N   UNL     1       7.890  -2.825  24.270  0.00  0.00    -0.321 N 
ATOM      3  H   UNL     1       7.958  -2.619  25.251  0.00  0.00    +0.169 HD
ATOM      4  C   UNL     1       7.192  -3.865  23.711  0.00  0.00    +0.162 A 
ATOM      5  N   UNL     1       7.345  -3.789  22.403  0.00  0.00    -0.129 NA
ATOM      6  N   UNL     1       8.116  -2.688  22.115  0.00  0.00    -0.129 NA
ENDROOT
BRANCH   1  11
ATOM      7  F   UNL     1      11.264   2.724  23.738  0.00  0.00    -0.205 F 
ATOM      8  C   UNL     1      10.602   1.566  23.625  0.00  0.00    +0.123 A 
ATOM      9  C   UNL     1      10.522   0.714  24.718  0.00  0.00    +0.039 A 
ATOM     10  C   UNL     1       9.824  -0.493  24.608  0.00  0.00    +0.014 A 
ATOM     11  C   UNL     1       9.200  -0.851  23.402  0.00  0.00    +0.019 A 
ATOM     12  C   UNL     1       9.304   0.027  22.308  0.00  0.00    +0.014 A 
ATOM     13  C   UNL     1      10.002   1.234  22.419  0.00  0.00    +0.039 A 
ENDBRANCH   1  11
BRANCH   4  14
ATOM     14  C   UNL     1       6.402  -4.854  24.449  0.00  0.00    +0.019 A 
ATOM     15  C   UNL     1       6.522  -5.032  25.836  0.00  0.00    +0.011 A 
ATOM     16  C   UNL     1       5.730  -5.972  26.507  0.00  0.00    +0.001 A 
ATOM     17  C   UNL     1       4.812  -6.745  25.801  0.00  0.00    +0.000 A 
ATOM     18  C   UNL     1       4.685  -6.584  24.424  0.00  0.00    +0.001 A 
ATOM     19  C   UNL     1       5.475  -5.646  23.755  0.00  0.00    +0.011 A 
ENDBRANCH   4  14
TORSDOF 2
ENDMDL
MODEL 7
REMARK VINA RESULT:      -6.3      3.915      8.321
REMARK  Name = 
REMARK  2 active torsions:
REMARK  status: ('A' for Active; 'I' for Inactive)
REMARK    1  A    between atoms: C_5  and  C_8
REMARK    2  A    between atoms: C_11  and  C_13
REMARK                            x       y       z     vdW  Elec       q    Type
REMARK                         _______ _______ _______ _____ _____    ______ ____
ROOT
ATOM      1  C   UNL     1       9.357   0.105  23.111  0.00  0.00    +0.162 A 
ATOM      2  N   UNL     1       9.511   1.243  23.863  0.00  0.00    -0.321 N 
ATOM      3  H   UNL     1       9.317   1.337  24.844  0.00  0.00    +0.169 HD
ATOM      4  C   UNL     1      10.026   2.216  23.045  0.00  0.00    +0.162 A 
ATOM      5  N   UNL     1      10.136   1.701  21.835  0.00  0.00    -0.129 NA
ATOM      6  N   UNL     1       9.720   0.392  21.876  0.00  0.00    -0.129 NA
ENDROOT
BRANCH   1  11
ATOM      7  F   UNL     1       7.736  -4.871  25.121  0.00  0.00    -0.205 F 
ATOM      8  C   UNL     1       8.114  -3.685  24.627  0.00  0.00    +0.123 A 
ATOM      9  C   UNL     1       7.155  -2.713  24.376  0.00  0.00    +0.039 A 
ATOM     10  C   UNL     1       7.544  -1.469  23.869  0.00  0.00    +0.014 A 
ATOM     11  C   UNL     1       8.898  -1.192  23.614  0.00  0.00    +0.019 A 
ATOM     12  C   UNL     1       9.846  -2.199  23.870  0.00  0.00    +0.014 A 
ATOM     13  C   UNL     1       9.456  -3.442  24.376  0.00  0.00    +0.039 A 
ENDBRANCH   1  11
BRANCH   4  14
ATOM     14  C   UNL     1      10.405   3.567  23.465  0.00  0.00    +0.019 A 
ATOM     15  C   UNL     1      11.700   4.077  23.288  0.00  0.00    +0.011 A 
ATOM     16  C   UNL     1      12.014   5.383  23.681  0.00  0.00    +0.001 A 
ATOM     17  C   UNL     1      11.039   6.194  24.257  0.00  0.00    +0.000 A 
ATOM     18  C   UNL     1       9.751   5.702  24.445  0.00  0.00    +0.001 A 
ATOM     19  C   UNL     1       9.438   4.398  24.052  0.00  0.00    +0.011 A 
ENDBRANCH   4  14
TORSDOF 2
ENDMDL
MODEL 8
REMARK VINA RESULT:      -6.1      2.740      3.808
REMARK  Name = 
REMARK  2 active torsions:
REMARK  status: ('A' for Active; 'I' for Inactive)
REMARK    1  A    between atoms: C_5  and  C_8
REMARK    2  A    between atoms: C_11  and  C_13
REMARK                            x       y       z     vdW  Elec       q    Type
REMARK                         _______ _______ _______ _____ _____    ______ ____
ROOT
ATOM      1  C   UNL     1       9.824   0.420  23.865  0.00  0.00    +0.162 A 
ATOM      2  N   UNL     1       9.312  -0.404  24.835  0.00  0.00    -0.321 N 
ATOM      3  H   UNL     1       8.904  -0.113  25.706  0.00  0.00    +0.169 HD
ATOM      4  C   UNL     1       9.410  -1.694  24.381  0.00  0.00    +0.162 A 
ATOM      5  N   UNL     1      10.001  -1.657  23.202  0.00  0.00    -0.129 NA
ATOM      6  N   UNL     1      10.258  -0.346  22.882  0.00  0.00    -0.129 NA
ENDROOT
BRANCH   1  11
ATOM      7  F   UNL     1       9.998   6.023  23.917  0.00  0.00    -0.205 F 
ATOM      8  C   UNL     1       9.956   4.685  23.921  0.00  0.00    +0.123 A 
ATOM      9  C   UNL     1       8.866   4.037  24.485  0.00  0.00    +0.039 A 
ATOM     10  C   UNL     1       8.812   2.639  24.485  0.00  0.00    +0.014 A 
ATOM     11  C   UNL     1       9.850   1.884  23.915  0.00  0.00    +0.019 A 
ATOM     12  C   UNL     1      10.947   2.567  23.359  0.00  0.00    +0.014 A 
ATOM     13  C   UNL     1      11.000   3.964  23.360  0.00  0.00    +0.039 A 
ENDBRANCH   1  11
BRANCH   4  14
ATOM     14  C   UNL     1       8.916  -2.882  25.082  0.00  0.00    +0.019 A 
ATOM     15  C   UNL     1       9.443  -4.163  24.860  0.00  0.00    +0.011 A 
ATOM     16  C   UNL     1       8.958  -5.268  25.569  0.00  0.00    +0.001 A 
ATOM     17  C   UNL     1       7.941  -5.107  26.507  0.00  0.00    +0.000 A 
ATOM     18  C   UNL     1       7.404  -3.844  26.735  0.00  0.00    +0.001 A 
ATOM     19  C   UNL     1       7.887  -2.741  26.026  0.00  0.00    +0.011 A 
ENDBRANCH   4  14
TORSDOF 2
ENDMDL
MODEL 9
REMARK VINA RESULT:      -6.1      2.487      2.965
REMARK  Name = 
REMARK  2 active torsions:
REMARK  status: ('A' for Active; 'I' for Inactive)
REMARK    1  A    between atoms: C_5  and  C_8
REMARK    2  A    between atoms: C_11  and  C_13
REMARK                            x       y       z     vdW  Elec       q    Type
REMARK                         _______ _______ _______ _____ _____    ______ ____
ROOT
ATOM      1  C   UNL     1       7.547  -0.385  23.495  0.00  0.00    +0.162 A 
ATOM      2  N   UNL     1       7.641  -1.586  22.839  0.00  0.00    -0.321 N 
ATOM      3  H   UNL     1       8.380  -1.868  22.220  0.00  0.00    +0.169 HD
ATOM      4  C   UNL     1       6.572  -2.354  23.222  0.00  0.00    +0.162 A 
ATOM      5  N   UNL     1       5.834  -1.629  24.041  0.00  0.00    -0.129 NA
ATOM      6  N   UNL     1       6.439  -0.407  24.210  0.00  0.00    -0.129 NA
ENDROOT
BRANCH   1  11
ATOM      7  F   UNL     1      11.263   3.792  23.064  0.00  0.00    -0.205 F 
ATOM      8  C   UNL     1      10.383   2.789  23.180  0.00  0.00    +0.123 A 
ATOM      9  C   UNL     1       9.632   2.670  24.341  0.00  0.00    +0.039 A 
ATOM     10  C   UNL     1       8.706   1.629  24.465  0.00  0.00    +0.014 A 
ATOM     11  C   UNL     1       8.526   0.704  23.424  0.00  0.00    +0.019 A 
ATOM     12  C   UNL     1       9.307   0.844  22.263  0.00  0.00    +0.014 A 
ATOM     13  C   UNL     1      10.233   1.884  22.140  0.00  0.00    +0.039 A 
ENDBRANCH   1  11
BRANCH   4  14
ATOM     14  C   UNL     1       6.326  -3.737  22.807  0.00  0.00    +0.019 A 
ATOM     15  C   UNL     1       7.308  -4.525  22.187  0.00  0.00    +0.011 A 
ATOM     16  C   UNL     1       7.039  -5.851  21.828  0.00  0.00    +0.001 A 
ATOM     17  C   UNL     1       5.787  -6.405  22.082  0.00  0.00    +0.000 A 
ATOM     18  C   UNL     1       4.800  -5.636  22.691  0.00  0.00    +0.001 A 
ATOM     19  C   UNL     1       5.069  -4.312  23.049  0.00  0.00    +0.011 A 
ENDBRANCH   4  14
TORSDOF 2
ENDMDL
