MODEL 1
REMARK VINA RESULT:      -4.9      0.000      0.000
REMARK  Name = 
REMARK  6 active torsions:
REMARK  status: ('A' for Active; 'I' for Inactive)
REMARK    1  A    between atoms: C_1  and  N_2
REMARK    2  A    between atoms: N_2  and  C_3
REMARK    3  A    between atoms: C_3  and  C_5
REMARK    4  A    between atoms: C_3  and  C_6
REMARK    5  A    between atoms: C_6  and  O_8
REMARK    6  A    between atoms: C_6  and  C_9
REMARK                            x       y       z     vdW  Elec       q    Type
REMARK                         _______ _______ _______ _____ _____    ______ ____
ROOT
ATOM      1  C   UNL     1      10.142  -1.664  22.823  0.00  0.00    +0.161 C 
ENDROOT
BRANCH   1   2
ATOM      2  C   UNL     1      10.204  -0.158  22.956  0.00  0.00    -0.018 A 
ATOM      3  C   UNL     1      10.669   0.455  24.129  0.00  0.00    +0.006 A 
ATOM      4  C   UNL     1      10.745   1.847  24.222  0.00  0.00    +0.000 A 
ATOM      5  C   UNL     1      10.347   2.643  23.149  0.00  0.00    +0.000 A 
ATOM      6  C   UNL     1       9.871   2.048  21.983  0.00  0.00    +0.000 A 
ATOM      7  C   UNL     1       9.798   0.658  21.886  0.00  0.00    +0.006 A 
ENDBRANCH   1   2
BRANCH   1   8
ATOM      8  C   UNL     1       8.930  -2.337  23.550  0.00  0.00    +0.083 C 
ATOM      9  C   UNL     1       9.401  -3.486  24.449  0.00  0.00    +0.027 C 
BRANCH   8  11
ATOM     10  C   UNL     1       7.442  -4.133  22.760  0.00  0.00    +0.101 C 
ATOM     11  N   UNL     1       7.951  -2.787  22.521  0.00  0.00    -0.314 NA
ATOM     12  H   UNL     1       7.154  -2.149  22.570  0.00  0.00    +0.122 HD
ENDBRANCH   8  11
ENDBRANCH   1   8
BRANCH   1  13
ATOM     13  O   UNL     1      10.087  -1.971  21.422  0.00  0.00    -0.386 OA
ATOM     14  H   UNL     1       9.194  -2.325  21.272  0.00  0.00    +0.210 HD
ENDBRANCH   1  13
TORSDOF 4
ENDMDL
MODEL 2
REMARK VINA RESULT:      -4.9      0.114      1.395
REMARK  Name = 
REMARK  6 active torsions:
REMARK  status: ('A' for Active; 'I' for Inactive)
REMARK    1  A    between atoms: C_1  and  N_2
REMARK    2  A    between atoms: N_2  and  C_3
REMARK    3  A    between atoms: C_3  and  C_5
REMARK    4  A    between atoms: C_3  and  C_6
REMARK    5  A    between atoms: C_6  and  O_8
REMARK    6  A    between atoms: C_6  and  C_9
REMARK                            x       y       z     vdW  Elec       q    Type
REMARK                         _______ _______ _______ _____ _____    ______ ____
ROOT
ATOM      1  C   UNL     1      10.133  -1.643  22.783  0.00  0.00    +0.161 C 
ENDROOT
BRANCH   1   2
ATOM      2  C   UNL     1      10.180  -0.140  22.948  0.00  0.00    -0.018 A 
ATOM      3  C   UNL     1       9.861   0.724  21.890  0.00  0.00    +0.006 A 
ATOM      4  C   UNL     1       9.884   2.109  22.071  0.00  0.00    +0.000 A 
ATOM      5  C   UNL     1      10.238   2.648  23.307  0.00  0.00    +0.000 A 
ATOM      6  C   UNL     1      10.571   1.802  24.362  0.00  0.00    +0.000 A 
ATOM      7  C   UNL     1      10.544   0.418  24.186  0.00  0.00    +0.006 A 
ENDBRANCH   1   2
BRANCH   1   8
ATOM      8  C   UNL     1       8.950  -2.347  23.526  0.00  0.00    +0.083 C 
ATOM      9  C   UNL     1       9.467  -3.465  24.441  0.00  0.00    +0.027 C 
BRANCH   8  11
ATOM     10  C   UNL     1       7.452  -4.172  22.823  0.00  0.00    +0.101 C 
ATOM     11  N   UNL     1       7.983  -2.850  22.509  0.00  0.00    -0.314 NA
ATOM     12  H   UNL     1       7.193  -2.201  22.504  0.00  0.00    +0.122 HD
ENDBRANCH   8  11
ENDBRANCH   1   8
BRANCH   1  13
ATOM     13  O   UNL     1      10.043  -1.919  21.377  0.00  0.00    -0.386 OA
ATOM     14  H   UNL     1       9.095  -1.882  21.168  0.00  0.00    +0.210 HD
ENDBRANCH   1  13
TORSDOF 4
ENDMDL
MODEL 3
REMARK VINA RESULT:      -4.8      2.849      5.288
REMARK  Name = 
REMARK  6 active torsions:
REMARK  status: ('A' for Active; 'I' for Inactive)
REMARK    1  A    between atoms: C_1  and  N_2
REMARK    2  A    between atoms: N_2  and  C_3
REMARK    3  A    between atoms: C_3  and  C_5
REMARK    4  A    between atoms: C_3  and  C_6
REMARK    5  A    between atoms: C_6  and  O_8
REMARK    6  A    between atoms: C_6  and  C_9
REMARK                            x       y       z     vdW  Elec       q    Type
REMARK                         _______ _______ _______ _____ _____    ______ ____
ROOT
ATOM      1  C   UNL     1       9.556   2.183  22.698  0.00  0.00    +0.161 C 
ENDROOT
BRANCH   1   2
ATOM      2  C   UNL     1       9.671   0.729  23.102  0.00  0.00    -0.018 A 
ATOM      3  C   UNL     1       9.448   0.316  24.424  0.00  0.00    +0.006 A 
ATOM      4  C   UNL     1       9.532  -1.035  24.771  0.00  0.00    +0.000 A 
ATOM      5  C   UNL     1       9.850  -1.987  23.804  0.00  0.00    +0.000 A 
ATOM      6  C   UNL     1      10.087  -1.590  22.490  0.00  0.00    +0.000 A 
ATOM      7  C   UNL     1       9.999  -0.242  22.140  0.00  0.00    +0.006 A 
ENDBRANCH   1   2
BRANCH   1   8
ATOM      8  C   UNL     1      10.222   3.193  23.690  0.00  0.00    +0.083 C 
ATOM      9  C   UNL     1       9.179   4.156  24.271  0.00  0.00    +0.027 C 
BRANCH   8  11
ATOM     10  C   UNL     1      11.608   5.223  23.536  0.00  0.00    +0.101 C 
ATOM     11  N   UNL     1      11.316   3.908  22.975  0.00  0.00    -0.314 NA
ATOM     12  H   UNL     1      12.160   3.341  23.080  0.00  0.00    +0.122 HD
ENDBRANCH   8  11
ENDBRANCH   1   8
BRANCH   1  13
ATOM     13  O   UNL     1      10.160   2.319  21.403  0.00  0.00    -0.386 OA
ATOM     14  H   UNL     1       9.509   2.800  20.866  0.00  0.00    +0.210 HD
ENDBRANCH   1  13
TORSDOF 4
ENDMDL
MODEL 4
REMARK VINA RESULT:      -4.7      1.795      5.000
REMARK  Name = 
REMARK  6 active torsions:
REMARK  status: ('A' for Active; 'I' for Inactive)
REMARK    1  A    between atoms: C_1  and  N_2
REMARK    2  A    between atoms: N_2  and  C_3
REMARK    3  A    between atoms: C_3  and  C_5
REMARK    4  A    between atoms: C_3  and  C_6
REMARK    5  A    between atoms: C_6  and  O_8
REMARK    6  A    between atoms: C_6  and  C_9
REMARK                            x       y       z     vdW  Elec       q    Type
REMARK                         _______ _______ _______ _____ _____    ______ ____
ROOT
ATOM      1  C   UNL     1       8.897  -1.434  21.875  0.00  0.00    +0.161 C 
ENDROOT
BRANCH   1   2
ATOM      2  C   UNL     1       8.651  -2.590  22.819  0.00  0.00    -0.018 A 
ATOM      3  C   UNL     1       7.612  -3.507  22.600  0.00  0.00    +0.006 A 
ATOM      4  C   UNL     1       7.418  -4.583  23.470  0.00  0.00    +0.000 A 
ATOM      5  C   UNL     1       8.251  -4.749  24.575  0.00  0.00    +0.000 A 
ATOM      6  C   UNL     1       9.278  -3.838  24.813  0.00  0.00    +0.000 A 
ATOM      7  C   UNL     1       9.477  -2.765  23.943  0.00  0.00    +0.006 A 
ENDBRANCH   1   2
BRANCH   1   8
ATOM      8  C   UNL     1       8.653  -0.018  22.493  0.00  0.00    +0.083 C 
ATOM      9  C   UNL     1       7.178   0.169  22.867  0.00  0.00    +0.027 C 
BRANCH   8  11
ATOM     10  C   UNL     1      10.101   1.934  22.093  0.00  0.00    +0.101 C 
ATOM     11  N   UNL     1       9.126   1.010  21.523  0.00  0.00    -0.314 NA
ATOM     12  H   UNL     1       9.592   0.510  20.763  0.00  0.00    +0.122 HD
ENDBRANCH   8  11
ENDBRANCH   1   8
BRANCH   1  13
ATOM     13  O   UNL     1      10.257  -1.529  21.423  0.00  0.00    -0.386 OA
ATOM     14  H   UNL     1      10.765  -0.952  22.017  0.00  0.00    +0.210 HD
ENDBRANCH   1  13
TORSDOF 4
ENDMDL
MODEL 5
REMARK VINA RESULT:      -4.6      2.867      5.119
REMARK  Name = 
REMARK  6 active torsions:
REMARK  status: ('A' for Active; 'I' for Inactive)
REMARK    1  A    between atoms: C_1  and  N_2
REMARK    2  A    between atoms: N_2  and  C_3
REMARK    3  A    between atoms: C_3  and  C_5
REMARK    4  A    between atoms: C_3  and  C_6
REMARK    5  A    between atoms: C_6  and  O_8
REMARK    6  A    between atoms: C_6  and  C_9
REMARK                            x       y       z     vdW  Elec       q    Type
REMARK                         _______ _______ _______ _____ _____    ______ ____
ROOT
ATOM      1  C   UNL     1       9.066   1.855  21.940  0.00  0.00    +0.161 C 
ENDROOT
BRANCH   1   2
ATOM      2  C   UNL     1       9.340   0.537  22.629  0.00  0.00    -0.018 A 
ATOM      3  C   UNL     1       9.780  -0.586  21.912  0.00  0.00    +0.006 A 
ATOM      4  C   UNL     1      10.054  -1.788  22.571  0.00  0.00    +0.000 A 
ATOM      5  C   UNL     1       9.881  -1.884  23.951  0.00  0.00    +0.000 A 
ATOM      6  C   UNL     1       9.433  -0.781  24.673  0.00  0.00    +0.000 A 
ATOM      7  C   UNL     1       9.162   0.421  24.018  0.00  0.00    +0.006 A 
ENDBRANCH   1   2
BRANCH   1   8
ATOM      8  C   UNL     1       8.253   2.884  22.793  0.00  0.00    +0.083 C 
ATOM      9  C   UNL     1       6.972   3.308  22.064  0.00  0.00    +0.027 C 
BRANCH   8  11
ATOM     10  C   UNL     1       9.031   4.489  24.492  0.00  0.00    +0.101 C 
ATOM     11  N   UNL     1       9.135   4.043  23.106  0.00  0.00    -0.314 NA
ATOM     12  H   UNL     1      10.098   3.731  22.961  0.00  0.00    +0.122 HD
ENDBRANCH   8  11
ENDBRANCH   1   8
BRANCH   1  13
ATOM     13  O   UNL     1      10.334   2.428  21.585  0.00  0.00    -0.386 OA
ATOM     14  H   UNL     1      10.991   1.741  21.785  0.00  0.00    +0.210 HD
ENDBRANCH   1  13
TORSDOF 4
ENDMDL
MODEL 6
REMARK VINA RESULT:      -4.5      1.101      1.255
REMARK  Name = 
REMARK  6 active torsions:
REMARK  status: ('A' for Active; 'I' for Inactive)
REMARK    1  A    between atoms: C_1  and  N_2
REMARK    2  A    between atoms: N_2  and  C_3
REMARK    3  A    between atoms: C_3  and  C_5
REMARK    4  A    between atoms: C_3  and  C_6
REMARK    5  A    between atoms: C_6  and  O_8
REMARK    6  A    between atoms: C_6  and  C_9
REMARK                            x       y       z     vdW  Elec       q    Type
REMARK                         _______ _______ _______ _____ _____    ______ ____
ROOT
ATOM      1  C   UNL     1       9.665  -1.817  23.875  0.00  0.00    +0.161 C 
ENDROOT
BRANCH   1   2
ATOM      2  C   UNL     1       9.875  -0.366  23.504  0.00  0.00    -0.018 A 
ATOM      3  C   UNL     1      10.324   0.572  24.445  0.00  0.00    +0.006 A 
ATOM      4  C   UNL     1      10.538   1.903  24.076  0.00  0.00    +0.000 A 
ATOM      5  C   UNL     1      10.295   2.314  22.767  0.00  0.00    +0.000 A 
ATOM      6  C   UNL     1       9.835   1.396  21.825  0.00  0.00    +0.000 A 
ATOM      7  C   UNL     1       9.625   0.065  22.190  0.00  0.00    +0.006 A 
ENDBRANCH   1   2
BRANCH   1   8
ATOM      8  C   UNL     1       8.210  -2.348  23.651  0.00  0.00    +0.083 C 
ATOM      9  C   UNL     1       7.210  -1.594  24.537  0.00  0.00    +0.027 C 
BRANCH   8  11
ATOM     10  C   UNL     1       7.423  -4.564  22.918  0.00  0.00    +0.101 C 
ATOM     11  N   UNL     1       8.196  -3.816  23.904  0.00  0.00    -0.314 NA
ATOM     12  H   UNL     1       9.164  -4.138  23.838  0.00  0.00    +0.122 HD
ENDBRANCH   8  11
ENDBRANCH   1   8
BRANCH   1  13
ATOM     13  O   UNL     1      10.582  -2.599  23.094  0.00  0.00    -0.386 OA
ATOM     14  H   UNL     1      10.981  -3.226  23.720  0.00  0.00    +0.210 HD
ENDBRANCH   1  13
TORSDOF 4
ENDMDL
MODEL 7
REMARK VINA RESULT:      -4.5      1.772      2.477
REMARK  Name = 
REMARK  6 active torsions:
REMARK  status: ('A' for Active; 'I' for Inactive)
REMARK    1  A    between atoms: C_1  and  N_2
REMARK    2  A    between atoms: N_2  and  C_3
REMARK    3  A    between atoms: C_3  and  C_5
REMARK    4  A    between atoms: C_3  and  C_6
REMARK    5  A    between atoms: C_6  and  O_8
REMARK    6  A    between atoms: C_6  and  C_9
REMARK                            x       y       z     vdW  Elec       q    Type
REMARK                         _______ _______ _______ _____ _____    ______ ____
ROOT
ATOM      1  C   UNL     1       8.933  -3.163  24.439  0.00  0.00    +0.161 C 
ENDROOT
BRANCH   1   2
ATOM      2  C   UNL     1       9.305  -1.926  23.652  0.00  0.00    -0.018 A 
ATOM      3  C   UNL     1       9.977  -0.851  24.252  0.00  0.00    +0.006 A 
ATOM      4  C   UNL     1      10.337   0.272  23.502  0.00  0.00    +0.000 A 
ATOM      5  C   UNL     1      10.019   0.338  22.147  0.00  0.00    +0.000 A 
ATOM      6  C   UNL     1       9.341  -0.716  21.540  0.00  0.00    +0.000 A 
ATOM      7  C   UNL     1       8.985  -1.841  22.286  0.00  0.00    +0.006 A 
ENDBRANCH   1   2
BRANCH   1   8
ATOM      8  C   UNL     1       7.686  -3.936  23.894  0.00  0.00    +0.083 C 
ATOM      9  C   UNL     1       6.595  -4.039  24.968  0.00  0.00    +0.027 C 
BRANCH   8  11
ATOM     10  C   UNL     1       7.334  -5.776  22.296  0.00  0.00    +0.101 C 
ATOM     11  N   UNL     1       8.131  -5.273  23.409  0.00  0.00    -0.314 NA
ATOM     12  H   UNL     1       9.088  -5.162  23.069  0.00  0.00    +0.122 HD
ENDBRANCH   8  11
ENDBRANCH   1   8
BRANCH   1  13
ATOM     13  O   UNL     1      10.073  -4.036  24.434  0.00  0.00    -0.386 OA
ATOM     14  H   UNL     1      10.378  -4.064  25.356  0.00  0.00    +0.210 HD
ENDBRANCH   1  13
TORSDOF 4
ENDMDL
MODEL 8
REMARK VINA RESULT:      -4.5      1.291      2.018
REMARK  Name = 
REMARK  6 active torsions:
REMARK  status: ('A' for Active; 'I' for Inactive)
REMARK    1  A    between atoms: C_1  and  N_2
REMARK    2  A    between atoms: N_2  and  C_3
REMARK    3  A    between atoms: C_3  and  C_5
REMARK    4  A    between atoms: C_3  and  C_6
REMARK    5  A    between atoms: C_6  and  O_8
REMARK    6  A    between atoms: C_6  and  C_9
REMARK                            x       y       z     vdW  Elec       q    Type
REMARK                         _______ _______ _______ _____ _____    ______ ____
ROOT
ATOM      1  C   UNL     1       9.303  -2.058  24.095  0.00  0.00    +0.161 C 
ENDROOT
BRANCH   1   2
ATOM      2  C   UNL     1       9.660  -0.671  23.608  0.00  0.00    -0.018 A 
ATOM      3  C   UNL     1       9.494  -0.300  22.266  0.00  0.00    +0.006 A 
ATOM      4  C   UNL     1       9.805   0.995  21.842  0.00  0.00    +0.000 A 
ATOM      5  C   UNL     1      10.296   1.930  22.751  0.00  0.00    +0.000 A 
ATOM      6  C   UNL     1      10.479   1.571  24.085  0.00  0.00    +0.000 A 
ATOM      7  C   UNL     1      10.165   0.280  24.512  0.00  0.00    +0.006 A 
ENDBRANCH   1   2
BRANCH   1   8
ATOM      8  C   UNL     1       7.964  -2.630  23.520  0.00  0.00    +0.083 C 
ATOM      9  C   UNL     1       6.758  -2.065  24.281  0.00  0.00    +0.027 C 
BRANCH   8  11
ATOM     10  C   UNL     1       7.197  -4.764  22.559  0.00  0.00    +0.101 C 
ATOM     11  N   UNL     1       8.021  -4.118  23.575  0.00  0.00    -0.314 NA
ATOM     12  H   UNL     1       8.991  -4.384  23.392  0.00  0.00    +0.122 HD
ENDBRANCH   8  11
ENDBRANCH   1   8
BRANCH   1  13
ATOM     13  O   UNL     1      10.385  -2.932  23.739  0.00  0.00    -0.386 OA
ATOM     14  H   UNL     1      11.193  -2.457  23.994  0.00  0.00    +0.210 HD
ENDBRANCH   1  13
TORSDOF 4
ENDMDL
MODEL 9
REMARK VINA RESULT:      -4.5      1.158      2.006
REMARK  Name = 
REMARK  6 active torsions:
REMARK  status: ('A' for Active; 'I' for Inactive)
REMARK    1  A    between atoms: C_1  and  N_2
REMARK    2  A    between atoms: N_2  and  C_3
REMARK    3  A    between atoms: C_3  and  C_5
REMARK    4  A    between atoms: C_3  and  C_6
REMARK    5  A    between atoms: C_6  and  O_8
REMARK    6  A    between atoms: C_6  and  C_9
REMARK                            x       y       z     vdW  Elec       q    Type
REMARK                         _______ _______ _______ _____ _____    ______ ____
ROOT
ATOM      1  C   UNL     1       9.510  -1.704  22.590  0.00  0.00    +0.161 C 
ENDROOT
BRANCH   1   2
ATOM      2  C   UNL     1       9.879  -0.265  22.873  0.00  0.00    -0.018 A 
ATOM      3  C   UNL     1       9.811   0.719  21.876  0.00  0.00    +0.006 A 
ATOM      4  C   UNL     1      10.130   2.049  22.164  0.00  0.00    +0.000 A 
ATOM      5  C   UNL     1      10.531   2.409  23.450  0.00  0.00    +0.000 A 
ATOM      6  C   UNL     1      10.616   1.440  24.447  0.00  0.00    +0.000 A 
ATOM      7  C   UNL     1      10.293   0.112  24.163  0.00  0.00    +0.006 A 
ENDBRANCH   1   2
BRANCH   1   8
ATOM      8  C   UNL     1       8.172  -2.180  23.248  0.00  0.00    +0.083 C 
ATOM      9  C   UNL     1       7.763  -3.559  22.717  0.00  0.00    +0.027 C 
BRANCH   8  11
ATOM     10  C   UNL     1       6.275  -0.901  24.159  0.00  0.00    +0.101 C 
ATOM     11  N   UNL     1       7.129  -1.145  23.001  0.00  0.00    -0.314 NA
ATOM     12  H   UNL     1       7.618  -0.272  22.797  0.00  0.00    +0.122 HD
ENDBRANCH   8  11
ENDBRANCH   1   8
BRANCH   1  13
ATOM     13  O   UNL     1       9.419  -1.853  21.165  0.00  0.00    -0.386 OA
ATOM     14  H   UNL     1       9.967  -2.627  20.953  0.00  0.00    +0.210 HD
ENDBRANCH   1  13
TORSDOF 4
ENDMDL
