MODEL 1
REMARK VINA RESULT:      -4.2      0.000      0.000
REMARK  Name = 
REMARK  3 active torsions:
REMARK  status: ('A' for Active; 'I' for Inactive)
REMARK    1  A    between atoms: O_1  and  C_2
REMARK    2  A    between atoms: C_2  and  C_4
REMARK    3  A    between atoms: C_8  and  O_9
REMARK                            x       y       z     vdW  Elec       q    Type
REMARK                         _______ _______ _______ _____ _____    ______ ____
ROOT
ATOM      1  C   UNL     1       7.974  -4.739  25.516  0.00  0.00    +0.219 A 
ATOM      2  C   UNL     1       9.375  -4.754  25.246  0.00  0.00    +0.255 A 
ATOM      3  N   UNL     1       9.843  -3.863  24.380  0.00  0.00    -0.154 NA
ATOM      4  S   UNL     1       8.480  -3.008  23.912  0.00  0.00    +0.120 S 
ATOM      5  N   UNL     1       7.307  -3.784  24.832  0.00  0.00    -0.180 NA
ENDROOT
BRANCH   1   6
ATOM      6  C   UNL     1       7.238  -5.613  26.421  0.00  0.00    +0.361 C 
ATOM      7  O   UNL     1       6.146  -6.110  26.192  0.00  0.00    -0.243 OA
BRANCH   6   8
ATOM      8  O   UNL     1       7.894  -5.836  27.599  0.00  0.00    -0.476 OA
ATOM      9  H   UNL     1       7.267  -5.682  28.339  0.00  0.00    +0.295 HD
ENDBRANCH   6   8
ENDBRANCH   1   6
BRANCH   2  10
ATOM     10  O   UNL     1      10.315  -5.556  25.760  0.00  0.00    -0.490 OA
ATOM     11  H   UNL     1      11.170  -5.198  25.467  0.00  0.00    +0.294 HD
ENDBRANCH   2  10
TORSDOF 3
ENDMDL
MODEL 2
REMARK VINA RESULT:      -4.2      1.824      3.202
REMARK  Name = 
REMARK  3 active torsions:
REMARK  status: ('A' for Active; 'I' for Inactive)
REMARK    1  A    between atoms: O_1  and  C_2
REMARK    2  A    between atoms: C_2  and  C_4
REMARK    3  A    between atoms: C_8  and  O_9
REMARK                            x       y       z     vdW  Elec       q    Type
REMARK                         _______ _______ _______ _____ _____    ______ ____
ROOT
ATOM      1  C   UNL     1       8.054  -5.091  25.218  0.00  0.00    +0.219 A 
ATOM      2  C   UNL     1       7.415  -5.616  26.380  0.00  0.00    +0.255 A 
ATOM      3  N   UNL     1       6.121  -5.905  26.292  0.00  0.00    -0.154 NA
ATOM      4  S   UNL     1       5.729  -5.500  24.714  0.00  0.00    +0.120 S 
ATOM      5  N   UNL     1       7.224  -4.968  24.159  0.00  0.00    -0.180 NA
ENDROOT
BRANCH   1   6
ATOM      6  C   UNL     1       9.452  -4.704  25.075  0.00  0.00    +0.361 C 
ATOM      7  O   UNL     1       9.864  -3.780  24.390  0.00  0.00    -0.243 OA
BRANCH   6   8
ATOM      8  O   UNL     1      10.301  -5.494  25.798  0.00  0.00    -0.476 OA
ATOM      9  H   UNL     1      11.062  -4.948  26.092  0.00  0.00    +0.295 HD
ENDBRANCH   6   8
ENDBRANCH   1   6
BRANCH   2  10
ATOM     10  O   UNL     1       7.946  -5.872  27.581  0.00  0.00    -0.490 OA
ATOM     11  H   UNL     1       8.846  -5.507  27.567  0.00  0.00    +0.294 HD
ENDBRANCH   2  10
TORSDOF 3
ENDMDL
MODEL 3
REMARK VINA RESULT:      -4.1      6.066      6.937
REMARK  Name = 
REMARK  3 active torsions:
REMARK  status: ('A' for Active; 'I' for Inactive)
REMARK    1  A    between atoms: O_1  and  C_2
REMARK    2  A    between atoms: C_2  and  C_4
REMARK    3  A    between atoms: C_8  and  O_9
REMARK                            x       y       z     vdW  Elec       q    Type
REMARK                         _______ _______ _______ _____ _____    ______ ____
ROOT
ATOM      1  C   UNL     1      10.107   0.580  23.028  0.00  0.00    +0.219 A 
ATOM      2  C   UNL     1      10.136  -0.081  24.291  0.00  0.00    +0.255 A 
ATOM      3  N   UNL     1       9.921  -1.392  24.304  0.00  0.00    -0.154 NA
ATOM      4  S   UNL     1       9.682  -1.772  22.690  0.00  0.00    +0.120 S 
ATOM      5  N   UNL     1       9.865  -0.254  21.993  0.00  0.00    -0.180 NA
ENDROOT
BRANCH   1   6
ATOM      6  C   UNL     1      10.313   1.999  22.767  0.00  0.00    +0.361 C 
ATOM      7  O   UNL     1      10.699   2.820  23.585  0.00  0.00    -0.243 OA
BRANCH   6   8
ATOM      8  O   UNL     1      10.024   2.352  21.479  0.00  0.00    -0.476 OA
ATOM      9  H   UNL     1       9.290   1.784  21.156  0.00  0.00    +0.295 HD
ENDBRANCH   6   8
ENDBRANCH   1   6
BRANCH   2  10
ATOM     10  O   UNL     1      10.361   0.442  25.502  0.00  0.00    -0.490 OA
ATOM     11  H   UNL     1      11.322   0.566  25.574  0.00  0.00    +0.294 HD
ENDBRANCH   2  10
TORSDOF 3
ENDMDL
MODEL 4
REMARK VINA RESULT:      -4.1      5.803      6.582
REMARK  Name = 
REMARK  3 active torsions:
REMARK  status: ('A' for Active; 'I' for Inactive)
REMARK    1  A    between atoms: O_1  and  C_2
REMARK    2  A    between atoms: C_2  and  C_4
REMARK    3  A    between atoms: C_8  and  O_9
REMARK                            x       y       z     vdW  Elec       q    Type
REMARK                         _______ _______ _______ _____ _____    ______ ____
ROOT
ATOM      1  C   UNL     1      10.152   0.037  22.900  0.00  0.00    +0.219 A 
ATOM      2  C   UNL     1       9.624   1.072  22.072  0.00  0.00    +0.255 A 
ATOM      3  N   UNL     1       9.755   2.324  22.495  0.00  0.00    -0.154 NA
ATOM      4  S   UNL     1      10.557   2.168  23.958  0.00  0.00    +0.120 S 
ATOM      5  N   UNL     1      10.735   0.498  24.028  0.00  0.00    -0.180 NA
ENDROOT
BRANCH   1   6
ATOM      6  C   UNL     1      10.127  -1.398  22.647  0.00  0.00    +0.361 C 
ATOM      7  O   UNL     1      10.219  -2.268  23.499  0.00  0.00    -0.243 OA
BRANCH   6   8
ATOM      8  O   UNL     1       9.990  -1.704  21.322  0.00  0.00    -0.476 OA
ATOM      9  H   UNL     1      10.450  -2.555  21.149  0.00  0.00    +0.295 HD
ENDBRANCH   6   8
ENDBRANCH   1   6
BRANCH   2  10
ATOM     10  O   UNL     1       9.001   0.962  20.893  0.00  0.00    -0.490 OA
ATOM     11  H   UNL     1       8.996   1.851  20.501  0.00  0.00    +0.294 HD
ENDBRANCH   2  10
TORSDOF 3
ENDMDL
MODEL 5
REMARK VINA RESULT:      -4.0      6.045      6.884
REMARK  Name = 
REMARK  3 active torsions:
REMARK  status: ('A' for Active; 'I' for Inactive)
REMARK    1  A    between atoms: O_1  and  C_2
REMARK    2  A    between atoms: C_2  and  C_4
REMARK    3  A    between atoms: C_8  and  O_9
REMARK                            x       y       z     vdW  Elec       q    Type
REMARK                         _______ _______ _______ _____ _____    ______ ____
ROOT
ATOM      1  C   UNL     1       9.920   0.357  23.055  0.00  0.00    +0.219 A 
ATOM      2  C   UNL     1       9.616  -0.705  22.153  0.00  0.00    +0.255 A 
ATOM      3  N   UNL     1       9.390  -1.906  22.672  0.00  0.00    -0.154 NA
ATOM      4  S   UNL     1       9.569  -1.667  24.321  0.00  0.00    +0.120 S 
ATOM      5  N   UNL     1       9.926  -0.025  24.350  0.00  0.00    -0.180 NA
ENDROOT
BRANCH   1   6
ATOM      6  C   UNL     1      10.202   1.748  22.722  0.00  0.00    +0.361 C 
ATOM      7  O   UNL     1      10.707   2.567  23.475  0.00  0.00    -0.243 OA
BRANCH   6   8
ATOM      8  O   UNL     1       9.836   2.076  21.447  0.00  0.00    -0.476 OA
ATOM      9  H   UNL     1       9.203   2.827  21.487  0.00  0.00    +0.295 HD
ENDBRANCH   6   8
ENDBRANCH   1   6
BRANCH   2  10
ATOM     10  O   UNL     1       9.518  -0.665  20.819  0.00  0.00    -0.490 OA
ATOM     11  H   UNL     1      10.328  -0.236  20.496  0.00  0.00    +0.294 HD
ENDBRANCH   2  10
TORSDOF 3
ENDMDL
MODEL 6
REMARK VINA RESULT:      -4.0      6.069      6.789
REMARK  Name = 
REMARK  3 active torsions:
REMARK  status: ('A' for Active; 'I' for Inactive)
REMARK    1  A    between atoms: O_1  and  C_2
REMARK    2  A    between atoms: C_2  and  C_4
REMARK    3  A    between atoms: C_8  and  O_9
REMARK                            x       y       z     vdW  Elec       q    Type
REMARK                         _______ _______ _______ _____ _____    ______ ____
ROOT
ATOM      1  C   UNL     1       9.616   0.234  22.948  0.00  0.00    +0.219 A 
ATOM      2  C   UNL     1       9.722   1.618  22.616  0.00  0.00    +0.255 A 
ATOM      3  N   UNL     1       9.329   2.500  23.527  0.00  0.00    -0.154 NA
ATOM      4  S   UNL     1       8.822   1.548  24.810  0.00  0.00    +0.120 S 
ATOM      5  N   UNL     1       9.121   0.017  24.186  0.00  0.00    -0.180 NA
ENDROOT
BRANCH   1   6
ATOM      6  C   UNL     1       9.982  -0.906  22.117  0.00  0.00    +0.361 C 
ATOM      7  O   UNL     1      10.638  -1.868  22.486  0.00  0.00    -0.243 OA
BRANCH   6   8
ATOM      8  O   UNL     1       9.516  -0.805  20.837  0.00  0.00    -0.476 OA
ATOM      9  H   UNL     1      10.233  -1.072  20.221  0.00  0.00    +0.295 HD
ENDBRANCH   6   8
ENDBRANCH   1   6
BRANCH   2  10
ATOM     10  O   UNL     1      10.180   2.172  21.488  0.00  0.00    -0.490 OA
ATOM     11  H   UNL     1      11.140   2.018  21.476  0.00  0.00    +0.294 HD
ENDBRANCH   2  10
TORSDOF 3
ENDMDL
MODEL 7
REMARK VINA RESULT:      -4.0      5.412      6.116
REMARK  Name = 
REMARK  3 active torsions:
REMARK  status: ('A' for Active; 'I' for Inactive)
REMARK    1  A    between atoms: O_1  and  C_2
REMARK    2  A    between atoms: C_2  and  C_4
REMARK    3  A    between atoms: C_8  and  O_9
REMARK                            x       y       z     vdW  Elec       q    Type
REMARK                         _______ _______ _______ _____ _____    ______ ____
ROOT
ATOM      1  C   UNL     1      10.099   0.034  23.109  0.00  0.00    +0.219 A 
ATOM      2  C   UNL     1      10.077   0.671  24.385  0.00  0.00    +0.255 A 
ATOM      3  N   UNL     1      10.013   1.997  24.409  0.00  0.00    -0.154 NA
ATOM      4  S   UNL     1       9.983   2.424  22.788  0.00  0.00    +0.120 S 
ATOM      5  N   UNL     1      10.043   0.903  22.076  0.00  0.00    -0.180 NA
ENDROOT
BRANCH   1   6
ATOM      6  C   UNL     1      10.165  -1.395  22.834  0.00  0.00    +0.361 C 
ATOM      7  O   UNL     1      10.157  -2.279  23.678  0.00  0.00    -0.243 OA
BRANCH   6   8
ATOM      8  O   UNL     1      10.246  -1.680  21.500  0.00  0.00    -0.476 OA
ATOM      9  H   UNL     1      10.872  -1.048  21.083  0.00  0.00    +0.295 HD
ENDBRANCH   6   8
ENDBRANCH   1   6
BRANCH   2  10
ATOM     10  O   UNL     1      10.106   0.109  25.599  0.00  0.00    -0.490 OA
ATOM     11  H   UNL     1      10.982  -0.302  25.691  0.00  0.00    +0.294 HD
ENDBRANCH   2  10
TORSDOF 3
ENDMDL
MODEL 8
REMARK VINA RESULT:      -3.8      1.592      2.703
REMARK  Name = 
REMARK  3 active torsions:
REMARK  status: ('A' for Active; 'I' for Inactive)
REMARK    1  A    between atoms: O_1  and  C_2
REMARK    2  A    between atoms: C_2  and  C_4
REMARK    3  A    between atoms: C_8  and  O_9
REMARK                            x       y       z     vdW  Elec       q    Type
REMARK                         _______ _______ _______ _____ _____    ______ ____
ROOT
ATOM      1  C   UNL     1       8.878  -4.064  24.519  0.00  0.00    +0.219 A 
ATOM      2  C   UNL     1       7.639  -3.637  23.956  0.00  0.00    +0.255 A 
ATOM      3  N   UNL     1       7.659  -2.569  23.166  0.00  0.00    -0.154 NA
ATOM      4  S   UNL     1       9.272  -2.116  23.150  0.00  0.00    +0.120 S 
ATOM      5  N   UNL     1       9.927  -3.298  24.149  0.00  0.00    -0.180 NA
ENDROOT
BRANCH   1   6
ATOM      6  C   UNL     1       9.102  -5.198  25.407  0.00  0.00    +0.361 C 
ATOM      7  O   UNL     1       8.243  -5.751  26.078  0.00  0.00    -0.243 OA
BRANCH   6   8
ATOM      8  O   UNL     1      10.405  -5.607  25.432  0.00  0.00    -0.476 OA
ATOM      9  H   UNL     1      10.819  -5.385  24.569  0.00  0.00    +0.295 HD
ENDBRANCH   6   8
ENDBRANCH   1   6
BRANCH   2  10
ATOM     10  O   UNL     1       6.423  -4.176  24.106  0.00  0.00    -0.490 OA
ATOM     11  H   UNL     1       5.916  -3.558  24.660  0.00  0.00    +0.294 HD
ENDBRANCH   2  10
TORSDOF 3
ENDMDL
MODEL 9
REMARK VINA RESULT:      -3.8      2.612      3.480
REMARK  Name = 
REMARK  3 active torsions:
REMARK  status: ('A' for Active; 'I' for Inactive)
REMARK    1  A    between atoms: O_1  and  C_2
REMARK    2  A    between atoms: C_2  and  C_4
REMARK    3  A    between atoms: C_8  and  O_9
REMARK                            x       y       z     vdW  Elec       q    Type
REMARK                         _______ _______ _______ _____ _____    ______ ____
ROOT
ATOM      1  C   UNL     1       8.024  -5.113  25.313  0.00  0.00    +0.219 A 
ATOM      2  C   UNL     1       6.963  -4.918  24.381  0.00  0.00    +0.255 A 
ATOM      3  N   UNL     1       5.738  -5.258  24.765  0.00  0.00    -0.154 NA
ATOM      4  S   UNL     1       5.954  -5.829  26.325  0.00  0.00    +0.120 S 
ATOM      5  N   UNL     1       7.613  -5.625  26.493  0.00  0.00    -0.180 NA
ENDROOT
BRANCH   1   6
ATOM      6  C   UNL     1       9.438  -4.817  25.119  0.00  0.00    +0.361 C 
ATOM      7  O   UNL     1       9.883  -3.922  24.417  0.00  0.00    -0.243 OA
BRANCH   6   8
ATOM      8  O   UNL     1      10.260  -5.660  25.812  0.00  0.00    -0.476 OA
ATOM      9  H   UNL     1      10.566  -5.200  26.625  0.00  0.00    +0.295 HD
ENDBRANCH   6   8
ENDBRANCH   1   6
BRANCH   2  10
ATOM     10  O   UNL     1       7.023  -4.422  23.139  0.00  0.00    -0.490 OA
ATOM     11  H   UNL     1       6.158  -4.014  22.965  0.00  0.00    +0.294 HD
ENDBRANCH   2  10
TORSDOF 3
ENDMDL
