MODEL 1
REMARK VINA RESULT:      -7.8      0.000      0.000
REMARK  Name = 
REMARK  6 active torsions:
REMARK  status: ('A' for Active; 'I' for Inactive)
REMARK    1  A    between atoms: C_1  and  C_2
REMARK    2  A    between atoms: C_2  and  C_3
REMARK    3  A    between atoms: C_6  and  O_7
REMARK    4  A    between atoms: C_24  and  O_25
REMARK    5  A    between atoms: C_24  and  C_26
REMARK    6  A    between atoms: C_26  and  C_27
REMARK                            x       y       z     vdW  Elec       q    Type
REMARK                         _______ _______ _______ _____ _____    ______ ____
ROOT
ATOM      1  C   UNL     1       7.833  -3.916  24.368  0.00  0.00    -0.031 A 
ATOM      2  C   UNL     1       8.033  -2.549  24.221  0.00  0.00    +0.003 A 
ATOM      3  C   UNL     1       9.261  -1.755  24.513  0.00  0.00    +0.163 C 
ATOM      4  N   UNL     1       8.853  -0.400  24.187  0.00  0.00    -0.302 N 
ATOM      5  C   UNL     1       9.710   0.653  24.290  0.00  0.00    +0.259 A 
ATOM      6  O   UNL     1      10.874   0.552  24.663  0.00  0.00    -0.267 OA
ATOM      7  C   UNL     1       9.138   1.973  23.905  0.00  0.00    +0.061 A 
ATOM      8  C   UNL     1      10.110   3.088  23.992  0.00  0.00    +0.273 C 
ATOM      9  O   UNL     1       9.566   4.390  23.749  0.00  0.00    -0.457 OA
ATOM     10  C   UNL     1       8.336   4.631  23.258  0.00  0.00    +0.344 C 
ATOM     11  C   UNL     1       7.346   3.441  23.046  0.00  0.00    +0.188 C 
ATOM     12  O   UNL     1       8.037   5.786  22.950  0.00  0.00    -0.247 OA
ATOM     13  C   UNL     1       7.864   2.083  23.488  0.00  0.00    +0.008 A 
ATOM     14  C   UNL     1       7.034   0.860  23.373  0.00  0.00    +0.035 A 
ATOM     15  C   UNL     1       7.547  -0.332  23.732  0.00  0.00    +0.071 A 
ATOM     16  C   UNL     1       7.018  -1.717  23.751  0.00  0.00    +0.093 A 
ATOM     17  N   UNL     1       5.797  -2.149  23.409  0.00  0.00    -0.245 NA
ATOM     18  C   UNL     1       5.567  -3.480  23.560  0.00  0.00    +0.072 A 
ATOM     19  C   UNL     1       4.315  -3.991  23.221  0.00  0.00    +0.032 A 
ATOM     20  C   UNL     1       3.991  -5.343  23.372  0.00  0.00    +0.047 A 
ATOM     21  C   UNL     1       4.934  -6.221  23.876  0.00  0.00    +0.118 A 
ATOM     22  C   UNL     1       6.199  -5.767  24.214  0.00  0.00    +0.055 A 
ATOM     23  C   UNL     1       6.548  -4.404  24.056  0.00  0.00    +0.007 A 
ENDROOT
BRANCH   1  25
ATOM     24  C   UNL     1       9.088  -4.790  26.377  0.00  0.00    +0.009 C 
ATOM     25  C   UNL     1       8.972  -4.781  24.860  0.00  0.00    +0.033 C 
ENDBRANCH   1  25
BRANCH  11  26
ATOM     26  O   UNL     1       7.089   3.317  21.633  0.00  0.00    -0.373 OA
ATOM     27  H   UNL     1       7.831   2.824  21.238  0.00  0.00    +0.211 HD
ENDBRANCH  11  26
BRANCH  11  28
ATOM     28  C   UNL     1       5.996   3.867  23.681  0.00  0.00    +0.048 C 
ATOM     29  C   UNL     1       4.789   3.870  22.750  0.00  0.00    +0.007 C 
ENDBRANCH  11  28
BRANCH  21  30
ATOM     30  O   UNL     1       4.583  -7.532  24.026  0.00  0.00    -0.507 OA
ATOM     31  H   UNL     1       3.945  -7.775  23.335  0.00  0.00    +0.292 HD
ENDBRANCH  21  30
TORSDOF 4
ENDMDL
MODEL 2
REMARK VINA RESULT:      -7.6      2.058      7.803
REMARK  Name = 
REMARK  6 active torsions:
REMARK  status: ('A' for Active; 'I' for Inactive)
REMARK    1  A    between atoms: C_1  and  C_2
REMARK    2  A    between atoms: C_2  and  C_3
REMARK    3  A    between atoms: C_6  and  O_7
REMARK    4  A    between atoms: C_24  and  O_25
REMARK    5  A    between atoms: C_24  and  C_26
REMARK    6  A    between atoms: C_26  and  C_27
REMARK                            x       y       z     vdW  Elec       q    Type
REMARK                         _______ _______ _______ _____ _____    ______ ____
ROOT
ATOM      1  C   UNL     1       8.661   1.866  22.803  0.00  0.00    -0.031 A 
ATOM      2  C   UNL     1       8.408   0.612  23.346  0.00  0.00    +0.003 A 
ATOM      3  C   UNL     1       9.328  -0.557  23.448  0.00  0.00    +0.163 C 
ATOM      4  N   UNL     1       8.497  -1.566  24.077  0.00  0.00    -0.302 N 
ATOM      5  C   UNL     1       8.976  -2.805  24.381  0.00  0.00    +0.259 A 
ATOM      6  O   UNL     1      10.125  -3.168  24.151  0.00  0.00    -0.267 OA
ATOM      7  C   UNL     1       7.998  -3.717  25.036  0.00  0.00    +0.061 A 
ATOM      8  C   UNL     1       8.566  -5.040  25.387  0.00  0.00    +0.273 C 
ATOM      9  O   UNL     1       7.626  -5.988  25.906  0.00  0.00    -0.457 OA
ATOM     10  C   UNL     1       6.366  -5.697  26.279  0.00  0.00    +0.344 C 
ATOM     11  C   UNL     1       5.800  -4.262  26.023  0.00  0.00    +0.188 C 
ATOM     12  O   UNL     1       5.702  -6.562  26.851  0.00  0.00    -0.247 OA
ATOM     13  C   UNL     1       6.741  -3.316  25.297  0.00  0.00    +0.008 A 
ATOM     14  C   UNL     1       6.342  -1.929  24.961  0.00  0.00    +0.035 A 
ATOM     15  C   UNL     1       7.221  -1.107  24.358  0.00  0.00    +0.071 A 
ATOM     16  C   UNL     1       7.164   0.298  23.890  0.00  0.00    +0.093 A 
ATOM     17  N   UNL     1       6.133   1.152  23.937  0.00  0.00    -0.245 NA
ATOM     18  C   UNL     1       6.345   2.380  23.396  0.00  0.00    +0.072 A 
ATOM     19  C   UNL     1       5.310   3.314  23.415  0.00  0.00    +0.032 A 
ATOM     20  C   UNL     1       5.441   4.590  22.856  0.00  0.00    +0.047 A 
ATOM     21  C   UNL     1       6.633   4.957  22.258  0.00  0.00    +0.118 A 
ATOM     22  C   UNL     1       7.698   4.072  22.227  0.00  0.00    +0.055 A 
ATOM     23  C   UNL     1       7.588   2.780  22.799  0.00  0.00    +0.007 A 
ENDROOT
BRANCH   1  25
ATOM     24  C   UNL     1      10.943   2.842  23.263  0.00  0.00    +0.009 C 
ATOM     25  C   UNL     1      10.034   2.168  22.246  0.00  0.00    +0.033 C 
ENDBRANCH   1  25
BRANCH  11  26
ATOM     26  O   UNL     1       5.543  -3.647  27.302  0.00  0.00    -0.373 OA
ATOM     27  H   UNL     1       5.718  -4.312  27.992  0.00  0.00    +0.211 HD
ENDBRANCH  11  26
BRANCH  11  28
ATOM     28  C   UNL     1       4.409  -4.444  25.360  0.00  0.00    +0.048 C 
ATOM     29  C   UNL     1       4.413  -4.957  23.925  0.00  0.00    +0.007 C 
ENDBRANCH  11  28
BRANCH  21  30
ATOM     30  O   UNL     1       6.726   6.203  21.709  0.00  0.00    -0.507 OA
ATOM     31  H   UNL     1       7.622   6.334  21.358  0.00  0.00    +0.292 HD
ENDBRANCH  21  30
TORSDOF 4
ENDMDL
MODEL 3
REMARK VINA RESULT:      -7.5      2.174      3.052
REMARK  Name = 
REMARK  6 active torsions:
REMARK  status: ('A' for Active; 'I' for Inactive)
REMARK    1  A    between atoms: C_1  and  C_2
REMARK    2  A    between atoms: C_2  and  C_3
REMARK    3  A    between atoms: C_6  and  O_7
REMARK    4  A    between atoms: C_24  and  O_25
REMARK    5  A    between atoms: C_24  and  C_26
REMARK    6  A    between atoms: C_26  and  C_27
REMARK                            x       y       z     vdW  Elec       q    Type
REMARK                         _______ _______ _______ _____ _____    ______ ____
ROOT
ATOM      1  C   UNL     1       5.969  -5.090  26.468  0.00  0.00    -0.031 A 
ATOM      2  C   UNL     1       6.686  -4.008  25.973  0.00  0.00    +0.003 A 
ATOM      3  C   UNL     1       7.601  -3.088  26.708  0.00  0.00    +0.163 C 
ATOM      4  N   UNL     1       8.024  -2.161  25.674  0.00  0.00    -0.302 N 
ATOM      5  C   UNL     1       8.906  -1.155  25.928  0.00  0.00    +0.259 A 
ATOM      6  O   UNL     1       9.406  -0.946  27.029  0.00  0.00    -0.267 OA
ATOM      7  C   UNL     1       9.246  -0.302  24.755  0.00  0.00    +0.061 A 
ATOM      8  C   UNL     1      10.238   0.756  25.060  0.00  0.00    +0.273 C 
ATOM      9  O   UNL     1      10.498   1.673  23.991  0.00  0.00    -0.457 OA
ATOM     10  C   UNL     1      10.082   1.512  22.721  0.00  0.00    +0.344 C 
ATOM     11  C   UNL     1       9.133   0.322  22.368  0.00  0.00    +0.188 C 
ATOM     12  O   UNL     1      10.496   2.289  21.860  0.00  0.00    -0.247 OA
ATOM     13  C   UNL     1       8.706  -0.537  23.545  0.00  0.00    +0.008 A 
ATOM     14  C   UNL     1       7.789  -1.689  23.376  0.00  0.00    +0.035 A 
ATOM     15  C   UNL     1       7.472  -2.454  24.438  0.00  0.00    +0.071 A 
ATOM     16  C   UNL     1       6.612  -3.645  24.629  0.00  0.00    +0.093 A 
ATOM     17  N   UNL     1       5.864  -4.289  23.723  0.00  0.00    -0.245 NA
ATOM     18  C   UNL     1       5.136  -5.340  24.182  0.00  0.00    +0.072 A 
ATOM     19  C   UNL     1       4.338  -6.051  23.287  0.00  0.00    +0.032 A 
ATOM     20  C   UNL     1       3.540  -7.128  23.686  0.00  0.00    +0.047 A 
ATOM     21  C   UNL     1       3.528  -7.517  25.013  0.00  0.00    +0.118 A 
ATOM     22  C   UNL     1       4.315  -6.854  25.941  0.00  0.00    +0.055 A 
ATOM     23  C   UNL     1       5.139  -5.769  25.552  0.00  0.00    +0.007 A 
ENDROOT
BRANCH   1  25
ATOM     24  C   UNL     1       5.074  -4.756  28.805  0.00  0.00    +0.009 C 
ATOM     25  C   UNL     1       6.100  -5.459  27.928  0.00  0.00    +0.033 C 
ENDBRANCH   1  25
BRANCH  11  26
ATOM     26  O   UNL     1       9.839  -0.566  21.477  0.00  0.00    -0.373 OA
ATOM     27  H   UNL     1       9.228  -0.813  20.759  0.00  0.00    +0.211 HD
ENDBRANCH  11  26
BRANCH  11  28
ATOM     28  C   UNL     1       7.968   0.915  21.531  0.00  0.00    +0.048 C 
ATOM     29  C   UNL     1       7.019   1.849  22.270  0.00  0.00    +0.007 C 
ENDBRANCH  11  28
BRANCH  21  30
ATOM     30  O   UNL     1       2.727  -8.562  25.375  0.00  0.00    -0.507 OA
ATOM     31  H   UNL     1       2.997  -9.357  24.887  0.00  0.00    +0.292 HD
ENDBRANCH  21  30
TORSDOF 4
ENDMDL
MODEL 4
REMARK VINA RESULT:      -7.5      1.973      2.526
REMARK  Name = 
REMARK  6 active torsions:
REMARK  status: ('A' for Active; 'I' for Inactive)
REMARK    1  A    between atoms: C_1  and  C_2
REMARK    2  A    between atoms: C_2  and  C_3
REMARK    3  A    between atoms: C_6  and  O_7
REMARK    4  A    between atoms: C_24  and  O_25
REMARK    5  A    between atoms: C_24  and  C_26
REMARK    6  A    between atoms: C_26  and  C_27
REMARK                            x       y       z     vdW  Elec       q    Type
REMARK                         _______ _______ _______ _____ _____    ______ ____
ROOT
ATOM      1  C   UNL     1       6.332  -4.928  23.189  0.00  0.00    -0.031 A 
ATOM      2  C   UNL     1       6.758  -3.605  23.207  0.00  0.00    +0.003 A 
ATOM      3  C   UNL     1       7.838  -2.968  22.400  0.00  0.00    +0.163 C 
ATOM      4  N   UNL     1       7.827  -1.597  22.876  0.00  0.00    -0.302 N 
ATOM      5  C   UNL     1       8.664  -0.652  22.363  0.00  0.00    +0.259 A 
ATOM      6  O   UNL     1       9.484  -0.874  21.478  0.00  0.00    -0.267 OA
ATOM      7  C   UNL     1       8.517   0.708  22.951  0.00  0.00    +0.061 A 
ATOM      8  C   UNL     1       9.415   1.717  22.342  0.00  0.00    +0.273 C 
ATOM      9  O   UNL     1       9.391   3.008  22.963  0.00  0.00    -0.457 OA
ATOM     10  C   UNL     1       8.490   3.403  23.881  0.00  0.00    +0.344 C 
ATOM     11  C   UNL     1       7.456   2.371  24.438  0.00  0.00    +0.188 C 
ATOM     12  O   UNL     1       8.479   4.584  24.230  0.00  0.00    -0.247 OA
ATOM     13  C   UNL     1       7.611   0.954  23.916  0.00  0.00    +0.008 A 
ATOM     14  C   UNL     1       6.722  -0.143  24.366  0.00  0.00    +0.035 A 
ATOM     15  C   UNL     1       6.863  -1.376  23.844  0.00  0.00    +0.071 A 
ATOM     16  C   UNL     1       6.171  -2.669  24.057  0.00  0.00    +0.093 A 
ATOM     17  N   UNL     1       5.173  -2.953  24.904  0.00  0.00    -0.245 NA
ATOM     18  C   UNL     1       4.748  -4.243  24.922  0.00  0.00    +0.072 A 
ATOM     19  C   UNL     1       3.712  -4.601  25.783  0.00  0.00    +0.032 A 
ATOM     20  C   UNL     1       3.236  -5.913  25.878  0.00  0.00    +0.047 A 
ATOM     21  C   UNL     1       3.801  -6.906  25.098  0.00  0.00    +0.118 A 
ATOM     22  C   UNL     1       4.823  -6.600  24.214  0.00  0.00    +0.055 A 
ATOM     23  C   UNL     1       5.309  -5.275  24.095  0.00  0.00    +0.007 A 
ENDROOT
BRANCH   1  25
ATOM     24  C   UNL     1       6.299  -5.936  20.875  0.00  0.00    +0.009 C 
ATOM     25  C   UNL     1       6.983  -5.902  22.233  0.00  0.00    +0.033 C 
ENDBRANCH   1  25
BRANCH  11  26
ATOM     26  O   UNL     1       6.139   2.792  24.032  0.00  0.00    -0.373 OA
ATOM     27  H   UNL     1       5.625   2.981  24.838  0.00  0.00    +0.211 HD
ENDBRANCH  11  26
BRANCH  11  28
ATOM     28  C   UNL     1       7.480   2.508  25.984  0.00  0.00    +0.048 C 
ATOM     29  C   UNL     1       6.175   2.941  26.639  0.00  0.00    +0.007 C 
ENDBRANCH  11  28
BRANCH  21  30
ATOM     30  O   UNL     1       3.324  -8.179  25.224  0.00  0.00    -0.507 OA
ATOM     31  H   UNL     1       2.556  -8.177  25.818  0.00  0.00    +0.292 HD
ENDBRANCH  21  30
TORSDOF 4
ENDMDL
MODEL 5
REMARK VINA RESULT:      -7.1      2.275      7.838
REMARK  Name = 
REMARK  6 active torsions:
REMARK  status: ('A' for Active; 'I' for Inactive)
REMARK    1  A    between atoms: C_1  and  C_2
REMARK    2  A    between atoms: C_2  and  C_3
REMARK    3  A    between atoms: C_6  and  O_7
REMARK    4  A    between atoms: C_24  and  O_25
REMARK    5  A    between atoms: C_24  and  C_26
REMARK    6  A    between atoms: C_26  and  C_27
REMARK                            x       y       z     vdW  Elec       q    Type
REMARK                         _______ _______ _______ _____ _____    ______ ____
ROOT
ATOM      1  C   UNL     1       8.598   1.090  23.238  0.00  0.00    -0.031 A 
ATOM      2  C   UNL     1       8.130  -0.078  23.829  0.00  0.00    +0.003 A 
ATOM      3  C   UNL     1       8.879  -1.334  24.119  0.00  0.00    +0.163 C 
ATOM      4  N   UNL     1       7.862  -2.185  24.709  0.00  0.00    -0.302 N 
ATOM      5  C   UNL     1       8.144  -3.443  25.151  0.00  0.00    +0.259 A 
ATOM      6  O   UNL     1       9.257  -3.955  25.087  0.00  0.00    -0.267 OA
ATOM      7  C   UNL     1       6.993  -4.178  25.742  0.00  0.00    +0.061 A 
ATOM      8  C   UNL     1       7.347  -5.525  26.247  0.00  0.00    +0.273 C 
ATOM      9  O   UNL     1       6.242  -6.312  26.710  0.00  0.00    -0.457 OA
ATOM     10  C   UNL     1       4.995  -5.846  26.906  0.00  0.00    +0.344 C 
ATOM     11  C   UNL     1       4.647  -4.381  26.489  0.00  0.00    +0.188 C 
ATOM     12  O   UNL     1       4.168  -6.579  27.451  0.00  0.00    -0.247 OA
ATOM     13  C   UNL     1       5.774  -3.613  25.821  0.00  0.00    +0.008 A 
ATOM     14  C   UNL     1       5.593  -2.221  25.347  0.00  0.00    +0.035 A 
ATOM     15  C   UNL     1       6.631  -1.559  24.802  0.00  0.00    +0.071 A 
ATOM     16  C   UNL     1       6.803  -0.199  24.237  0.00  0.00    +0.093 A 
ATOM     17  N   UNL     1       5.889   0.770  24.101  0.00  0.00    -0.245 NA
ATOM     18  C   UNL     1       6.313   1.917  23.509  0.00  0.00    +0.072 A 
ATOM     19  C   UNL     1       5.408   2.964  23.339  0.00  0.00    +0.032 A 
ATOM     20  C   UNL     1       5.760   4.166  22.717  0.00  0.00    +0.047 A 
ATOM     21  C   UNL     1       7.048   4.342  22.245  0.00  0.00    +0.118 A 
ATOM     22  C   UNL     1       7.991   3.338  22.403  0.00  0.00    +0.055 A 
ATOM     23  C   UNL     1       7.656   2.119  23.042  0.00  0.00    +0.007 A 
ENDROOT
BRANCH   1  25
ATOM     24  C   UNL     1      10.957   1.587  23.988  0.00  0.00    +0.009 C 
ATOM     25  C   UNL     1      10.052   1.182  22.834  0.00  0.00    +0.033 C 
ENDBRANCH   1  25
BRANCH  11  26
ATOM     26  O   UNL     1       4.326  -3.638  27.682  0.00  0.00    -0.373 OA
ATOM     27  H   UNL     1       3.451  -3.229  27.552  0.00  0.00    +0.211 HD
ENDBRANCH  11  26
BRANCH  11  28
ATOM     28  C   UNL     1       3.327  -4.453  25.675  0.00  0.00    +0.048 C 
ATOM     29  C   UNL     1       3.428  -5.079  24.289  0.00  0.00    +0.007 C 
ENDBRANCH  11  28
BRANCH  21  30
ATOM     30  O   UNL     1       7.358   5.520  21.629  0.00  0.00    -0.507 OA
ATOM     31  H   UNL     1       8.116   5.928  22.079  0.00  0.00    +0.292 HD
ENDBRANCH  21  30
TORSDOF 4
ENDMDL
MODEL 6
REMARK VINA RESULT:      -7.0      2.194      2.520
REMARK  Name = 
REMARK  6 active torsions:
REMARK  status: ('A' for Active; 'I' for Inactive)
REMARK    1  A    between atoms: C_1  and  C_2
REMARK    2  A    between atoms: C_2  and  C_3
REMARK    3  A    between atoms: C_6  and  O_7
REMARK    4  A    between atoms: C_24  and  O_25
REMARK    5  A    between atoms: C_24  and  C_26
REMARK    6  A    between atoms: C_26  and  C_27
REMARK                            x       y       z     vdW  Elec       q    Type
REMARK                         _______ _______ _______ _____ _____    ______ ____
ROOT
ATOM      1  C   UNL     1       7.369  -4.368  25.125  0.00  0.00    -0.031 A 
ATOM      2  C   UNL     1       7.347  -3.062  24.649  0.00  0.00    +0.003 A 
ATOM      3  C   UNL     1       8.261  -2.421  23.661  0.00  0.00    +0.163 C 
ATOM      4  N   UNL     1       7.756  -1.062  23.591  0.00  0.00    -0.302 N 
ATOM      5  C   UNL     1       8.307  -0.132  22.762  0.00  0.00    +0.259 A 
ATOM      6  O   UNL     1       9.259  -0.356  22.021  0.00  0.00    -0.267 OA
ATOM      7  C   UNL     1       7.662   1.210  22.800  0.00  0.00    +0.061 A 
ATOM      8  C   UNL     1       8.263   2.182  21.857  0.00  0.00    +0.273 C 
ATOM      9  O   UNL     1       7.752   3.517  21.953  0.00  0.00    -0.457 OA
ATOM     10  C   UNL     1       6.664   3.877  22.659  0.00  0.00    +0.344 C 
ATOM     11  C   UNL     1       5.950   2.819  23.562  0.00  0.00    +0.188 C 
ATOM     12  O   UNL     1       6.235   5.025  22.542  0.00  0.00    -0.247 OA
ATOM     13  C   UNL     1       6.612   1.453  23.605  0.00  0.00    +0.008 A 
ATOM     14  C   UNL     1       6.068   0.351  24.433  0.00  0.00    +0.035 A 
ATOM     15  C   UNL     1       6.657  -0.859  24.408  0.00  0.00    +0.071 A 
ATOM     16  C   UNL     1       6.391  -2.149  25.089  0.00  0.00    +0.093 A 
ATOM     17  N   UNL     1       5.436  -2.440  25.982  0.00  0.00    -0.245 NA
ATOM     18  C   UNL     1       5.444  -3.704  26.480  0.00  0.00    +0.072 A 
ATOM     19  C   UNL     1       4.475  -4.068  27.415  0.00  0.00    +0.032 A 
ATOM     20  C   UNL     1       4.432  -5.341  27.992  0.00  0.00    +0.047 A 
ATOM     21  C   UNL     1       5.377  -6.287  27.638  0.00  0.00    +0.118 A 
ATOM     22  C   UNL     1       6.352  -5.981  26.702  0.00  0.00    +0.055 A 
ATOM     23  C   UNL     1       6.404  -4.701  26.097  0.00  0.00    +0.007 A 
ENDROOT
BRANCH   1  25
ATOM     24  C   UNL     1       9.710  -5.272  25.390  0.00  0.00    +0.009 C 
ATOM     25  C   UNL     1       8.411  -5.329  24.600  0.00  0.00    +0.033 C 
ENDBRANCH   1  25
BRANCH  11  26
ATOM     26  O   UNL     1       4.629   2.593  23.029  0.00  0.00    -0.373 OA
ATOM     27  H   UNL     1       4.674   2.713  22.063  0.00  0.00    +0.211 HD
ENDBRANCH  11  26
BRANCH  11  28
ATOM     28  C   UNL     1       5.734   3.489  24.945  0.00  0.00    +0.048 C 
ATOM     29  C   UNL     1       6.991   3.755  25.765  0.00  0.00    +0.007 C 
ENDBRANCH  11  28
BRANCH  21  30
ATOM     30  O   UNL     1       5.318  -7.515  28.230  0.00  0.00    -0.507 OA
ATOM     31  H   UNL     1       5.368  -8.204  27.547  0.00  0.00    +0.292 HD
ENDBRANCH  21  30
TORSDOF 4
ENDMDL
MODEL 7
REMARK VINA RESULT:      -7.0      2.381      8.109
REMARK  Name = 
REMARK  6 active torsions:
REMARK  status: ('A' for Active; 'I' for Inactive)
REMARK    1  A    between atoms: C_1  and  C_2
REMARK    2  A    between atoms: C_2  and  C_3
REMARK    3  A    between atoms: C_6  and  O_7
REMARK    4  A    between atoms: C_24  and  O_25
REMARK    5  A    between atoms: C_24  and  C_26
REMARK    6  A    between atoms: C_26  and  C_27
REMARK                            x       y       z     vdW  Elec       q    Type
REMARK                         _______ _______ _______ _____ _____    ______ ____
ROOT
ATOM      1  C   UNL     1       9.413   2.109  24.449  0.00  0.00    -0.031 A 
ATOM      2  C   UNL     1       9.008   0.803  24.697  0.00  0.00    +0.003 A 
ATOM      3  C   UNL     1       9.659  -0.467  24.264  0.00  0.00    +0.163 C 
ATOM      4  N   UNL     1       8.769  -1.482  24.800  0.00  0.00    -0.302 N 
ATOM      5  C   UNL     1       9.022  -2.812  24.648  0.00  0.00    +0.259 A 
ATOM      6  O   UNL     1       9.999  -3.258  24.055  0.00  0.00    -0.267 OA
ATOM      7  C   UNL     1       8.019  -3.720  25.268  0.00  0.00    +0.061 A 
ATOM      8  C   UNL     1       8.348  -5.157  25.117  0.00  0.00    +0.273 C 
ATOM      9  O   UNL     1       7.346  -6.064  25.591  0.00  0.00    -0.457 OA
ATOM     10  C   UNL     1       6.275  -5.712  26.326  0.00  0.00    +0.344 C 
ATOM     11  C   UNL     1       5.991  -4.199  26.596  0.00  0.00    +0.188 C 
ATOM     12  O   UNL     1       5.566  -6.599  26.804  0.00  0.00    -0.247 OA
ATOM     13  C   UNL     1       6.952  -3.232  25.926  0.00  0.00    +0.008 A 
ATOM     14  C   UNL     1       6.802  -1.764  26.067  0.00  0.00    +0.035 A 
ATOM     15  C   UNL     1       7.702  -0.941  25.496  0.00  0.00    +0.071 A 
ATOM     16  C   UNL     1       7.856   0.531  25.433  0.00  0.00    +0.093 A 
ATOM     17  N   UNL     1       7.062   1.477  25.952  0.00  0.00    -0.245 NA
ATOM     18  C   UNL     1       7.422   2.764  25.709  0.00  0.00    +0.072 A 
ATOM     19  C   UNL     1       6.635   3.795  26.222  0.00  0.00    +0.032 A 
ATOM     20  C   UNL     1       6.925   5.144  25.994  0.00  0.00    +0.047 A 
ATOM     21  C   UNL     1       8.028   5.489  25.234  0.00  0.00    +0.118 A 
ATOM     22  C   UNL     1       8.852   4.504  24.714  0.00  0.00    +0.055 A 
ATOM     23  C   UNL     1       8.581   3.133  24.945  0.00  0.00    +0.007 A 
ENDROOT
BRANCH   1  25
ATOM     24  C   UNL     1      10.470   2.264  22.162  0.00  0.00    +0.009 C 
ATOM     25  C   UNL     1      10.683   2.353  23.665  0.00  0.00    +0.033 C 
ENDBRANCH   1  25
BRANCH  11  26
ATOM     26  O   UNL     1       6.126  -3.962  28.011  0.00  0.00    -0.373 OA
ATOM     27  H   UNL     1       5.594  -3.177  28.233  0.00  0.00    +0.211 HD
ENDBRANCH  11  26
BRANCH  11  28
ATOM     28  C   UNL     1       4.491  -3.964  26.274  0.00  0.00    +0.048 C 
ATOM     29  C   UNL     1       4.099  -4.052  24.804  0.00  0.00    +0.007 C 
ENDBRANCH  11  28
BRANCH  21  30
ATOM     30  O   UNL     1       8.276   6.814  25.017  0.00  0.00    -0.507 OA
ATOM     31  H   UNL     1       9.235   6.968  25.031  0.00  0.00    +0.292 HD
ENDBRANCH  21  30
TORSDOF 4
ENDMDL
MODEL 8
REMARK VINA RESULT:      -6.8      2.097      3.247
REMARK  Name = 
REMARK  6 active torsions:
REMARK  status: ('A' for Active; 'I' for Inactive)
REMARK    1  A    between atoms: C_1  and  C_2
REMARK    2  A    between atoms: C_2  and  C_3
REMARK    3  A    between atoms: C_6  and  O_7
REMARK    4  A    between atoms: C_24  and  O_25
REMARK    5  A    between atoms: C_24  and  C_26
REMARK    6  A    between atoms: C_26  and  C_27
REMARK                            x       y       z     vdW  Elec       q    Type
REMARK                         _______ _______ _______ _____ _____    ______ ____
ROOT
ATOM      1  C   UNL     1       4.439  -3.233  25.404  0.00  0.00    -0.031 A 
ATOM      2  C   UNL     1       5.273  -2.133  25.240  0.00  0.00    +0.003 A 
ATOM      3  C   UNL     1       5.141  -0.773  25.838  0.00  0.00    +0.163 C 
ATOM      4  N   UNL     1       6.283  -0.068  25.285  0.00  0.00    -0.302 N 
ATOM      5  C   UNL     1       6.553   1.228  25.608  0.00  0.00    +0.259 A 
ATOM      6  O   UNL     1       5.867   1.897  26.374  0.00  0.00    -0.267 OA
ATOM      7  C   UNL     1       7.768   1.799  24.966  0.00  0.00    +0.061 A 
ATOM      8  C   UNL     1       8.051   3.196  25.372  0.00  0.00    +0.273 C 
ATOM      9  O   UNL     1       9.141   3.821  24.683  0.00  0.00    -0.457 OA
ATOM     10  C   UNL     1      10.016   3.181  23.886  0.00  0.00    +0.344 C 
ATOM     11  C   UNL     1       9.790   1.670  23.553  0.00  0.00    +0.188 C 
ATOM     12  O   UNL     1      10.998   3.796  23.470  0.00  0.00    -0.247 OA
ATOM     13  C   UNL     1       8.526   1.062  24.133  0.00  0.00    +0.008 A 
ATOM     14  C   UNL     1       8.160  -0.353  23.888  0.00  0.00    +0.035 A 
ATOM     15  C   UNL     1       7.054  -0.867  24.459  0.00  0.00    +0.071 A 
ATOM     16  C   UNL     1       6.406  -2.200  24.432  0.00  0.00    +0.093 A 
ATOM     17  N   UNL     1       6.781  -3.297  23.761  0.00  0.00    -0.245 NA
ATOM     18  C   UNL     1       5.973  -4.383  23.886  0.00  0.00    +0.072 A 
ATOM     19  C   UNL     1       6.310  -5.556  23.212  0.00  0.00    +0.032 A 
ATOM     20  C   UNL     1       5.518  -6.707  23.270  0.00  0.00    +0.047 A 
ATOM     21  C   UNL     1       4.354  -6.702  24.017  0.00  0.00    +0.118 A 
ATOM     22  C   UNL     1       3.982  -5.567  24.719  0.00  0.00    +0.055 A 
ATOM     23  C   UNL     1       4.778  -4.395  24.682  0.00  0.00    +0.007 A 
ENDROOT
BRANCH   1  25
ATOM     24  C   UNL     1       3.551  -3.481  27.754  0.00  0.00    +0.009 C 
ATOM     25  C   UNL     1       3.234  -3.119  26.310  0.00  0.00    +0.033 C 
ENDBRANCH   1  25
BRANCH  11  26
ATOM     26  O   UNL     1      10.880   0.918  24.124  0.00  0.00    -0.373 OA
ATOM     27  H   UNL     1      11.712   1.305  23.797  0.00  0.00    +0.211 HD
ENDBRANCH  11  26
BRANCH  11  28
ATOM     28  C   UNL     1       9.944   1.526  22.016  0.00  0.00    +0.048 C 
ATOM     29  C   UNL     1       8.658   1.609  21.203  0.00  0.00    +0.007 C 
ENDBRANCH  11  28
BRANCH  21  30
ATOM     30  O   UNL     1       3.595  -7.836  24.042  0.00  0.00    -0.507 OA
ATOM     31  H   UNL     1       2.782  -7.667  24.547  0.00  0.00    +0.292 HD
ENDBRANCH  21  30
TORSDOF 4
ENDMDL
MODEL 9
REMARK VINA RESULT:      -6.8      2.053      8.209
REMARK  Name = 
REMARK  6 active torsions:
REMARK  status: ('A' for Active; 'I' for Inactive)
REMARK    1  A    between atoms: C_1  and  C_2
REMARK    2  A    between atoms: C_2  and  C_3
REMARK    3  A    between atoms: C_6  and  O_7
REMARK    4  A    between atoms: C_24  and  O_25
REMARK    5  A    between atoms: C_24  and  C_26
REMARK    6  A    between atoms: C_26  and  C_27
REMARK                            x       y       z     vdW  Elec       q    Type
REMARK                         _______ _______ _______ _____ _____    ______ ____
ROOT
ATOM      1  C   UNL     1       8.057  -0.547  22.580  0.00  0.00    -0.031 A 
ATOM      2  C   UNL     1       7.295  -1.628  23.004  0.00  0.00    +0.003 A 
ATOM      3  C   UNL     1       7.469  -3.072  22.673  0.00  0.00    +0.163 C 
ATOM      4  N   UNL     1       6.370  -3.699  23.383  0.00  0.00    -0.302 N 
ATOM      5  C   UNL     1       6.179  -5.048  23.366  0.00  0.00    +0.259 A 
ATOM      6  O   UNL     1       6.901  -5.832  22.758  0.00  0.00    -0.267 OA
ATOM      7  C   UNL     1       5.014  -5.531  24.157  0.00  0.00    +0.061 A 
ATOM      8  C   UNL     1       4.862  -7.005  24.146  0.00  0.00    +0.273 C 
ATOM      9  O   UNL     1       3.684  -7.501  24.793  0.00  0.00    -0.457 OA
ATOM     10  C   UNL     1       2.859  -6.763  25.559  0.00  0.00    +0.344 C 
ATOM     11  C   UNL     1       3.089  -5.222  25.674  0.00  0.00    +0.188 C 
ATOM     12  O   UNL     1       1.964  -7.333  26.185  0.00  0.00    -0.247 OA
ATOM     13  C   UNL     1       4.227  -4.673  24.831  0.00  0.00    +0.008 A 
ATOM     14  C   UNL     1       4.556  -3.228  24.814  0.00  0.00    +0.035 A 
ATOM     15  C   UNL     1       5.602  -2.788  24.090  0.00  0.00    +0.071 A 
ATOM     16  C   UNL     1       6.199  -1.453  23.848  0.00  0.00    +0.093 A 
ATOM     17  N   UNL     1       5.797  -0.263  24.312  0.00  0.00    -0.245 NA
ATOM     18  C   UNL     1       6.512   0.816  23.898  0.00  0.00    +0.072 A 
ATOM     19  C   UNL     1       6.143   2.084  24.346  0.00  0.00    +0.032 A 
ATOM     20  C   UNL     1       6.812   3.244  23.946  0.00  0.00    +0.047 A 
ATOM     21  C   UNL     1       7.881   3.153  23.074  0.00  0.00    +0.118 A 
ATOM     22  C   UNL     1       8.299   1.916  22.611  0.00  0.00    +0.055 A 
ATOM     23  C   UNL     1       7.641   0.728  23.015  0.00  0.00    +0.007 A 
ENDROOT
BRANCH   1  25
ATOM     24  C   UNL     1      10.493  -1.197  22.460  0.00  0.00    +0.009 C 
ATOM     25  C   UNL     1       9.250  -0.789  21.683  0.00  0.00    +0.033 C 
ENDBRANCH   1  25
BRANCH  11  26
ATOM     26  O   UNL     1       3.439  -4.921  27.040  0.00  0.00    -0.373 OA
ATOM     27  H   UNL     1       3.007  -5.583  27.610  0.00  0.00    +0.211 HD
ENDBRANCH  11  26
BRANCH  11  28
ATOM     28  C   UNL     1       1.712  -4.547  25.437  0.00  0.00    +0.048 C 
ATOM     29  C   UNL     1       1.122  -4.699  24.040  0.00  0.00    +0.007 C 
ENDBRANCH  11  28
BRANCH  21  30
ATOM     30  O   UNL     1       8.505   4.306  22.690  0.00  0.00    -0.507 OA
ATOM     31  H   UNL     1       8.520   4.927  23.436  0.00  0.00    +0.292 HD
ENDBRANCH  21  30
TORSDOF 4
ENDMDL
