MODEL 1
REMARK VINA RESULT:      -7.2      0.000      0.000
REMARK  Name = 
REMARK  6 active torsions:
REMARK  status: ('A' for Active; 'I' for Inactive)
REMARK    1  A    between atoms: O_1  and  C_2
REMARK    2  A    between atoms: C_2  and  C_4
REMARK    3  A    between atoms: C_4  and  C_5
REMARK    4  A    between atoms: C_5  and  N_6
REMARK    5  A    between atoms: C_11  and  C_12
REMARK    6  A    between atoms: C_15  and  C_17
REMARK                            x       y       z     vdW  Elec       q    Type
REMARK                         _______ _______ _______ _____ _____    ______ ____
ROOT
ATOM      1  N   UNL     1       9.716   4.828  23.781  0.00  0.00    -0.255 N 
ATOM      2  C   UNL     1      10.500   3.689  23.732  0.00  0.00    +0.258 C 
ATOM      3  O   UNL     1      11.699   3.634  23.490  0.00  0.00    -0.269 OA
ATOM      4  C   UNL     1       9.703   2.478  24.046  0.00  0.00    +0.080 C 
ATOM      5  C   UNL     1      10.275   1.268  24.003  0.00  0.00    +0.066 C 
ATOM      6  S   UNL     1       8.094   2.917  24.427  0.00  0.00    -0.061 S 
ATOM      7  C   UNL     1       8.387   4.624  24.119  0.00  0.00    +0.121 C 
ATOM      8  S   UNL     1       7.159   5.748  24.236  0.00  0.00    -0.027 S 
ENDROOT
BRANCH   5   9
ATOM      9  C   UNL     1       9.643   0.076  24.436  0.00  0.00    +0.130 A 
ATOM     10  O   UNL     1       9.074  -0.834  23.576  0.00  0.00    -0.455 OA
ATOM     11  C   UNL     1       8.473  -1.816  24.302  0.00  0.00    +0.136 A 
ATOM     12  C   UNL     1       8.654  -1.564  25.646  0.00  0.00    +0.050 A 
ATOM     13  C   UNL     1       9.394  -0.360  25.731  0.00  0.00    +0.050 A 
BRANCH  11  14
ATOM     14  C   UNL     1       7.800  -2.865  23.539  0.00  0.00    +0.017 A 
ATOM     15  C   UNL     1       6.842  -2.560  22.559  0.00  0.00    +0.013 A 
ATOM     16  C   UNL     1       6.241  -3.572  21.802  0.00  0.00    +0.021 A 
ATOM     17  C   UNL     1       6.590  -4.901  22.023  0.00  0.00    +0.041 A 
ATOM     18 CL   UNL     1       5.882  -6.147  21.072  0.00  0.00    -0.084 Cl
ATOM     19  C   UNL     1       7.520  -5.227  23.006  0.00  0.00    +0.021 A 
ATOM     20  C   UNL     1       8.118  -4.214  23.761  0.00  0.00    +0.013 A 
ENDBRANCH  11  14
ENDBRANCH   5   9
BRANCH   1  21
ATOM     21  C   UNL     1      10.337   6.167  23.734  0.00  0.00    +0.126 C 
BRANCH  21  22
ATOM     22  C   UNL     1      10.744   6.757  25.084  0.00  0.00    +0.140 C 
BRANCH  22  23
ATOM     23  C   UNL     1      12.236   6.715  25.269  0.00  0.00    +0.306 C 
ATOM     24  O   UNL     1      12.831   7.081  26.269  0.00  0.00    -0.251 OA
BRANCH  23  25
ATOM     25  O   UNL     1      12.870   6.202  24.189  0.00  0.00    -0.481 OA
ATOM     26  H   UNL     1      13.818   6.440  24.138  0.00  0.00    +0.295 HD
ENDBRANCH  23  25
ENDBRANCH  22  23
ENDBRANCH  21  22
ENDBRANCH   1  21
TORSDOF 6
ENDMDL
MODEL 2
REMARK VINA RESULT:      -6.8      4.883      9.188
REMARK  Name = 
REMARK  6 active torsions:
REMARK  status: ('A' for Active; 'I' for Inactive)
REMARK    1  A    between atoms: O_1  and  C_2
REMARK    2  A    between atoms: C_2  and  C_4
REMARK    3  A    between atoms: C_4  and  C_5
REMARK    4  A    between atoms: C_5  and  N_6
REMARK    5  A    between atoms: C_11  and  C_12
REMARK    6  A    between atoms: C_15  and  C_17
REMARK                            x       y       z     vdW  Elec       q    Type
REMARK                         _______ _______ _______ _____ _____    ______ ____
ROOT
ATOM      1  N   UNL     1       6.365  -4.641  24.953  0.00  0.00    -0.255 N 
ATOM      2  C   UNL     1       7.692  -4.297  24.761  0.00  0.00    +0.258 C 
ATOM      3  O   UNL     1       8.672  -4.963  25.066  0.00  0.00    -0.269 OA
ATOM      4  C   UNL     1       7.810  -2.982  24.087  0.00  0.00    +0.080 C 
ATOM      5  C   UNL     1       9.018  -2.452  23.855  0.00  0.00    +0.066 C 
ATOM      6  S   UNL     1       6.256  -2.369  23.718  0.00  0.00    -0.061 S 
ATOM      7  C   UNL     1       5.436  -3.727  24.478  0.00  0.00    +0.121 C 
ATOM      8  S   UNL     1       3.771  -3.793  24.570  0.00  0.00    -0.027 S 
ENDROOT
BRANCH   5   9
ATOM      9  C   UNL     1       9.238  -1.285  23.083  0.00  0.00    +0.130 A 
ATOM     10  O   UNL     1       9.331  -0.025  23.627  0.00  0.00    -0.455 OA
ATOM     11  C   UNL     1       9.450   0.885  22.621  0.00  0.00    +0.136 A 
ATOM     12  C   UNL     1       9.449   0.226  21.410  0.00  0.00    +0.050 A 
ATOM     13  C   UNL     1       9.309  -1.151  21.703  0.00  0.00    +0.050 A 
BRANCH  11  14
ATOM     14  C   UNL     1       9.545   2.286  23.025  0.00  0.00    +0.017 A 
ATOM     15  C   UNL     1       8.399   3.066  23.248  0.00  0.00    +0.013 A 
ATOM     16  C   UNL     1       8.504   4.393  23.680  0.00  0.00    +0.021 A 
ATOM     17  C   UNL     1       9.761   4.953  23.891  0.00  0.00    +0.041 A 
ATOM     18 CL   UNL     1       9.897   6.571  24.457  0.00  0.00    -0.084 Cl
ATOM     19  C   UNL     1      10.910   4.205  23.653  0.00  0.00    +0.021 A 
ATOM     20  C   UNL     1      10.802   2.880  23.220  0.00  0.00    +0.013 A 
ENDBRANCH  11  14
ENDBRANCH   5   9
BRANCH   1  21
ATOM     21  C   UNL     1       6.000  -6.003  25.390  0.00  0.00    +0.126 C 
BRANCH  21  22
ATOM     22  C   UNL     1       5.446  -6.118  26.810  0.00  0.00    +0.140 C 
BRANCH  22  23
ATOM     23  C   UNL     1       6.410  -5.559  27.819  0.00  0.00    +0.306 C 
ATOM     24  O   UNL     1       6.148  -4.696  28.640  0.00  0.00    -0.251 OA
BRANCH  23  25
ATOM     25  O   UNL     1       7.632  -6.135  27.731  0.00  0.00    -0.481 OA
ATOM     26  H   UNL     1       7.960  -6.497  28.579  0.00  0.00    +0.295 HD
ENDBRANCH  23  25
ENDBRANCH  22  23
ENDBRANCH  21  22
ENDBRANCH   1  21
TORSDOF 6
ENDMDL
MODEL 3
REMARK VINA RESULT:      -6.8      5.597      9.907
REMARK  Name = 
REMARK  6 active torsions:
REMARK  status: ('A' for Active; 'I' for Inactive)
REMARK    1  A    between atoms: O_1  and  C_2
REMARK    2  A    between atoms: C_2  and  C_4
REMARK    3  A    between atoms: C_4  and  C_5
REMARK    4  A    between atoms: C_5  and  N_6
REMARK    5  A    between atoms: C_11  and  C_12
REMARK    6  A    between atoms: C_15  and  C_17
REMARK                            x       y       z     vdW  Elec       q    Type
REMARK                         _______ _______ _______ _____ _____    ______ ____
ROOT
ATOM      1  N   UNL     1       5.482  -5.522  25.723  0.00  0.00    -0.255 N 
ATOM      2  C   UNL     1       6.719  -5.113  26.191  0.00  0.00    +0.258 C 
ATOM      3  O   UNL     1       7.343  -5.594  27.128  0.00  0.00    -0.269 OA
ATOM      4  C   UNL     1       7.251  -3.990  25.383  0.00  0.00    +0.080 C 
ATOM      5  C   UNL     1       8.419  -3.422  25.708  0.00  0.00    +0.066 C 
ATOM      6  S   UNL     1       6.177  -3.628  24.101  0.00  0.00    -0.061 S 
ATOM      7  C   UNL     1       5.006  -4.836  24.616  0.00  0.00    +0.121 C 
ATOM      8  S   UNL     1       3.554  -5.031  23.817  0.00  0.00    -0.027 S 
ENDROOT
BRANCH   5   9
ATOM      9  C   UNL     1       9.082  -2.456  24.911  0.00  0.00    +0.130 A 
ATOM     10  O   UNL     1       8.948  -1.101  25.099  0.00  0.00    -0.455 OA
ATOM     11  C   UNL     1       9.633  -0.447  24.120  0.00  0.00    +0.136 A 
ATOM     12  C   UNL     1      10.232  -1.371  23.290  0.00  0.00    +0.050 A 
ATOM     13  C   UNL     1       9.878  -2.647  23.790  0.00  0.00    +0.050 A 
BRANCH  11  14
ATOM     14  C   UNL     1       9.584   1.013  24.160  0.00  0.00    +0.017 A 
ATOM     15  C   UNL     1      10.520   1.799  23.469  0.00  0.00    +0.013 A 
ATOM     16  C   UNL     1      10.433   3.195  23.477  0.00  0.00    +0.021 A 
ATOM     17  C   UNL     1       9.407   3.819  24.182  0.00  0.00    +0.041 A 
ATOM     18 CL   UNL     1       9.273   5.533  24.167  0.00  0.00    -0.084 Cl
ATOM     19  C   UNL     1       8.483   3.060  24.894  0.00  0.00    +0.021 A 
ATOM     20  C   UNL     1       8.574   1.665  24.885  0.00  0.00    +0.013 A 
ENDBRANCH  11  14
ENDBRANCH   5   9
BRANCH   1  21
ATOM     21  C   UNL     1       4.868  -6.769  26.222  0.00  0.00    +0.126 C 
BRANCH  21  22
ATOM     22  C   UNL     1       3.903  -6.610  27.396  0.00  0.00    +0.140 C 
BRANCH  22  23
ATOM     23  C   UNL     1       4.504  -7.135  28.670  0.00  0.00    +0.306 C 
ATOM     24  O   UNL     1       3.950  -7.147  29.757  0.00  0.00    -0.251 OA
BRANCH  23  25
ATOM     25  O   UNL     1       5.753  -7.622  28.482  0.00  0.00    -0.481 OA
ATOM     26  H   UNL     1       5.896  -8.506  28.877  0.00  0.00    +0.295 HD
ENDBRANCH  23  25
ENDBRANCH  22  23
ENDBRANCH  21  22
ENDBRANCH   1  21
TORSDOF 6
ENDMDL
MODEL 4
REMARK VINA RESULT:      -6.8      4.693      9.170
REMARK  Name = 
REMARK  6 active torsions:
REMARK  status: ('A' for Active; 'I' for Inactive)
REMARK    1  A    between atoms: O_1  and  C_2
REMARK    2  A    between atoms: C_2  and  C_4
REMARK    3  A    between atoms: C_4  and  C_5
REMARK    4  A    between atoms: C_5  and  N_6
REMARK    5  A    between atoms: C_11  and  C_12
REMARK    6  A    between atoms: C_15  and  C_17
REMARK                            x       y       z     vdW  Elec       q    Type
REMARK                         _______ _______ _______ _____ _____    ______ ____
ROOT
ATOM      1  N   UNL     1       7.230  -3.931  24.946  0.00  0.00    -0.255 N 
ATOM      2  C   UNL     1       8.047  -3.145  25.739  0.00  0.00    +0.258 C 
ATOM      3  O   UNL     1       8.475  -3.424  26.851  0.00  0.00    -0.269 OA
ATOM      4  C   UNL     1       8.391  -1.874  25.057  0.00  0.00    +0.080 C 
ATOM      5  C   UNL     1       9.137  -0.955  25.684  0.00  0.00    +0.066 C 
ATOM      6  S   UNL     1       7.709  -1.846  23.488  0.00  0.00    -0.061 S 
ATOM      7  C   UNL     1       6.917  -3.402  23.702  0.00  0.00    +0.121 C 
ATOM      8  S   UNL     1       5.939  -4.048  22.514  0.00  0.00    -0.027 S 
ENDROOT
BRANCH   5   9
ATOM      9  C   UNL     1       9.646   0.212  25.063  0.00  0.00    +0.130 A 
ATOM     10  O   UNL     1       8.861   1.284  24.710  0.00  0.00    -0.455 OA
ATOM     11  C   UNL     1       9.628   2.199  24.055  0.00  0.00    +0.136 A 
ATOM     12  C   UNL     1      10.926   1.739  23.986  0.00  0.00    +0.050 A 
ATOM     13  C   UNL     1      10.936   0.474  24.622  0.00  0.00    +0.050 A 
BRANCH  11  14
ATOM     14  C   UNL     1       8.943   3.404  23.592  0.00  0.00    +0.017 A 
ATOM     15  C   UNL     1       9.397   4.687  23.940  0.00  0.00    +0.013 A 
ATOM     16  C   UNL     1       8.760   5.833  23.451  0.00  0.00    +0.021 A 
ATOM     17  C   UNL     1       7.658   5.705  22.610  0.00  0.00    +0.041 A 
ATOM     18 CL   UNL     1       6.893   7.108  21.976  0.00  0.00    -0.084 Cl
ATOM     19  C   UNL     1       7.177   4.443  22.272  0.00  0.00    +0.021 A 
ATOM     20  C   UNL     1       7.815   3.300  22.763  0.00  0.00    +0.013 A 
ENDBRANCH  11  14
ENDBRANCH   5   9
BRANCH   1  21
ATOM     21  C   UNL     1       6.951  -5.333  25.316  0.00  0.00    +0.126 C 
BRANCH  21  22
ATOM     22  C   UNL     1       5.790  -5.545  26.287  0.00  0.00    +0.140 C 
BRANCH  22  23
ATOM     23  C   UNL     1       6.242  -6.264  27.528  0.00  0.00    +0.306 C 
ATOM     24  O   UNL     1       5.526  -6.938  28.250  0.00  0.00    -0.251 OA
BRANCH  23  25
ATOM     25  O   UNL     1       7.564  -6.097  27.762  0.00  0.00    -0.481 OA
ATOM     26  H   UNL     1       7.783  -5.947  28.704  0.00  0.00    +0.295 HD
ENDBRANCH  23  25
ENDBRANCH  22  23
ENDBRANCH  21  22
ENDBRANCH   1  21
TORSDOF 6
ENDMDL
MODEL 5
REMARK VINA RESULT:      -6.7      3.524      5.141
REMARK  Name = 
REMARK  6 active torsions:
REMARK  status: ('A' for Active; 'I' for Inactive)
REMARK    1  A    between atoms: O_1  and  C_2
REMARK    2  A    between atoms: C_2  and  C_4
REMARK    3  A    between atoms: C_4  and  C_5
REMARK    4  A    between atoms: C_5  and  N_6
REMARK    5  A    between atoms: C_11  and  C_12
REMARK    6  A    between atoms: C_15  and  C_17
REMARK                            x       y       z     vdW  Elec       q    Type
REMARK                         _______ _______ _______ _____ _____    ______ ____
ROOT
ATOM      1  N   UNL     1       8.879  -0.091  22.300  0.00  0.00    -0.255 N 
ATOM      2  C   UNL     1       9.345  -1.369  22.557  0.00  0.00    +0.258 C 
ATOM      3  O   UNL     1      10.460  -1.806  22.305  0.00  0.00    -0.269 OA
ATOM      4  C   UNL     1       8.309  -2.190  23.229  0.00  0.00    +0.080 C 
ATOM      5  C   UNL     1       8.553  -3.474  23.519  0.00  0.00    +0.066 C 
ATOM      6  S   UNL     1       6.909  -1.249  23.516  0.00  0.00    -0.061 S 
ATOM      7  C   UNL     1       7.584   0.168  22.722  0.00  0.00    +0.121 C 
ATOM      8  S   UNL     1       6.694   1.570  22.547  0.00  0.00    -0.027 S 
ENDROOT
BRANCH   5   9
ATOM      9  C   UNL     1       7.694  -4.290  24.295  0.00  0.00    +0.130 A 
ATOM     10  O   UNL     1       6.528  -4.836  23.810  0.00  0.00    -0.455 OA
ATOM     11  C   UNL     1       5.888  -5.486  24.821  0.00  0.00    +0.136 A 
ATOM     12  C   UNL     1       6.636  -5.382  25.974  0.00  0.00    +0.050 A 
ATOM     13  C   UNL     1       7.781  -4.619  25.641  0.00  0.00    +0.050 A 
BRANCH  11  14
ATOM     14  C   UNL     1       4.614  -6.115  24.480  0.00  0.00    +0.017 A 
ATOM     15  C   UNL     1       3.888  -5.735  23.340  0.00  0.00    +0.013 A 
ATOM     16  C   UNL     1       2.693  -6.379  22.999  0.00  0.00    +0.021 A 
ATOM     17  C   UNL     1       2.212  -7.410  23.801  0.00  0.00    +0.041 A 
ATOM     18 CL   UNL     1       0.763  -8.230  23.369  0.00  0.00    -0.084 Cl
ATOM     19  C   UNL     1       2.902  -7.787  24.948  0.00  0.00    +0.021 A 
ATOM     20  C   UNL     1       4.095  -7.141  25.287  0.00  0.00    +0.013 A 
ENDBRANCH  11  14
ENDBRANCH   5   9
BRANCH   1  21
ATOM     21  C   UNL     1       9.806   0.968  21.852  0.00  0.00    +0.126 C 
BRANCH  21  22
ATOM     22  C   UNL     1      10.151   2.032  22.894  0.00  0.00    +0.140 C 
BRANCH  22  23
ATOM     23  C   UNL     1      10.448   1.410  24.230  0.00  0.00    +0.306 C 
ATOM     24  O   UNL     1      11.445   0.761  24.499  0.00  0.00    -0.251 OA
BRANCH  23  25
ATOM     25  O   UNL     1       9.475   1.662  25.138  0.00  0.00    -0.481 OA
ATOM     26  H   UNL     1       9.652   2.443  25.700  0.00  0.00    +0.295 HD
ENDBRANCH  23  25
ENDBRANCH  22  23
ENDBRANCH  21  22
ENDBRANCH   1  21
TORSDOF 6
ENDMDL
MODEL 6
REMARK VINA RESULT:      -6.6      4.703      9.533
REMARK  Name = 
REMARK  6 active torsions:
REMARK  status: ('A' for Active; 'I' for Inactive)
REMARK    1  A    between atoms: O_1  and  C_2
REMARK    2  A    between atoms: C_2  and  C_4
REMARK    3  A    between atoms: C_4  and  C_5
REMARK    4  A    between atoms: C_5  and  N_6
REMARK    5  A    between atoms: C_11  and  C_12
REMARK    6  A    between atoms: C_15  and  C_17
REMARK                            x       y       z     vdW  Elec       q    Type
REMARK                         _______ _______ _______ _____ _____    ______ ____
ROOT
ATOM      1  N   UNL     1       7.361  -4.041  23.718  0.00  0.00    -0.255 N 
ATOM      2  C   UNL     1       6.640  -2.953  23.257  0.00  0.00    +0.258 C 
ATOM      3  O   UNL     1       5.650  -2.982  22.537  0.00  0.00    -0.269 OA
ATOM      4  C   UNL     1       7.202  -1.682  23.774  0.00  0.00    +0.080 C 
ATOM      5  C   UNL     1       6.670  -0.511  23.402  0.00  0.00    +0.066 C 
ATOM      6  S   UNL     1       8.516  -2.004  24.822  0.00  0.00    -0.061 S 
ATOM      7  C   UNL     1       8.422  -3.741  24.558  0.00  0.00    +0.121 C 
ATOM      8  S   UNL     1       9.518  -4.785  25.263  0.00  0.00    -0.027 S 
ENDROOT
BRANCH   5   9
ATOM      9  C   UNL     1       7.032   0.739  23.960  0.00  0.00    +0.130 A 
ATOM     10  O   UNL     1       8.143   1.449  23.568  0.00  0.00    -0.455 OA
ATOM     11  C   UNL     1       8.264   2.555  24.354  0.00  0.00    +0.136 A 
ATOM     12  C   UNL     1       7.224   2.584  25.260  0.00  0.00    +0.050 A 
ATOM     13  C   UNL     1       6.445   1.429  25.013  0.00  0.00    +0.050 A 
BRANCH  11  14
ATOM     14  C   UNL     1       9.409   3.420  24.080  0.00  0.00    +0.017 A 
ATOM     15  C   UNL     1      10.625   2.901  23.609  0.00  0.00    +0.013 A 
ATOM     16  C   UNL     1      11.699   3.746  23.306  0.00  0.00    +0.021 A 
ATOM     17  C   UNL     1      11.565   5.121  23.476  0.00  0.00    +0.041 A 
ATOM     18 CL   UNL     1      12.867   6.169  23.071  0.00  0.00    -0.084 Cl
ATOM     19  C   UNL     1      10.376   5.654  23.964  0.00  0.00    +0.021 A 
ATOM     20  C   UNL     1       9.305   4.807  24.267  0.00  0.00    +0.013 A 
ENDBRANCH  11  14
ENDBRANCH   5   9
BRANCH   1  21
ATOM     21  C   UNL     1       6.851  -5.413  23.525  0.00  0.00    +0.126 C 
BRANCH  21  22
ATOM     22  C   UNL     1       7.130  -6.040  22.160  0.00  0.00    +0.140 C 
BRANCH  22  23
ATOM     23  C   UNL     1       5.951  -5.889  21.239  0.00  0.00    +0.306 C 
ATOM     24  O   UNL     1       6.017  -5.690  20.038  0.00  0.00    -0.251 OA
BRANCH  23  25
ATOM     25  O   UNL     1       4.773  -6.013  21.894  0.00  0.00    -0.481 OA
ATOM     26  H   UNL     1       4.759  -5.576  22.769  0.00  0.00    +0.295 HD
ENDBRANCH  23  25
ENDBRANCH  22  23
ENDBRANCH  21  22
ENDBRANCH   1  21
TORSDOF 6
ENDMDL
MODEL 7
REMARK VINA RESULT:      -6.5      3.402      4.732
REMARK  Name = 
REMARK  6 active torsions:
REMARK  status: ('A' for Active; 'I' for Inactive)
REMARK    1  A    between atoms: O_1  and  C_2
REMARK    2  A    between atoms: C_2  and  C_4
REMARK    3  A    between atoms: C_4  and  C_5
REMARK    4  A    between atoms: C_5  and  N_6
REMARK    5  A    between atoms: C_11  and  C_12
REMARK    6  A    between atoms: C_15  and  C_17
REMARK                            x       y       z     vdW  Elec       q    Type
REMARK                         _______ _______ _______ _____ _____    ______ ____
ROOT
ATOM      1  N   UNL     1       8.993   1.110  24.668  0.00  0.00    -0.255 N 
ATOM      2  C   UNL     1       9.482  -0.126  24.284  0.00  0.00    +0.258 C 
ATOM      3  O   UNL     1      10.427  -0.340  23.535  0.00  0.00    -0.269 OA
ATOM      4  C   UNL     1       8.723  -1.225  24.928  0.00  0.00    +0.080 C 
ATOM      5  C   UNL     1       9.015  -2.501  24.645  0.00  0.00    +0.066 C 
ATOM      6  S   UNL     1       7.538  -0.581  25.982  0.00  0.00    -0.061 S 
ATOM      7  C   UNL     1       7.935   1.081  25.564  0.00  0.00    +0.121 C 
ATOM      8  S   UNL     1       7.081   2.364  26.205  0.00  0.00    -0.027 S 
ENDROOT
BRANCH   5   9
ATOM      9  C   UNL     1       8.457  -3.612  25.322  0.00  0.00    +0.130 A 
ATOM     10  O   UNL     1       7.273  -4.207  24.952  0.00  0.00    -0.455 OA
ATOM     11  C   UNL     1       6.965  -5.181  25.852  0.00  0.00    +0.136 A 
ATOM     12  C   UNL     1       7.953  -5.242  26.812  0.00  0.00    +0.050 A 
ATOM     13  C   UNL     1       8.898  -4.243  26.478  0.00  0.00    +0.050 A 
BRANCH  11  14
ATOM     14  C   UNL     1       5.720  -5.909  25.616  0.00  0.00    +0.017 A 
ATOM     15  C   UNL     1       5.224  -6.114  24.319  0.00  0.00    +0.013 A 
ATOM     16  C   UNL     1       4.055  -6.854  24.104  0.00  0.00    +0.021 A 
ATOM     17  C   UNL     1       3.370  -7.393  25.189  0.00  0.00    +0.041 A 
ATOM     18 CL   UNL     1       1.954  -8.334  24.930  0.00  0.00    -0.084 Cl
ATOM     19  C   UNL     1       3.832  -7.182  26.484  0.00  0.00    +0.021 A 
ATOM     20  C   UNL     1       4.999  -6.442  26.696  0.00  0.00    +0.013 A 
ENDBRANCH  11  14
ENDBRANCH   5   9
BRANCH   1  21
ATOM     21  C   UNL     1       9.736   2.344  24.341  0.00  0.00    +0.126 C 
BRANCH  21  22
ATOM     22  C   UNL     1       9.114   3.224  23.258  0.00  0.00    +0.140 C 
BRANCH  22  23
ATOM     23  C   UNL     1       8.706   2.411  22.061  0.00  0.00    +0.306 C 
ATOM     24  O   UNL     1       7.557   2.213  21.703  0.00  0.00    -0.251 OA
BRANCH  23  25
ATOM     25  O   UNL     1       9.774   1.917  21.391  0.00  0.00    -0.481 OA
ATOM     26  H   UNL     1      10.220   2.574  20.820  0.00  0.00    +0.295 HD
ENDBRANCH  23  25
ENDBRANCH  22  23
ENDBRANCH  21  22
ENDBRANCH   1  21
TORSDOF 6
ENDMDL
MODEL 8
REMARK VINA RESULT:      -6.5      5.143      9.673
REMARK  Name = 
REMARK  6 active torsions:
REMARK  status: ('A' for Active; 'I' for Inactive)
REMARK    1  A    between atoms: O_1  and  C_2
REMARK    2  A    between atoms: C_2  and  C_4
REMARK    3  A    between atoms: C_4  and  C_5
REMARK    4  A    between atoms: C_5  and  N_6
REMARK    5  A    between atoms: C_11  and  C_12
REMARK    6  A    between atoms: C_15  and  C_17
REMARK                            x       y       z     vdW  Elec       q    Type
REMARK                         _______ _______ _______ _____ _____    ______ ____
ROOT
ATOM      1  N   UNL     1       6.296  -5.072  24.338  0.00  0.00    -0.255 N 
ATOM      2  C   UNL     1       6.570  -4.467  23.124  0.00  0.00    +0.258 C 
ATOM      3  O   UNL     1       6.132  -4.792  22.028  0.00  0.00    -0.269 OA
ATOM      4  C   UNL     1       7.475  -3.306  23.299  0.00  0.00    +0.080 C 
ATOM      5  C   UNL     1       7.896  -2.615  22.232  0.00  0.00    +0.066 C 
ATOM      6  S   UNL     1       7.818  -3.073  24.959  0.00  0.00    -0.061 S 
ATOM      7  C   UNL     1       6.888  -4.484  25.446  0.00  0.00    +0.121 C 
ATOM      8  S   UNL     1       6.810  -4.962  27.043  0.00  0.00    -0.027 S 
ENDROOT
BRANCH   5   9
ATOM      9  C   UNL     1       8.628  -1.405  22.307  0.00  0.00    +0.130 A 
ATOM     10  O   UNL     1       8.046  -0.181  22.537  0.00  0.00    -0.455 OA
ATOM     11  C   UNL     1       9.000   0.787  22.459  0.00  0.00    +0.136 A 
ATOM     12  C   UNL     1      10.220   0.203  22.191  0.00  0.00    +0.050 A 
ATOM     13  C   UNL     1       9.983  -1.189  22.090  0.00  0.00    +0.050 A 
BRANCH  11  14
ATOM     14  C   UNL     1       8.546   2.161  22.665  0.00  0.00    +0.017 A 
ATOM     15  C   UNL     1       9.273   3.064  23.457  0.00  0.00    +0.013 A 
ATOM     16  C   UNL     1       8.852   4.390  23.607  0.00  0.00    +0.021 A 
ATOM     17  C   UNL     1       7.695   4.824  22.965  0.00  0.00    +0.041 A 
ATOM     18 CL   UNL     1       7.192   6.462  23.115  0.00  0.00    -0.084 Cl
ATOM     19  C   UNL     1       6.948   3.940  22.194  0.00  0.00    +0.021 A 
ATOM     20  C   UNL     1       7.370   2.615  22.048  0.00  0.00    +0.013 A 
ENDBRANCH  11  14
ENDBRANCH   5   9
BRANCH   1  21
ATOM     21  C   UNL     1       5.239  -6.099  24.441  0.00  0.00    +0.126 C 
BRANCH  21  22
ATOM     22  C   UNL     1       3.811  -5.570  24.565  0.00  0.00    +0.140 C 
BRANCH  22  23
ATOM     23  C   UNL     1       3.064  -5.708  23.268  0.00  0.00    +0.306 C 
ATOM     24  O   UNL     1       2.002  -5.168  23.006  0.00  0.00    -0.251 OA
BRANCH  23  25
ATOM     25  O   UNL     1       3.715  -6.503  22.386  0.00  0.00    -0.481 OA
ATOM     26  H   UNL     1       4.689  -6.457  22.457  0.00  0.00    +0.295 HD
ENDBRANCH  23  25
ENDBRANCH  22  23
ENDBRANCH  21  22
ENDBRANCH   1  21
TORSDOF 6
ENDMDL
MODEL 9
REMARK VINA RESULT:      -6.4      4.597      9.212
REMARK  Name = 
REMARK  6 active torsions:
REMARK  status: ('A' for Active; 'I' for Inactive)
REMARK    1  A    between atoms: O_1  and  C_2
REMARK    2  A    between atoms: C_2  and  C_4
REMARK    3  A    between atoms: C_4  and  C_5
REMARK    4  A    between atoms: C_5  and  N_6
REMARK    5  A    between atoms: C_11  and  C_12
REMARK    6  A    between atoms: C_15  and  C_17
REMARK                            x       y       z     vdW  Elec       q    Type
REMARK                         _______ _______ _______ _____ _____    ______ ____
ROOT
ATOM      1  N   UNL     1       6.918  -3.988  25.024  0.00  0.00    -0.255 N 
ATOM      2  C   UNL     1       8.141  -3.717  24.436  0.00  0.00    +0.258 C 
ATOM      3  O   UNL     1       9.017  -4.527  24.161  0.00  0.00    -0.269 OA
ATOM      4  C   UNL     1       8.278  -2.273  24.131  0.00  0.00    +0.080 C 
ATOM      5  C   UNL     1       9.414  -1.803  23.599  0.00  0.00    +0.066 C 
ATOM      6  S   UNL     1       6.842  -1.444  24.553  0.00  0.00    -0.061 S 
ATOM      7  C   UNL     1       6.081  -2.896  25.192  0.00  0.00    +0.121 C 
ATOM      8  S   UNL     1       4.567  -2.844  25.892  0.00  0.00    -0.027 S 
ENDROOT
BRANCH   5   9
ATOM      9  C   UNL     1       9.582  -0.477  23.130  0.00  0.00    +0.130 A 
ATOM     10  O   UNL     1       9.438   0.632  23.930  0.00  0.00    -0.455 OA
ATOM     11  C   UNL     1       9.571   1.752  23.166  0.00  0.00    +0.136 A 
ATOM     12  C   UNL     1       9.817   1.383  21.860  0.00  0.00    +0.050 A 
ATOM     13  C   UNL     1       9.819  -0.032  21.837  0.00  0.00    +0.050 A 
BRANCH  11  14
ATOM     14  C   UNL     1       9.430   3.029  23.861  0.00  0.00    +0.017 A 
ATOM     15  C   UNL     1      10.239   4.132  23.542  0.00  0.00    +0.013 A 
ATOM     16  C   UNL     1      10.061   5.364  24.182  0.00  0.00    +0.021 A 
ATOM     17  C   UNL     1       9.072   5.502  25.151  0.00  0.00    +0.041 A 
ATOM     18 CL   UNL     1       8.824   7.023  25.915  0.00  0.00    -0.084 Cl
ATOM     19  C   UNL     1       8.275   4.416  25.499  0.00  0.00    +0.021 A 
ATOM     20  C   UNL     1       8.455   3.186  24.859  0.00  0.00    +0.013 A 
ENDBRANCH  11  14
ENDBRANCH   5   9
BRANCH   1  21
ATOM     21  C   UNL     1       6.465  -5.382  25.202  0.00  0.00    +0.126 C 
BRANCH  21  22
ATOM     22  C   UNL     1       5.349  -5.842  24.265  0.00  0.00    +0.140 C 
BRANCH  22  23
ATOM     23  C   UNL     1       5.726  -5.636  22.825  0.00  0.00    +0.306 C 
ATOM     24  O   UNL     1       6.586  -6.261  22.226  0.00  0.00    -0.251 OA
BRANCH  23  25
ATOM     25  O   UNL     1       4.985  -4.668  22.236  0.00  0.00    -0.481 OA
ATOM     26  H   UNL     1       4.081  -4.585  22.602  0.00  0.00    +0.295 HD
ENDBRANCH  23  25
ENDBRANCH  22  23
ENDBRANCH  21  22
ENDBRANCH   1  21
TORSDOF 6
ENDMDL
