MODEL 1
REMARK VINA RESULT:      -7.6      0.000      0.000
REMARK  Name = 
REMARK  6 active torsions:
REMARK  status: ('A' for Active; 'I' for Inactive)
REMARK    1  A    between atoms: O_1  and  C_2
REMARK    2  A    between atoms: C_2  and  C_4
REMARK    3  A    between atoms: C_6  and  C_7
REMARK    4  A    between atoms: C_7  and  O_8
REMARK    5  A    between atoms: C_10  and  C_13
REMARK    6  A    between atoms: C_25  and  O_26
REMARK                            x       y       z     vdW  Elec       q    Type
REMARK                         _______ _______ _______ _____ _____    ______ ____
ROOT
ATOM      1  C   UNL     1       7.393  -0.982  24.510  0.00  0.00    +0.004 A 
ATOM      2  C   UNL     1       8.087   0.275  24.103  0.00  0.00    +0.029 A 
ATOM      3  C   UNL     1       8.072   1.382  24.966  0.00  0.00    +0.140 A 
ATOM      4  C   UNL     1       8.785   2.555  24.685  0.00  0.00    +0.095 A 
ATOM      5  C   UNL     1       9.540   2.624  23.524  0.00  0.00    +0.155 A 
ATOM      6  C   UNL     1       9.557   1.543  22.646  0.00  0.00    +0.165 A 
ATOM      7  F   UNL     1      10.295   1.591  21.529  0.00  0.00    -0.202 F 
ATOM      8  O   UNL     1       7.363   1.391  26.136  0.00  0.00    -0.455 OA
ATOM      9  C   UNL     1       6.625   0.274  26.484  0.00  0.00    +0.140 A 
ATOM     10  C   UNL     1       5.740   0.375  27.486  0.00  0.00    +0.100 A 
ATOM     11  C   UNL     1       4.921  -0.788  27.899  0.00  0.00    +0.217 A 
ATOM     12  O   UNL     1       4.005  -0.657  28.700  0.00  0.00    -0.285 OA
ATOM     13  C   UNL     1       5.302  -2.093  27.313  0.00  0.00    +0.171 A 
ATOM     14  F   UNL     1       4.752  -3.192  27.864  0.00  0.00    -0.201 F 
ATOM     15  C   UNL     1       6.166  -2.183  26.298  0.00  0.00    +0.054 A 
ATOM     16  C   UNL     1       8.829   0.382  22.919  0.00  0.00    +0.054 A 
ATOM     17  C   UNL     1       6.761  -0.976  25.715  0.00  0.00    +0.029 A 
ENDROOT
BRANCH   1  21
ATOM     18  C   UNL     1       6.504  -4.422  22.057  0.00  0.00    +0.060 A 
ATOM     19  C   UNL     1       5.664  -3.313  22.115  0.00  0.00    +0.015 A 
ATOM     20  C   UNL     1       6.030  -2.198  22.875  0.00  0.00    +0.010 A 
ATOM     21  C   UNL     1       7.233  -2.172  23.619  0.00  0.00    -0.003 A 
ATOM     22  C   UNL     1       8.090  -3.289  23.538  0.00  0.00    +0.067 A 
ATOM     23  C   UNL     1       7.728  -4.388  22.727  0.00  0.00    +0.030 A 
BRANCH  18  24
ATOM     24  C   UNL     1       6.054  -5.610  21.290  0.00  0.00    +0.337 C 
ATOM     25  O   UNL     1       5.934  -5.600  20.078  0.00  0.00    -0.245 OA
BRANCH  24  26
ATOM     26  O   UNL     1       5.735  -6.672  22.057  0.00  0.00    -0.477 OA
ATOM     27  H   UNL     1       4.793  -6.782  22.286  0.00  0.00    +0.295 HD
ENDBRANCH  24  26
ENDBRANCH  18  24
BRANCH  22  28
ATOM     28  C   UNL     1       9.309  -3.516  24.362  0.00  0.00    +0.337 C 
ATOM     29  O   UNL     1       9.240  -4.148  25.406  0.00  0.00    -0.245 OA
BRANCH  28  30
ATOM     30  O   UNL     1      10.471  -3.028  23.901  0.00  0.00    -0.477 OA
ATOM     31  H   UNL     1      11.281  -3.481  24.187  0.00  0.00    +0.295 HD
ENDBRANCH  28  30
ENDBRANCH  22  28
ENDBRANCH   1  21
BRANCH   5  32
ATOM     32  O   UNL     1      10.277   3.735  23.233  0.00  0.00    -0.504 OA
ATOM     33  H   UNL     1       9.918   4.171  22.440  0.00  0.00    +0.292 HD
ENDBRANCH   5  32
TORSDOF 6
ENDMDL
MODEL 2
REMARK VINA RESULT:      -7.4      0.528      4.845
REMARK  Name = 
REMARK  6 active torsions:
REMARK  status: ('A' for Active; 'I' for Inactive)
REMARK    1  A    between atoms: O_1  and  C_2
REMARK    2  A    between atoms: C_2  and  C_4
REMARK    3  A    between atoms: C_6  and  C_7
REMARK    4  A    between atoms: C_7  and  O_8
REMARK    5  A    between atoms: C_10  and  C_13
REMARK    6  A    between atoms: C_25  and  O_26
REMARK                            x       y       z     vdW  Elec       q    Type
REMARK                         _______ _______ _______ _____ _____    ______ ____
ROOT
ATOM      1  C   UNL     1       6.997  -0.984  24.460  0.00  0.00    +0.004 A 
ATOM      2  C   UNL     1       6.328  -0.913  25.792  0.00  0.00    +0.029 A 
ATOM      3  C   UNL     1       6.500   0.227  26.591  0.00  0.00    +0.140 A 
ATOM      4  C   UNL     1       5.822   0.396  27.805  0.00  0.00    +0.095 A 
ATOM      5  C   UNL     1       4.942  -0.589  28.228  0.00  0.00    +0.155 A 
ATOM      6  C   UNL     1       4.767  -1.736  27.458  0.00  0.00    +0.165 A 
ATOM      7  F   UNL     1       3.906  -2.687  27.847  0.00  0.00    -0.202 F 
ATOM      8  O   UNL     1       7.341   1.249  26.240  0.00  0.00    -0.455 OA
ATOM      9  C   UNL     1       8.055   1.157  25.059  0.00  0.00    +0.140 A 
ATOM     10  C   UNL     1       9.055   2.024  24.844  0.00  0.00    +0.100 A 
ATOM     11  C   UNL     1       9.854   1.971  23.598  0.00  0.00    +0.217 A 
ATOM     12  O   UNL     1      10.863   2.652  23.471  0.00  0.00    -0.285 OA
ATOM     13  C   UNL     1       9.340   1.081  22.533  0.00  0.00    +0.171 A 
ATOM     14  F   UNL     1       9.893   1.211  21.312  0.00  0.00    -0.201 F 
ATOM     15  C   UNL     1       8.360   0.202  22.763  0.00  0.00    +0.054 A 
ATOM     16  C   UNL     1       5.460  -1.910  26.257  0.00  0.00    +0.054 A 
ATOM     17  C   UNL     1       7.765   0.079  24.098  0.00  0.00    +0.029 A 
ENDROOT
BRANCH   1  21
ATOM     18  C   UNL     1       6.540  -4.516  22.019  0.00  0.00    +0.060 A 
ATOM     19  C   UNL     1       5.638  -3.457  21.970  0.00  0.00    +0.015 A 
ATOM     20  C   UNL     1       5.866  -2.308  22.734  0.00  0.00    +0.010 A 
ATOM     21  C   UNL     1       6.990  -2.198  23.586  0.00  0.00    -0.003 A 
ATOM     22  C   UNL     1       7.912  -3.264  23.614  0.00  0.00    +0.067 A 
ATOM     23  C   UNL     1       7.691  -4.398  22.799  0.00  0.00    +0.030 A 
BRANCH  18  24
ATOM     24  C   UNL     1       6.233  -5.743  21.241  0.00  0.00    +0.337 C 
ATOM     25  O   UNL     1       5.968  -5.716  20.053  0.00  0.00    -0.245 OA
BRANCH  24  26
ATOM     26  O   UNL     1       6.213  -6.871  21.979  0.00  0.00    -0.477 OA
ATOM     27  H   UNL     1       5.426  -7.018  22.536  0.00  0.00    +0.295 HD
ENDBRANCH  24  26
ENDBRANCH  18  24
BRANCH  22  28
ATOM     28  C   UNL     1       9.059  -3.404  24.554  0.00  0.00    +0.337 C 
ATOM     29  O   UNL     1      10.206  -3.291  24.149  0.00  0.00    -0.245 OA
BRANCH  28  30
ATOM     30  O   UNL     1       8.779  -3.630  25.846  0.00  0.00    -0.477 OA
ATOM     31  H   UNL     1       9.019  -4.501  26.201  0.00  0.00    +0.295 HD
ENDBRANCH  28  30
ENDBRANCH  22  28
ENDBRANCH   1  21
BRANCH   5  32
ATOM     32  O   UNL     1       4.235  -0.445  29.387  0.00  0.00    -0.504 OA
ATOM     33  H   UNL     1       3.285  -0.388  29.190  0.00  0.00    +0.292 HD
ENDBRANCH   5  32
TORSDOF 6
ENDMDL
MODEL 3
REMARK VINA RESULT:      -7.0      1.470      1.694
REMARK  Name = 
REMARK  6 active torsions:
REMARK  status: ('A' for Active; 'I' for Inactive)
REMARK    1  A    between atoms: O_1  and  C_2
REMARK    2  A    between atoms: C_2  and  C_4
REMARK    3  A    between atoms: C_6  and  C_7
REMARK    4  A    between atoms: C_7  and  O_8
REMARK    5  A    between atoms: C_10  and  C_13
REMARK    6  A    between atoms: C_25  and  O_26
REMARK                            x       y       z     vdW  Elec       q    Type
REMARK                         _______ _______ _______ _____ _____    ______ ____
ROOT
ATOM      1  C   UNL     1       7.022  -1.134  24.758  0.00  0.00    +0.004 A 
ATOM      2  C   UNL     1       7.814  -0.228  23.876  0.00  0.00    +0.029 A 
ATOM      3  C   UNL     1       8.054   1.094  24.280  0.00  0.00    +0.140 A 
ATOM      4  C   UNL     1       8.871   1.962  23.544  0.00  0.00    +0.095 A 
ATOM      5  C   UNL     1       9.473   1.500  22.384  0.00  0.00    +0.155 A 
ATOM      6  C   UNL     1       9.238   0.196  21.956  0.00  0.00    +0.165 A 
ATOM      7  F   UNL     1       9.828  -0.268  20.845  0.00  0.00    -0.202 F 
ATOM      8  O   UNL     1       7.507   1.624  25.417  0.00  0.00    -0.455 OA
ATOM      9  C   UNL     1       6.681   0.834  26.197  0.00  0.00    +0.140 A 
ATOM     10  C   UNL     1       5.951   1.420  27.158  0.00  0.00    +0.100 A 
ATOM     11  C   UNL     1       5.049   0.624  28.021  0.00  0.00    +0.217 A 
ATOM     12  O   UNL     1       4.267   1.174  28.786  0.00  0.00    -0.285 OA
ATOM     13  C   UNL     1       5.180  -0.846  27.918  0.00  0.00    +0.171 A 
ATOM     14  F   UNL     1       4.567  -1.580  28.867  0.00  0.00    -0.201 F 
ATOM     15  C   UNL     1       5.889  -1.423  26.943  0.00  0.00    +0.054 A 
ATOM     16  C   UNL     1       8.407  -0.662  22.681  0.00  0.00    +0.054 A 
ATOM     17  C   UNL     1       6.556  -0.608  25.922  0.00  0.00    +0.029 A 
ENDROOT
BRANCH   1  21
ATOM     18  C   UNL     1       5.396  -5.018  23.804  0.00  0.00    +0.060 A 
ATOM     19  C   UNL     1       4.690  -3.841  23.574  0.00  0.00    +0.015 A 
ATOM     20  C   UNL     1       5.288  -2.604  23.841  0.00  0.00    +0.010 A 
ATOM     21  C   UNL     1       6.597  -2.515  24.370  0.00  0.00    -0.003 A 
ATOM     22  C   UNL     1       7.314  -3.710  24.579  0.00  0.00    +0.067 A 
ATOM     23  C   UNL     1       6.714  -4.949  24.258  0.00  0.00    +0.030 A 
BRANCH  18  24
ATOM     24  C   UNL     1       4.708  -6.312  23.567  0.00  0.00    +0.337 C 
ATOM     25  O   UNL     1       4.778  -7.244  24.347  0.00  0.00    -0.245 OA
BRANCH  24  26
ATOM     26  O   UNL     1       4.056  -6.380  22.388  0.00  0.00    -0.477 OA
ATOM     27  H   UNL     1       3.105  -6.161  22.399  0.00  0.00    +0.295 HD
ENDBRANCH  24  26
ENDBRANCH  18  24
BRANCH  22  28
ATOM     28  C   UNL     1       8.629  -3.831  25.269  0.00  0.00    +0.337 C 
ATOM     29  O   UNL     1       8.685  -3.853  26.489  0.00  0.00    -0.245 OA
BRANCH  28  30
ATOM     30  O   UNL     1       9.724  -3.941  24.503  0.00  0.00    -0.477 OA
ATOM     31  H   UNL     1      10.324  -3.178  24.484  0.00  0.00    +0.295 HD
ENDBRANCH  28  30
ENDBRANCH  22  28
ENDBRANCH   1  21
BRANCH   5  32
ATOM     32  O   UNL     1      10.304   2.304  21.659  0.00  0.00    -0.504 OA
ATOM     33  H   UNL     1      10.570   3.072  22.192  0.00  0.00    +0.292 HD
ENDBRANCH   5  32
TORSDOF 6
ENDMDL
MODEL 4
REMARK VINA RESULT:      -6.8      2.328      5.752
REMARK  Name = 
REMARK  6 active torsions:
REMARK  status: ('A' for Active; 'I' for Inactive)
REMARK    1  A    between atoms: O_1  and  C_2
REMARK    2  A    between atoms: C_2  and  C_4
REMARK    3  A    between atoms: C_6  and  C_7
REMARK    4  A    between atoms: C_7  and  O_8
REMARK    5  A    between atoms: C_10  and  C_13
REMARK    6  A    between atoms: C_25  and  O_26
REMARK                            x       y       z     vdW  Elec       q    Type
REMARK                         _______ _______ _______ _____ _____    ______ ____
ROOT
ATOM      1  C   UNL     1       6.035  -1.600  24.706  0.00  0.00    +0.004 A 
ATOM      2  C   UNL     1       6.015  -2.978  24.135  0.00  0.00    +0.029 A 
ATOM      3  C   UNL     1       5.027  -3.884  24.551  0.00  0.00    +0.140 A 
ATOM      4  C   UNL     1       4.895  -5.156  23.982  0.00  0.00    +0.095 A 
ATOM      5  C   UNL     1       5.760  -5.534  22.965  0.00  0.00    +0.155 A 
ATOM      6  C   UNL     1       6.757  -4.656  22.546  0.00  0.00    +0.165 A 
ATOM      7  F   UNL     1       7.588  -5.002  21.553  0.00  0.00    -0.202 F 
ATOM      8  O   UNL     1       4.128  -3.585  25.540  0.00  0.00    -0.455 OA
ATOM      9  C   UNL     1       4.195  -2.351  26.160  0.00  0.00    +0.140 A 
ATOM     10  C   UNL     1       3.492  -2.157  27.285  0.00  0.00    +0.100 A 
ATOM     11  C   UNL     1       3.528  -0.856  27.991  0.00  0.00    +0.217 A 
ATOM     12  O   UNL     1       3.019  -0.730  29.097  0.00  0.00    -0.285 OA
ATOM     13  C   UNL     1       4.180   0.258  27.269  0.00  0.00    +0.171 A 
ATOM     14  F   UNL     1       3.998   1.496  27.768  0.00  0.00    -0.201 F 
ATOM     15  C   UNL     1       4.901   0.054  26.162  0.00  0.00    +0.054 A 
ATOM     16  C   UNL     1       6.899  -3.395  23.129  0.00  0.00    +0.054 A 
ATOM     17  C   UNL     1       5.082  -1.300  25.630  0.00  0.00    +0.029 A 
ENDROOT
BRANCH   1  21
ATOM     18  C   UNL     1       9.132   1.156  23.497  0.00  0.00    +0.060 A 
ATOM     19  C   UNL     1       7.970   0.971  22.753  0.00  0.00    +0.015 A 
ATOM     20  C   UNL     1       6.969   0.114  23.222  0.00  0.00    +0.010 A 
ATOM     21  C   UNL     1       7.114  -0.600  24.434  0.00  0.00    -0.003 A 
ATOM     22  C   UNL     1       8.283  -0.391  25.194  0.00  0.00    +0.067 A 
ATOM     23  C   UNL     1       9.264   0.516  24.730  0.00  0.00    +0.030 A 
BRANCH  18  24
ATOM     24  C   UNL     1      10.198   2.025  22.939  0.00  0.00    +0.337 C 
ATOM     25  O   UNL     1      11.005   2.605  23.642  0.00  0.00    -0.245 OA
BRANCH  24  26
ATOM     26  O   UNL     1      10.150   2.162  21.598  0.00  0.00    -0.477 OA
ATOM     27  H   UNL     1       9.309   1.927  21.162  0.00  0.00    +0.295 HD
ENDBRANCH  24  26
ENDBRANCH  18  24
BRANCH  22  28
ATOM     28  C   UNL     1       8.689  -1.160  26.403  0.00  0.00    +0.337 C 
ATOM     29  O   UNL     1       8.710  -2.381  26.379  0.00  0.00    -0.245 OA
BRANCH  28  30
ATOM     30  O   UNL     1       9.050  -0.463  27.491  0.00  0.00    -0.477 OA
ATOM     31  H   UNL     1       9.735   0.214  27.370  0.00  0.00    +0.295 HD
ENDBRANCH  28  30
ENDBRANCH  22  28
ENDBRANCH   1  21
BRANCH   5  32
ATOM     32  O   UNL     1       5.641  -6.751  22.360  0.00  0.00    -0.504 OA
ATOM     33  H   UNL     1       6.397  -7.314  22.599  0.00  0.00    +0.292 HD
ENDBRANCH   5  32
TORSDOF 6
ENDMDL
MODEL 5
REMARK VINA RESULT:      -6.8      2.424      2.957
REMARK  Name = 
REMARK  6 active torsions:
REMARK  status: ('A' for Active; 'I' for Inactive)
REMARK    1  A    between atoms: O_1  and  C_2
REMARK    2  A    between atoms: C_2  and  C_4
REMARK    3  A    between atoms: C_6  and  C_7
REMARK    4  A    between atoms: C_7  and  O_8
REMARK    5  A    between atoms: C_10  and  C_13
REMARK    6  A    between atoms: C_25  and  O_26
REMARK                            x       y       z     vdW  Elec       q    Type
REMARK                         _______ _______ _______ _____ _____    ______ ____
ROOT
ATOM      1  C   UNL     1       6.589  -2.301  25.983  0.00  0.00    +0.004 A 
ATOM      2  C   UNL     1       7.763  -1.615  25.369  0.00  0.00    +0.029 A 
ATOM      3  C   UNL     1       8.139  -0.344  25.827  0.00  0.00    +0.140 A 
ATOM      4  C   UNL     1       9.287   0.308  25.360  0.00  0.00    +0.095 A 
ATOM      5  C   UNL     1      10.087  -0.325  24.421  0.00  0.00    +0.155 A 
ATOM      6  C   UNL     1       9.726  -1.581  23.941  0.00  0.00    +0.165 A 
ATOM      7  F   UNL     1      10.500  -2.211  23.046  0.00  0.00    -0.202 F 
ATOM      8  O   UNL     1       7.410   0.344  26.760  0.00  0.00    -0.455 OA
ATOM      9  C   UNL     1       6.257  -0.227  27.268  0.00  0.00    +0.140 A 
ATOM     10  C   UNL     1       5.418   0.541  27.979  0.00  0.00    +0.100 A 
ATOM     11  C   UNL     1       4.169  -0.017  28.544  0.00  0.00    +0.217 A 
ATOM     12  O   UNL     1       3.329   0.715  29.052  0.00  0.00    -0.285 OA
ATOM     13  C   UNL     1       4.026  -1.488  28.480  0.00  0.00    +0.171 A 
ATOM     14  F   UNL     1       3.035  -2.036  29.210  0.00  0.00    -0.201 F 
ATOM     15  C   UNL     1       4.850  -2.244  27.748  0.00  0.00    +0.054 A 
ATOM     16  C   UNL     1       8.569  -2.221  24.394  0.00  0.00    +0.054 A 
ATOM     17  C   UNL     1       5.928  -1.631  26.965  0.00  0.00    +0.029 A 
ENDROOT
BRANCH   1  21
ATOM     18  C   UNL     1       4.556  -5.837  24.567  0.00  0.00    +0.060 A 
ATOM     19  C   UNL     1       4.247  -4.564  24.097  0.00  0.00    +0.015 A 
ATOM     20  C   UNL     1       4.979  -3.458  24.541  0.00  0.00    +0.010 A 
ATOM     21  C   UNL     1       6.023  -3.593  25.486  0.00  0.00    -0.003 A 
ATOM     22  C   UNL     1       6.346  -4.888  25.940  0.00  0.00    +0.067 A 
ATOM     23  C   UNL     1       5.628  -6.001  25.445  0.00  0.00    +0.030 A 
BRANCH  18  24
ATOM     24  C   UNL     1       3.718  -6.978  24.120  0.00  0.00    +0.337 C 
ATOM     25  O   UNL     1       3.595  -7.996  24.776  0.00  0.00    -0.245 OA
BRANCH  24  26
ATOM     26  O   UNL     1       3.163  -6.809  22.902  0.00  0.00    -0.477 OA
ATOM     27  H   UNL     1       3.532  -6.097  22.346  0.00  0.00    +0.295 HD
ENDBRANCH  24  26
ENDBRANCH  18  24
BRANCH  22  28
ATOM     28  C   UNL     1       7.294  -5.217  27.041  0.00  0.00    +0.337 C 
ATOM     29  O   UNL     1       6.885  -5.376  28.181  0.00  0.00    -0.245 OA
BRANCH  28  30
ATOM     30  O   UNL     1       8.591  -5.353  26.725  0.00  0.00    -0.477 OA
ATOM     31  H   UNL     1       8.859  -5.061  25.839  0.00  0.00    +0.295 HD
ENDBRANCH  28  30
ENDBRANCH  22  28
ENDBRANCH   1  21
BRANCH   5  32
ATOM     32  O   UNL     1      11.233   0.262  23.968  0.00  0.00    -0.504 OA
ATOM     33  H   UNL     1      11.505   0.969  24.577  0.00  0.00    +0.292 HD
ENDBRANCH   5  32
TORSDOF 6
ENDMDL
MODEL 6
REMARK VINA RESULT:      -6.6      3.436      7.300
REMARK  Name = 
REMARK  6 active torsions:
REMARK  status: ('A' for Active; 'I' for Inactive)
REMARK    1  A    between atoms: O_1  and  C_2
REMARK    2  A    between atoms: C_2  and  C_4
REMARK    3  A    between atoms: C_6  and  C_7
REMARK    4  A    between atoms: C_7  and  O_8
REMARK    5  A    between atoms: C_10  and  C_13
REMARK    6  A    between atoms: C_25  and  O_26
REMARK                            x       y       z     vdW  Elec       q    Type
REMARK                         _______ _______ _______ _____ _____    ______ ____
ROOT
ATOM      1  C   UNL     1       7.387   2.071  24.099  0.00  0.00    +0.004 A 
ATOM      2  C   UNL     1       7.169   0.782  24.818  0.00  0.00    +0.029 A 
ATOM      3  C   UNL     1       5.860   0.355  25.089  0.00  0.00    +0.140 A 
ATOM      4  C   UNL     1       5.588  -0.889  25.672  0.00  0.00    +0.095 A 
ATOM      5  C   UNL     1       6.643  -1.734  25.983  0.00  0.00    +0.155 A 
ATOM      6  C   UNL     1       7.951  -1.324  25.737  0.00  0.00    +0.165 A 
ATOM      7  F   UNL     1       8.978  -2.138  26.018  0.00  0.00    -0.202 F 
ATOM      8  O   UNL     1       4.764   1.123  24.802  0.00  0.00    -0.455 OA
ATOM      9  C   UNL     1       4.946   2.369  24.232  0.00  0.00    +0.140 A 
ATOM     10  C   UNL     1       3.906   3.214  24.187  0.00  0.00    +0.100 A 
ATOM     11  C   UNL     1       4.045   4.562  23.590  0.00  0.00    +0.217 A 
ATOM     12  O   UNL     1       3.148   5.389  23.692  0.00  0.00    -0.285 OA
ATOM     13  C   UNL     1       5.301   4.820  22.852  0.00  0.00    +0.171 A 
ATOM     14  F   UNL     1       5.342   5.929  22.087  0.00  0.00    -0.201 F 
ATOM     15  C   UNL     1       6.343   3.986  22.922  0.00  0.00    +0.054 A 
ATOM     16  C   UNL     1       8.220  -0.074  25.174  0.00  0.00    +0.054 A 
ATOM     17  C   UNL     1       6.278   2.780  23.753  0.00  0.00    +0.029 A 
ENDROOT
BRANCH   1  21
ATOM     18  C   UNL     1      11.069   4.237  23.472  0.00  0.00    +0.060 A 
ATOM     19  C   UNL     1      10.129   4.629  24.421  0.00  0.00    +0.015 A 
ATOM     20  C   UNL     1       8.982   3.856  24.629  0.00  0.00    +0.010 A 
ATOM     21  C   UNL     1       8.733   2.685  23.876  0.00  0.00    -0.003 A 
ATOM     22  C   UNL     1       9.699   2.281  22.933  0.00  0.00    +0.067 A 
ATOM     23  C   UNL     1      10.876   3.047  22.768  0.00  0.00    +0.030 A 
BRANCH  18  24
ATOM     24  C   UNL     1      12.243   5.115  23.236  0.00  0.00    +0.337 C 
ATOM     25  O   UNL     1      12.829   5.682  24.140  0.00  0.00    -0.245 OA
BRANCH  24  26
ATOM     26  O   UNL     1      12.559   5.272  21.934  0.00  0.00    -0.477 OA
ATOM     27  H   UNL     1      12.789   4.465  21.437  0.00  0.00    +0.295 HD
ENDBRANCH  24  26
ENDBRANCH  18  24
BRANCH  22  28
ATOM     28  C   UNL     1       9.547   1.180  21.942  0.00  0.00    +0.337 C 
ATOM     29  O   UNL     1      10.123   0.116  22.109  0.00  0.00    -0.245 OA
BRANCH  28  30
ATOM     30  O   UNL     1       8.742   1.396  20.891  0.00  0.00    -0.477 OA
ATOM     31  H   UNL     1       8.319   2.268  20.834  0.00  0.00    +0.295 HD
ENDBRANCH  28  30
ENDBRANCH  22  28
ENDBRANCH   1  21
BRANCH   5  32
ATOM     32  O   UNL     1       6.417  -2.968  26.519  0.00  0.00    -0.504 OA
ATOM     33  H   UNL     1       5.587  -3.334  26.168  0.00  0.00    +0.292 HD
ENDBRANCH   5  32
TORSDOF 6
ENDMDL
MODEL 7
REMARK VINA RESULT:      -6.6      3.193      6.099
REMARK  Name = 
REMARK  6 active torsions:
REMARK  status: ('A' for Active; 'I' for Inactive)
REMARK    1  A    between atoms: O_1  and  C_2
REMARK    2  A    between atoms: C_2  and  C_4
REMARK    3  A    between atoms: C_6  and  C_7
REMARK    4  A    between atoms: C_7  and  O_8
REMARK    5  A    between atoms: C_10  and  C_13
REMARK    6  A    between atoms: C_25  and  O_26
REMARK                            x       y       z     vdW  Elec       q    Type
REMARK                         _______ _______ _______ _____ _____    ______ ____
ROOT
ATOM      1  C   UNL     1       6.381  -3.425  25.272  0.00  0.00    +0.004 A 
ATOM      2  C   UNL     1       7.506  -2.453  25.401  0.00  0.00    +0.029 A 
ATOM      3  C   UNL     1       8.233  -2.083  24.259  0.00  0.00    +0.140 A 
ATOM      4  C   UNL     1       9.234  -1.104  24.298  0.00  0.00    +0.095 A 
ATOM      5  C   UNL     1       9.510  -0.469  25.500  0.00  0.00    +0.155 A 
ATOM      6  C   UNL     1       8.811  -0.831  26.648  0.00  0.00    +0.165 A 
ATOM      7  F   UNL     1       9.057  -0.213  27.812  0.00  0.00    -0.202 F 
ATOM      8  O   UNL     1       8.014  -2.653  23.034  0.00  0.00    -0.455 OA
ATOM      9  C   UNL     1       7.048  -3.634  22.911  0.00  0.00    +0.140 A 
ATOM     10  C   UNL     1       7.010  -4.362  21.785  0.00  0.00    +0.100 A 
ATOM     11  C   UNL     1       5.998  -5.427  21.601  0.00  0.00    +0.217 A 
ATOM     12  O   UNL     1       6.062  -6.194  20.650  0.00  0.00    -0.285 OA
ATOM     13  C   UNL     1       4.913  -5.475  22.606  0.00  0.00    +0.171 A 
ATOM     14  F   UNL     1       3.852  -6.253  22.320  0.00  0.00    -0.201 F 
ATOM     15  C   UNL     1       4.970  -4.766  23.738  0.00  0.00    +0.054 A 
ATOM     16  C   UNL     1       7.827  -1.822  26.611  0.00  0.00    +0.054 A 
ATOM     17  C   UNL     1       6.130  -3.917  24.029  0.00  0.00    +0.029 A 
ENDROOT
BRANCH   1  21
ATOM     18  C   UNL     1       4.315  -5.451  28.477  0.00  0.00    +0.060 A 
ATOM     19  C   UNL     1       5.581  -5.839  28.047  0.00  0.00    +0.015 A 
ATOM     20  C   UNL     1       6.234  -5.109  27.048  0.00  0.00    +0.010 A 
ATOM     21  C   UNL     1       5.627  -3.987  26.435  0.00  0.00    -0.003 A 
ATOM     22  C   UNL     1       4.355  -3.586  26.891  0.00  0.00    +0.067 A 
ATOM     23  C   UNL     1       3.730  -4.305  27.936  0.00  0.00    +0.030 A 
BRANCH  18  24
ATOM     24  C   UNL     1       3.629  -6.285  29.495  0.00  0.00    +0.337 C 
ATOM     25  O   UNL     1       3.065  -5.805  30.462  0.00  0.00    -0.245 OA
BRANCH  24  26
ATOM     26  O   UNL     1       3.740  -7.612  29.285  0.00  0.00    -0.477 OA
ATOM     27  H   UNL     1       3.738  -7.911  28.356  0.00  0.00    +0.295 HD
ENDBRANCH  24  26
ENDBRANCH  18  24
BRANCH  22  28
ATOM     28  C   UNL     1       3.494  -2.541  26.272  0.00  0.00    +0.337 C 
ATOM     29  O   UNL     1       2.497  -2.857  25.641  0.00  0.00    -0.245 OA
BRANCH  28  30
ATOM     30  O   UNL     1       3.841  -1.258  26.458  0.00  0.00    -0.477 OA
ATOM     31  H   UNL     1       4.567  -1.086  27.079  0.00  0.00    +0.295 HD
ENDBRANCH  28  30
ENDBRANCH  22  28
ENDBRANCH   1  21
BRANCH   5  32
ATOM     32  O   UNL     1      10.453   0.515  25.571  0.00  0.00    -0.504 OA
ATOM     33  H   UNL     1      11.057   0.342  26.314  0.00  0.00    +0.292 HD
ENDBRANCH   5  32
TORSDOF 6
ENDMDL
MODEL 8
REMARK VINA RESULT:      -6.6      3.403      5.073
REMARK  Name = 
REMARK  6 active torsions:
REMARK  status: ('A' for Active; 'I' for Inactive)
REMARK    1  A    between atoms: O_1  and  C_2
REMARK    2  A    between atoms: C_2  and  C_4
REMARK    3  A    between atoms: C_6  and  C_7
REMARK    4  A    between atoms: C_7  and  O_8
REMARK    5  A    between atoms: C_10  and  C_13
REMARK    6  A    between atoms: C_25  and  O_26
REMARK                            x       y       z     vdW  Elec       q    Type
REMARK                         _______ _______ _______ _____ _____    ______ ____
ROOT
ATOM      1  C   UNL     1       8.533   3.067  24.554  0.00  0.00    +0.004 A 
ATOM      2  C   UNL     1       9.660   3.977  24.195  0.00  0.00    +0.029 A 
ATOM      3  C   UNL     1       9.513   5.361  24.367  0.00  0.00    +0.140 A 
ATOM      4  C   UNL     1      10.565   6.257  24.141  0.00  0.00    +0.095 A 
ATOM      5  C   UNL     1      11.799   5.762  23.745  0.00  0.00    +0.155 A 
ATOM      6  C   UNL     1      11.964   4.392  23.554  0.00  0.00    +0.165 A 
ATOM      7  F   UNL     1      13.156   3.900  23.189  0.00  0.00    -0.202 F 
ATOM      8  O   UNL     1       8.332   5.929  24.765  0.00  0.00    -0.455 OA
ATOM      9  C   UNL     1       7.240   5.114  25.002  0.00  0.00    +0.140 A 
ATOM     10  C   UNL     1       6.033   5.682  25.142  0.00  0.00    +0.100 A 
ATOM     11  C   UNL     1       4.829   4.858  25.394  0.00  0.00    +0.217 A 
ATOM     12  O   UNL     1       3.711   5.356  25.362  0.00  0.00    -0.285 OA
ATOM     13  C   UNL     1       5.071   3.433  25.712  0.00  0.00    +0.171 A 
ATOM     14  F   UNL     1       4.028   2.732  26.197  0.00  0.00    -0.201 F 
ATOM     15  C   UNL     1       6.271   2.869  25.546  0.00  0.00    +0.054 A 
ATOM     16  C   UNL     1      10.907   3.503  23.761  0.00  0.00    +0.054 A 
ATOM     17  C   UNL     1       7.397   3.650  25.024  0.00  0.00    +0.029 A 
ENDROOT
BRANCH   1  21
ATOM     18  C   UNL     1       8.923  -1.197  24.003  0.00  0.00    +0.060 A 
ATOM     19  C   UNL     1       9.220  -0.574  25.212  0.00  0.00    +0.015 A 
ATOM     20  C   UNL     1       9.016   0.802  25.358  0.00  0.00    +0.010 A 
ATOM     21  C   UNL     1       8.532   1.595  24.291  0.00  0.00    -0.003 A 
ATOM     22  C   UNL     1       8.211   0.954  23.077  0.00  0.00    +0.067 A 
ATOM     23  C   UNL     1       8.378  -0.445  22.962  0.00  0.00    +0.030 A 
BRANCH  18  24
ATOM     24  C   UNL     1       9.210  -2.647  23.867  0.00  0.00    +0.337 C 
ATOM     25  O   UNL     1      10.343  -3.090  23.832  0.00  0.00    -0.245 OA
BRANCH  24  26
ATOM     26  O   UNL     1       8.110  -3.414  23.723  0.00  0.00    -0.477 OA
ATOM     27  H   UNL     1       7.855  -3.651  22.811  0.00  0.00    +0.295 HD
ENDBRANCH  24  26
ENDBRANCH  18  24
BRANCH  22  28
ATOM     28  C   UNL     1       7.844   1.630  21.802  0.00  0.00    +0.337 C 
ATOM     29  O   UNL     1       6.844   2.329  21.739  0.00  0.00    -0.245 OA
BRANCH  28  30
ATOM     30  O   UNL     1       8.662   1.461  20.752  0.00  0.00    -0.477 OA
ATOM     31  H   UNL     1       9.324   0.755  20.820  0.00  0.00    +0.295 HD
ENDBRANCH  28  30
ENDBRANCH  22  28
ENDBRANCH   1  21
BRANCH   5  32
ATOM     32  O   UNL     1      12.859   6.599  23.550  0.00  0.00    -0.504 OA
ATOM     33  H   UNL     1      13.629   6.091  23.240  0.00  0.00    +0.292 HD
ENDBRANCH   5  32
TORSDOF 6
ENDMDL
MODEL 9
REMARK VINA RESULT:      -6.5      2.340      6.398
REMARK  Name = 
REMARK  6 active torsions:
REMARK  status: ('A' for Active; 'I' for Inactive)
REMARK    1  A    between atoms: O_1  and  C_2
REMARK    2  A    between atoms: C_2  and  C_4
REMARK    3  A    between atoms: C_6  and  C_7
REMARK    4  A    between atoms: C_7  and  O_8
REMARK    5  A    between atoms: C_10  and  C_13
REMARK    6  A    between atoms: C_25  and  O_26
REMARK                            x       y       z     vdW  Elec       q    Type
REMARK                         _______ _______ _______ _____ _____    ______ ____
ROOT
ATOM      1  C   UNL     1       5.927  -1.470  25.139  0.00  0.00    +0.004 A 
ATOM      2  C   UNL     1       4.834  -1.152  26.104  0.00  0.00    +0.029 A 
ATOM      3  C   UNL     1       3.797  -2.076  26.302  0.00  0.00    +0.140 A 
ATOM      4  C   UNL     1       2.798  -1.880  27.263  0.00  0.00    +0.095 A 
ATOM      5  C   UNL     1       2.837  -0.742  28.055  0.00  0.00    +0.155 A 
ATOM      6  C   UNL     1       3.849   0.196  27.866  0.00  0.00    +0.165 A 
ATOM      7  F   UNL     1       3.908   1.292  28.636  0.00  0.00    -0.202 F 
ATOM      8  O   UNL     1       3.692  -3.228  25.571  0.00  0.00    -0.455 OA
ATOM      9  C   UNL     1       4.636  -3.494  24.595  0.00  0.00    +0.140 A 
ATOM     10  C   UNL     1       4.394  -4.480  23.718  0.00  0.00    +0.100 A 
ATOM     11  C   UNL     1       5.368  -4.806  22.652  0.00  0.00    +0.217 A 
ATOM     12  O   UNL     1       5.079  -5.592  21.759  0.00  0.00    -0.285 OA
ATOM     13  C   UNL     1       6.692  -4.155  22.759  0.00  0.00    +0.171 A 
ATOM     14  F   UNL     1       7.669  -4.629  21.962  0.00  0.00    -0.201 F 
ATOM     15  C   UNL     1       6.918  -3.156  23.617  0.00  0.00    +0.054 A 
ATOM     16  C   UNL     1       4.833   0.007  26.892  0.00  0.00    +0.054 A 
ATOM     17  C   UNL     1       5.843  -2.658  24.482  0.00  0.00    +0.029 A 
ENDROOT
BRANCH   1  21
ATOM     18  C   UNL     1       8.982   1.171  23.608  0.00  0.00    +0.060 A 
ATOM     19  C   UNL     1       7.754   1.007  22.973  0.00  0.00    +0.015 A 
ATOM     20  C   UNL     1       6.774   0.189  23.544  0.00  0.00    +0.010 A 
ATOM     21  C   UNL     1       7.006  -0.508  24.754  0.00  0.00    -0.003 A 
ATOM     22  C   UNL     1       8.242  -0.320  25.404  0.00  0.00    +0.067 A 
ATOM     23  C   UNL     1       9.203   0.549  24.838  0.00  0.00    +0.030 A 
BRANCH  18  24
ATOM     24  C   UNL     1      10.018   1.998  22.942  0.00  0.00    +0.337 C 
ATOM     25  O   UNL     1      10.871   2.605  23.563  0.00  0.00    -0.245 OA
BRANCH  24  26
ATOM     26  O   UNL     1       9.890   2.064  21.601  0.00  0.00    -0.477 OA
ATOM     27  H   UNL     1       9.542   2.897  21.233  0.00  0.00    +0.295 HD
ENDBRANCH  24  26
ENDBRANCH  18  24
BRANCH  22  28
ATOM     28  C   UNL     1       8.731  -1.079  26.589  0.00  0.00    +0.337 C 
ATOM     29  O   UNL     1       8.706  -2.301  26.592  0.00  0.00    -0.245 OA
BRANCH  28  30
ATOM     30  O   UNL     1       9.216  -0.374  27.622  0.00  0.00    -0.477 OA
ATOM     31  H   UNL     1       8.569   0.074  28.189  0.00  0.00    +0.295 HD
ENDBRANCH  28  30
ENDBRANCH  22  28
ENDBRANCH   1  21
BRANCH   5  32
ATOM     32  O   UNL     1       1.902  -0.532  29.026  0.00  0.00    -0.504 OA
ATOM     33  H   UNL     1       2.341  -0.309  29.865  0.00  0.00    +0.292 HD
ENDBRANCH   5  32
TORSDOF 6
ENDMDL
