MODEL 1
REMARK VINA RESULT:      -7.0      0.000      0.000
REMARK  Name = 
REMARK  5 active torsions:
REMARK  status: ('A' for Active; 'I' for Inactive)
REMARK    1  A    between atoms: N_1  and  S_2
REMARK    2  A    between atoms: S_2  and  C_5
REMARK    3  A    between atoms: C_8  and  N_11
REMARK    4  A    between atoms: C_13  and  C_23
REMARK    5  A    between atoms: C_15  and  C_16
REMARK                            x       y       z     vdW  Elec       q    Type
REMARK                         _______ _______ _______ _____ _____    ______ ____
ROOT
ATOM      1  N   UNL     1      10.408   2.683  23.594  0.00  0.00    -0.232 N 
ATOM      2  C   UNL     1       9.478   3.689  23.894  0.00  0.00    +0.075 A 
ATOM      3  C   UNL     1      10.167   4.874  23.693  0.00  0.00    +0.062 A 
ATOM      4  C   UNL     1      11.506   4.524  23.406  0.00  0.00    +0.166 A 
ATOM      5  N   UNL     1      11.660   3.189  23.430  0.00  0.00    -0.162 NA
ENDROOT
BRANCH   2   6
ATOM      6  C   UNL     1       8.098   3.533  24.397  0.00  0.00    +0.001 A 
ATOM      7  C   UNL     1       7.784   3.617  25.764  0.00  0.00    +0.011 A 
ATOM      8  C   UNL     1       6.482   3.394  26.225  0.00  0.00    +0.016 A 
ATOM      9  C   UNL     1       5.456   3.177  25.313  0.00  0.00    +0.018 A 
ATOM     10 BR   UNL     1       3.693   2.905  25.931  0.00  0.00    -0.050 Br
ATOM     11  C   UNL     1       5.725   3.174  23.947  0.00  0.00    +0.016 A 
ATOM     12  C   UNL     1       7.039   3.338  23.496  0.00  0.00    +0.011 A 
ENDBRANCH   2   6
BRANCH   1  16
ATOM     13  C   UNL     1       9.308  -1.353  23.521  0.00  0.00    +0.105 A 
ATOM     14  C   UNL     1       9.345  -0.640  22.321  0.00  0.00    +0.030 A 
ATOM     15  C   UNL     1       9.816   0.671  22.317  0.00  0.00    +0.030 A 
ATOM     16  C   UNL     1      10.211   1.271  23.520  0.00  0.00    +0.066 A 
ATOM     17  C   UNL     1      10.316   0.501  24.690  0.00  0.00    +0.030 A 
ATOM     18  C   UNL     1       9.850  -0.818  24.693  0.00  0.00    +0.030 A 
BRANCH  13  19
ATOM     19  S   UNL     1       8.506  -2.927  23.538  0.00  0.00    +0.056 S 
ATOM     20  O   UNL     1       7.850  -3.144  22.267  0.00  0.00    -0.153 OA
ATOM     21  O   UNL     1       9.379  -3.904  24.144  0.00  0.00    -0.153 OA
BRANCH  19  22
ATOM     22  N   UNL     1       7.271  -2.651  24.648  0.00  0.00    -0.204 NA
ATOM     23  H   UNL     1       7.236  -1.664  24.900  0.00  0.00    +0.144 HD
ATOM     24  H   UNL     1       6.390  -3.012  24.279  0.00  0.00    +0.144 HD
ENDBRANCH  19  22
ENDBRANCH  13  19
ENDBRANCH   1  16
BRANCH   4  25
ATOM     25  C   UNL     1      12.629   5.496  23.154  0.00  0.00    +0.436 C 
ATOM     26  F   UNL     1      13.843   4.910  23.347  0.00  0.00    -0.164 F 
ATOM     27  F   UNL     1      12.574   6.547  24.017  0.00  0.00    -0.164 F 
ATOM     28  F   UNL     1      12.638   6.016  21.900  0.00  0.00    -0.164 F 
ENDBRANCH   4  25
TORSDOF 5
ENDMDL
MODEL 2
REMARK VINA RESULT:      -6.6      3.689      5.291
REMARK  Name = 
REMARK  5 active torsions:
REMARK  status: ('A' for Active; 'I' for Inactive)
REMARK    1  A    between atoms: N_1  and  S_2
REMARK    2  A    between atoms: S_2  and  C_5
REMARK    3  A    between atoms: C_8  and  N_11
REMARK    4  A    between atoms: C_13  and  C_23
REMARK    5  A    between atoms: C_15  and  C_16
REMARK                            x       y       z     vdW  Elec       q    Type
REMARK                         _______ _______ _______ _____ _____    ______ ____
ROOT
ATOM      1  N   UNL     1       9.321   3.907  23.570  0.00  0.00    -0.232 N 
ATOM      2  C   UNL     1      10.073   2.736  23.399  0.00  0.00    +0.075 A 
ATOM      3  C   UNL     1      11.391   3.161  23.417  0.00  0.00    +0.062 A 
ATOM      4  C   UNL     1      11.365   4.572  23.470  0.00  0.00    +0.166 A 
ATOM      5  N   UNL     1      10.097   5.021  23.479  0.00  0.00    -0.162 NA
ENDROOT
BRANCH   2   6
ATOM      6  C   UNL     1       9.580   1.363  23.164  0.00  0.00    +0.001 A 
ATOM      7  C   UNL     1       9.623   0.757  21.898  0.00  0.00    +0.011 A 
ATOM      8  C   UNL     1       9.084  -0.516  21.682  0.00  0.00    +0.016 A 
ATOM      9  C   UNL     1       8.580  -1.240  22.756  0.00  0.00    +0.018 A 
ATOM     10 BR   UNL     1       7.879  -2.971  22.473  0.00  0.00    -0.050 Br
ATOM     11  C   UNL     1       8.602  -0.697  24.037  0.00  0.00    +0.016 A 
ATOM     12  C   UNL     1       9.088   0.600  24.235  0.00  0.00    +0.011 A 
ENDBRANCH   2   6
BRANCH   1  16
ATOM     13  C   UNL     1       5.169   3.782  24.069  0.00  0.00    +0.105 A 
ATOM     14  C   UNL     1       5.981   3.954  25.192  0.00  0.00    +0.030 A 
ATOM     15  C   UNL     1       7.355   4.108  25.027  0.00  0.00    +0.030 A 
ATOM     16  C   UNL     1       7.911   4.053  23.742  0.00  0.00    +0.066 A 
ATOM     17  C   UNL     1       7.076   4.035  22.614  0.00  0.00    +0.030 A 
ATOM     18  C   UNL     1       5.695   3.886  22.778  0.00  0.00    +0.030 A 
BRANCH  13  19
ATOM     19  S   UNL     1       3.469   3.370  24.317  0.00  0.00    +0.056 S 
ATOM     20  O   UNL     1       3.378   2.203  25.167  0.00  0.00    -0.153 OA
ATOM     21  O   UNL     1       2.713   4.576  24.561  0.00  0.00    -0.153 OA
BRANCH  19  22
ATOM     22  N   UNL     1       3.032   2.848  22.778  0.00  0.00    -0.204 NA
ATOM     23  H   UNL     1       3.864   2.640  22.226  0.00  0.00    +0.144 HD
ATOM     24  H   UNL     1       2.382   2.063  22.852  0.00  0.00    +0.144 HD
ENDBRANCH  19  22
ENDBRANCH  13  19
ENDBRANCH   1  16
BRANCH   4  25
ATOM     25  C   UNL     1      12.575   5.471  23.468  0.00  0.00    +0.436 C 
ATOM     26  F   UNL     1      12.605   6.258  22.358  0.00  0.00    -0.164 F 
ATOM     27  F   UNL     1      13.726   4.746  23.451  0.00  0.00    -0.164 F 
ATOM     28  F   UNL     1      12.648   6.300  24.541  0.00  0.00    -0.164 F 
ENDBRANCH   4  25
TORSDOF 5
ENDMDL
MODEL 3
REMARK VINA RESULT:      -6.5      1.449      1.820
REMARK  Name = 
REMARK  5 active torsions:
REMARK  status: ('A' for Active; 'I' for Inactive)
REMARK    1  A    between atoms: N_1  and  S_2
REMARK    2  A    between atoms: S_2  and  C_5
REMARK    3  A    between atoms: C_8  and  N_11
REMARK    4  A    between atoms: C_13  and  C_23
REMARK    5  A    between atoms: C_15  and  C_16
REMARK                            x       y       z     vdW  Elec       q    Type
REMARK                         _______ _______ _______ _____ _____    ______ ____
ROOT
ATOM      1  N   UNL     1       9.919   3.420  23.702  0.00  0.00    -0.232 N 
ATOM      2  C   UNL     1       9.348   4.649  24.061  0.00  0.00    +0.075 A 
ATOM      3  C   UNL     1      10.319   5.588  23.755  0.00  0.00    +0.062 A 
ATOM      4  C   UNL     1      11.466   4.871  23.347  0.00  0.00    +0.166 A 
ATOM      5  N   UNL     1      11.239   3.547  23.397  0.00  0.00    -0.162 NA
ENDROOT
BRANCH   2   6
ATOM      6  C   UNL     1       8.042   4.893  24.705  0.00  0.00    +0.001 A 
ATOM      7  C   UNL     1       7.847   4.747  26.089  0.00  0.00    +0.011 A 
ATOM      8  C   UNL     1       6.584   4.913  26.667  0.00  0.00    +0.016 A 
ATOM      9  C   UNL     1       5.515   5.321  25.879  0.00  0.00    +0.018 A 
ATOM     10 BR   UNL     1       3.815   5.574  26.663  0.00  0.00    -0.050 Br
ATOM     11  C   UNL     1       5.698   5.556  24.520  0.00  0.00    +0.016 A 
ATOM     12  C   UNL     1       6.951   5.330  23.937  0.00  0.00    +0.011 A 
ENDBRANCH   2   6
BRANCH   1  16
ATOM     13  C   UNL     1       8.678  -0.573  23.545  0.00  0.00    +0.105 A 
ATOM     14  C   UNL     1       8.984  -0.007  24.785  0.00  0.00    +0.030 A 
ATOM     15  C   UNL     1       9.290   1.349  24.862  0.00  0.00    +0.030 A 
ATOM     16  C   UNL     1       9.324   2.121  23.693  0.00  0.00    +0.066 A 
ATOM     17  C   UNL     1       8.867   1.582  22.480  0.00  0.00    +0.030 A 
ATOM     18  C   UNL     1       8.553   0.222  22.402  0.00  0.00    +0.030 A 
BRANCH  13  19
ATOM     19  S   UNL     1       8.510  -2.329  23.442  0.00  0.00    +0.056 S 
ATOM     20  O   UNL     1       7.722  -2.801  24.559  0.00  0.00    -0.153 OA
ATOM     21  O   UNL     1       8.234  -2.706  22.076  0.00  0.00    -0.153 OA
BRANCH  19  22
ATOM     22  N   UNL     1      10.087  -2.826  23.754  0.00  0.00    -0.204 NA
ATOM     23  H   UNL     1      10.207  -3.018  24.748  0.00  0.00    +0.144 HD
ATOM     24  H   UNL     1      10.325  -3.615  23.152  0.00  0.00    +0.144 HD
ENDBRANCH  19  22
ENDBRANCH  13  19
ENDBRANCH   1  16
BRANCH   4  25
ATOM     25  C   UNL     1      12.786   5.483  22.953  0.00  0.00    +0.436 C 
ATOM     26  F   UNL     1      13.827   4.673  23.289  0.00  0.00    -0.164 F 
ATOM     27  F   UNL     1      12.996   6.660  23.602  0.00  0.00    -0.164 F 
ATOM     28  F   UNL     1      12.900   5.740  21.625  0.00  0.00    -0.164 F 
ENDBRANCH   4  25
TORSDOF 5
ENDMDL
MODEL 4
REMARK VINA RESULT:      -6.4      6.230      8.026
REMARK  Name = 
REMARK  5 active torsions:
REMARK  status: ('A' for Active; 'I' for Inactive)
REMARK    1  A    between atoms: N_1  and  S_2
REMARK    2  A    between atoms: S_2  and  C_5
REMARK    3  A    between atoms: C_8  and  N_11
REMARK    4  A    between atoms: C_13  and  C_23
REMARK    5  A    between atoms: C_15  and  C_16
REMARK                            x       y       z     vdW  Elec       q    Type
REMARK                         _______ _______ _______ _____ _____    ______ ____
ROOT
ATOM      1  N   UNL     1       6.947  -2.928  23.581  0.00  0.00    -0.232 N 
ATOM      2  C   UNL     1       6.128  -3.669  24.446  0.00  0.00    +0.075 A 
ATOM      3  C   UNL     1       5.997  -4.903  23.832  0.00  0.00    +0.062 A 
ATOM      4  C   UNL     1       6.634  -4.804  22.575  0.00  0.00    +0.166 A 
ATOM      5  N   UNL     1       7.138  -3.570  22.397  0.00  0.00    -0.162 NA
ENDROOT
BRANCH   2   6
ATOM      6  C   UNL     1       5.475  -3.216  25.691  0.00  0.00    +0.001 A 
ATOM      7  C   UNL     1       4.590  -2.126  25.721  0.00  0.00    +0.011 A 
ATOM      8  C   UNL     1       4.039  -1.669  26.923  0.00  0.00    +0.016 A 
ATOM      9  C   UNL     1       4.293  -2.360  28.102  0.00  0.00    +0.018 A 
ATOM     10 BR   UNL     1       3.526  -1.764  29.722  0.00  0.00    -0.050 Br
ATOM     11  C   UNL     1       5.098  -3.495  28.088  0.00  0.00    +0.016 A 
ATOM     12  C   UNL     1       5.694  -3.910  26.892  0.00  0.00    +0.011 A 
ENDBRANCH   2   6
BRANCH   1  16
ATOM     13  C   UNL     1       8.847   0.799  23.648  0.00  0.00    +0.105 A 
ATOM     14  C   UNL     1       7.539   0.714  23.166  0.00  0.00    +0.030 A 
ATOM     15  C   UNL     1       6.858  -0.498  23.241  0.00  0.00    +0.030 A 
ATOM     16  C   UNL     1       7.504  -1.626  23.765  0.00  0.00    +0.066 A 
ATOM     17  C   UNL     1       8.756  -1.496  24.385  0.00  0.00    +0.030 A 
ATOM     18  C   UNL     1       9.439  -0.277  24.316  0.00  0.00    +0.030 A 
BRANCH  13  19
ATOM     19  S   UNL     1       9.761   2.280  23.341  0.00  0.00    +0.056 S 
ATOM     20  O   UNL     1       8.896   3.424  23.527  0.00  0.00    -0.153 OA
ATOM     21  O   UNL     1      11.063   2.176  23.956  0.00  0.00    -0.153 OA
BRANCH  19  22
ATOM     22  N   UNL     1      10.017   2.166  21.682  0.00  0.00    -0.204 NA
ATOM     23  H   UNL     1      11.008   2.025  21.486  0.00  0.00    +0.144 HD
ATOM     24  H   UNL     1       9.414   1.442  21.289  0.00  0.00    +0.144 HD
ENDBRANCH  19  22
ENDBRANCH  13  19
ENDBRANCH   1  16
BRANCH   4  25
ATOM     25  C   UNL     1       6.707  -5.899  21.543  0.00  0.00    +0.436 C 
ATOM     26  F   UNL     1       6.323  -7.097  22.063  0.00  0.00    -0.164 F 
ATOM     27  F   UNL     1       7.981  -6.071  21.096  0.00  0.00    -0.164 F 
ATOM     28  F   UNL     1       5.933  -5.678  20.449  0.00  0.00    -0.164 F 
ENDBRANCH   4  25
TORSDOF 5
ENDMDL
MODEL 5
REMARK VINA RESULT:      -6.0      4.112      5.166
REMARK  Name = 
REMARK  5 active torsions:
REMARK  status: ('A' for Active; 'I' for Inactive)
REMARK    1  A    between atoms: N_1  and  S_2
REMARK    2  A    between atoms: S_2  and  C_5
REMARK    3  A    between atoms: C_8  and  N_11
REMARK    4  A    between atoms: C_13  and  C_23
REMARK    5  A    between atoms: C_15  and  C_16
REMARK                            x       y       z     vdW  Elec       q    Type
REMARK                         _______ _______ _______ _____ _____    ______ ____
ROOT
ATOM      1  N   UNL     1       7.619  -1.150  24.258  0.00  0.00    -0.232 N 
ATOM      2  C   UNL     1       7.188   0.124  24.658  0.00  0.00    +0.075 A 
ATOM      3  C   UNL     1       7.616   0.970  23.648  0.00  0.00    +0.062 A 
ATOM      4  C   UNL     1       8.387   0.188  22.759  0.00  0.00    +0.166 A 
ATOM      5  N   UNL     1       8.451  -1.085  23.184  0.00  0.00    -0.162 NA
ENDROOT
BRANCH   2   6
ATOM      6  C   UNL     1       6.510   0.503  25.914  0.00  0.00    +0.001 A 
ATOM      7  C   UNL     1       5.115   0.434  26.064  0.00  0.00    +0.011 A 
ATOM      8  C   UNL     1       4.487   0.867  27.237  0.00  0.00    +0.016 A 
ATOM      9  C   UNL     1       5.258   1.287  28.314  0.00  0.00    +0.018 A 
ATOM     10 BR   UNL     1       4.415   1.845  29.910  0.00  0.00    -0.050 Br
ATOM     11  C   UNL     1       6.646   1.286  28.223  0.00  0.00    +0.016 A 
ATOM     12  C   UNL     1       7.265   0.909  27.026  0.00  0.00    +0.011 A 
ENDBRANCH   2   6
BRANCH   1  16
ATOM     13  C   UNL     1       6.521  -4.588  26.375  0.00  0.00    +0.105 A 
ATOM     14  C   UNL     1       5.860  -4.288  25.181  0.00  0.00    +0.030 A 
ATOM     15  C   UNL     1       6.291  -3.209  24.412  0.00  0.00    +0.030 A 
ATOM     16  C   UNL     1       7.356  -2.417  24.862  0.00  0.00    +0.066 A 
ATOM     17  C   UNL     1       8.109  -2.816  25.978  0.00  0.00    +0.030 A 
ATOM     18  C   UNL     1       7.681  -3.903  26.747  0.00  0.00    +0.030 A 
BRANCH  13  19
ATOM     19  S   UNL     1       5.822  -5.816  27.435  0.00  0.00    +0.056 S 
ATOM     20  O   UNL     1       5.000  -5.174  28.437  0.00  0.00    -0.153 OA
ATOM     21  O   UNL     1       5.359  -6.929  26.640  0.00  0.00    -0.153 OA
BRANCH  19  22
ATOM     22  N   UNL     1       7.191  -6.361  28.249  0.00  0.00    -0.204 NA
ATOM     23  H   UNL     1       7.721  -5.572  28.617  0.00  0.00    +0.144 HD
ATOM     24  H   UNL     1       6.920  -7.041  28.961  0.00  0.00    +0.144 HD
ENDBRANCH  19  22
ENDBRANCH  13  19
ENDBRANCH   1  16
BRANCH   4  25
ATOM     25  C   UNL     1       9.088   0.700  21.527  0.00  0.00    +0.436 C 
ATOM     26  F   UNL     1       9.474  -0.323  20.716  0.00  0.00    -0.164 F 
ATOM     27  F   UNL     1      10.223   1.376  21.852  0.00  0.00    -0.164 F 
ATOM     28  F   UNL     1       8.333   1.538  20.771  0.00  0.00    -0.164 F 
ENDBRANCH   4  25
TORSDOF 5
ENDMDL
MODEL 6
REMARK VINA RESULT:      -6.0      4.453      5.587
REMARK  Name = 
REMARK  5 active torsions:
REMARK  status: ('A' for Active; 'I' for Inactive)
REMARK    1  A    between atoms: N_1  and  S_2
REMARK    2  A    between atoms: S_2  and  C_5
REMARK    3  A    between atoms: C_8  and  N_11
REMARK    4  A    between atoms: C_13  and  C_23
REMARK    5  A    between atoms: C_15  and  C_16
REMARK                            x       y       z     vdW  Elec       q    Type
REMARK                         _______ _______ _______ _____ _____    ______ ____
ROOT
ATOM      1  N   UNL     1       7.105  -1.443  23.707  0.00  0.00    -0.232 N 
ATOM      2  C   UNL     1       6.948  -0.282  24.478  0.00  0.00    +0.075 A 
ATOM      3  C   UNL     1       7.551   0.717  23.732  0.00  0.00    +0.062 A 
ATOM      4  C   UNL     1       8.147   0.089  22.615  0.00  0.00    +0.166 A 
ATOM      5  N   UNL     1       7.941  -1.238  22.653  0.00  0.00    -0.162 NA
ENDROOT
BRANCH   2   6
ATOM      6  C   UNL     1       6.355  -0.156  25.825  0.00  0.00    +0.001 A 
ATOM      7  C   UNL     1       5.057  -0.605  26.119  0.00  0.00    +0.011 A 
ATOM      8  C   UNL     1       4.488  -0.411  27.382  0.00  0.00    +0.016 A 
ATOM      9  C   UNL     1       5.250   0.153  28.399  0.00  0.00    +0.018 A 
ATOM     10 BR   UNL     1       4.494   0.390  30.114  0.00  0.00    -0.050 Br
ATOM     11  C   UNL     1       6.568   0.529  28.160  0.00  0.00    +0.016 A 
ATOM     12  C   UNL     1       7.110   0.386  26.877  0.00  0.00    +0.011 A 
ENDBRANCH   2   6
BRANCH   1  16
ATOM     13  C   UNL     1       5.326  -5.061  24.826  0.00  0.00    +0.105 A 
ATOM     14  C   UNL     1       4.698  -4.267  23.864  0.00  0.00    +0.030 A 
ATOM     15  C   UNL     1       5.335  -3.117  23.403  0.00  0.00    +0.030 A 
ATOM     16  C   UNL     1       6.578  -2.751  23.935  0.00  0.00    +0.066 A 
ATOM     17  C   UNL     1       7.268  -3.632  24.784  0.00  0.00    +0.030 A 
ATOM     18  C   UNL     1       6.632  -4.790  25.242  0.00  0.00    +0.030 A 
BRANCH  13  19
ATOM     19  S   UNL     1       4.408  -6.385  25.551  0.00  0.00    +0.056 S 
ATOM     20  O   UNL     1       5.219  -7.039  26.554  0.00  0.00    -0.153 OA
ATOM     21  O   UNL     1       3.054  -5.949  25.802  0.00  0.00    -0.153 OA
BRANCH  19  22
ATOM     22  N   UNL     1       4.319  -7.464  24.262  0.00  0.00    -0.204 NA
ATOM     23  H   UNL     1       4.968  -8.237  24.404  0.00  0.00    +0.144 HD
ATOM     24  H   UNL     1       3.351  -7.760  24.127  0.00  0.00    +0.144 HD
ENDBRANCH  19  22
ENDBRANCH  13  19
ENDBRANCH   1  16
BRANCH   4  25
ATOM     25  C   UNL     1       8.949   0.785  21.546  0.00  0.00    +0.436 C 
ATOM     26  F   UNL     1       8.207   1.729  20.906  0.00  0.00    -0.164 F 
ATOM     27  F   UNL     1       9.357  -0.091  20.588  0.00  0.00    -0.164 F 
ATOM     28  F   UNL     1      10.064   1.407  22.009  0.00  0.00    -0.164 F 
ENDBRANCH   4  25
TORSDOF 5
ENDMDL
MODEL 7
REMARK VINA RESULT:      -6.0      5.980      7.589
REMARK  Name = 
REMARK  5 active torsions:
REMARK  status: ('A' for Active; 'I' for Inactive)
REMARK    1  A    between atoms: N_1  and  S_2
REMARK    2  A    between atoms: S_2  and  C_5
REMARK    3  A    between atoms: C_8  and  N_11
REMARK    4  A    between atoms: C_13  and  C_23
REMARK    5  A    between atoms: C_15  and  C_16
REMARK                            x       y       z     vdW  Elec       q    Type
REMARK                         _______ _______ _______ _____ _____    ______ ____
ROOT
ATOM      1  N   UNL     1       7.418  -1.880  24.629  0.00  0.00    -0.232 N 
ATOM      2  C   UNL     1       8.259  -1.475  23.582  0.00  0.00    +0.075 A 
ATOM      3  C   UNL     1       8.255  -2.543  22.699  0.00  0.00    +0.062 A 
ATOM      4  C   UNL     1       7.518  -3.579  23.315  0.00  0.00    +0.166 A 
ATOM      5  N   UNL     1       7.083  -3.194  24.527  0.00  0.00    -0.162 NA
ENDROOT
BRANCH   2   6
ATOM      6  C   UNL     1       9.046  -0.231  23.476  0.00  0.00    +0.001 A 
ATOM      7  C   UNL     1      10.148   0.034  24.305  0.00  0.00    +0.011 A 
ATOM      8  C   UNL     1      10.836   1.251  24.236  0.00  0.00    +0.016 A 
ATOM      9  C   UNL     1      10.486   2.183  23.267  0.00  0.00    +0.018 A 
ATOM     10 BR   UNL     1      11.431   3.815  23.151  0.00  0.00    -0.050 Br
ATOM     11  C   UNL     1       9.453   1.912  22.375  0.00  0.00    +0.016 A 
ATOM     12  C   UNL     1       8.731   0.718  22.490  0.00  0.00    +0.011 A 
ENDBRANCH   2   6
BRANCH   1  16
ATOM     13  C   UNL     1       6.323   0.751  27.694  0.00  0.00    +0.105 A 
ATOM     14  C   UNL     1       5.384   0.427  26.711  0.00  0.00    +0.030 A 
ATOM     15  C   UNL     1       5.700  -0.531  25.751  0.00  0.00    +0.030 A 
ATOM     16  C   UNL     1       6.966  -1.131  25.759  0.00  0.00    +0.066 A 
ATOM     17  C   UNL     1       7.842  -0.915  26.834  0.00  0.00    +0.030 A 
ATOM     18  C   UNL     1       7.523   0.043  27.803  0.00  0.00    +0.030 A 
BRANCH  13  19
ATOM     19  S   UNL     1       5.985   2.118  28.760  0.00  0.00    +0.056 S 
ATOM     20  O   UNL     1       5.579   3.257  27.965  0.00  0.00    -0.153 OA
ATOM     21  O   UNL     1       5.239   1.659  29.907  0.00  0.00    -0.153 OA
BRANCH  19  22
ATOM     22  N   UNL     1       7.529   2.483  29.322  0.00  0.00    -0.204 NA
ATOM     23  H   UNL     1       7.960   3.195  28.734  0.00  0.00    +0.144 HD
ATOM     24  H   UNL     1       7.485   2.738  30.310  0.00  0.00    +0.144 HD
ENDBRANCH  19  22
ENDBRANCH  13  19
ENDBRANCH   1  16
BRANCH   4  25
ATOM     25  C   UNL     1       7.284  -4.950  22.733  0.00  0.00    +0.436 C 
ATOM     26  F   UNL     1       6.076  -5.449  23.114  0.00  0.00    -0.164 F 
ATOM     27  F   UNL     1       8.216  -5.837  23.173  0.00  0.00    -0.164 F 
ATOM     28  F   UNL     1       7.315  -4.985  21.376  0.00  0.00    -0.164 F 
ENDBRANCH   4  25
TORSDOF 5
ENDMDL
MODEL 8
REMARK VINA RESULT:      -6.0      2.497      3.472
REMARK  Name = 
REMARK  5 active torsions:
REMARK  status: ('A' for Active; 'I' for Inactive)
REMARK    1  A    between atoms: N_1  and  S_2
REMARK    2  A    between atoms: S_2  and  C_5
REMARK    3  A    between atoms: C_8  and  N_11
REMARK    4  A    between atoms: C_13  and  C_23
REMARK    5  A    between atoms: C_15  and  C_16
REMARK                            x       y       z     vdW  Elec       q    Type
REMARK                         _______ _______ _______ _____ _____    ______ ____
ROOT
ATOM      1  N   UNL     1       8.656   0.647  24.827  0.00  0.00    -0.232 N 
ATOM      2  C   UNL     1       7.906   1.753  25.253  0.00  0.00    +0.075 A 
ATOM      3  C   UNL     1       8.543   2.845  24.689  0.00  0.00    +0.062 A 
ATOM      4  C   UNL     1       9.710   2.358  24.059  0.00  0.00    +0.166 A 
ATOM      5  N   UNL     1       9.812   1.027  24.220  0.00  0.00    -0.162 NA
ENDROOT
BRANCH   2   6
ATOM      6  C   UNL     1       6.748   1.769  26.170  0.00  0.00    +0.001 A 
ATOM      7  C   UNL     1       5.480   1.302  25.787  0.00  0.00    +0.011 A 
ATOM      8  C   UNL     1       4.380   1.393  26.647  0.00  0.00    +0.016 A 
ATOM      9  C   UNL     1       4.557   1.869  27.941  0.00  0.00    +0.018 A 
ATOM     10 BR   UNL     1       3.080   1.966  29.114  0.00  0.00    -0.050 Br
ATOM     11  C   UNL     1       5.820   2.259  28.376  0.00  0.00    +0.016 A 
ATOM     12  C   UNL     1       6.903   2.221  27.490  0.00  0.00    +0.011 A 
ENDBRANCH   2   6
BRANCH   1  16
ATOM     13  C   UNL     1       8.397  -3.513  25.199  0.00  0.00    +0.105 A 
ATOM     14  C   UNL     1       8.683  -2.748  26.332  0.00  0.00    +0.030 A 
ATOM     15  C   UNL     1       8.662  -1.358  26.244  0.00  0.00    +0.030 A 
ATOM     16  C   UNL     1       8.391  -0.744  25.014  0.00  0.00    +0.066 A 
ATOM     17  C   UNL     1       7.956  -1.514  23.924  0.00  0.00    +0.030 A 
ATOM     18  C   UNL     1       7.970  -2.910  24.013  0.00  0.00    +0.030 A 
BRANCH  13  19
ATOM     19  S   UNL     1       8.645  -5.260  25.281  0.00  0.00    +0.056 S 
ATOM     20  O   UNL     1       7.806  -5.815  26.321  0.00  0.00    -0.153 OA
ATOM     21  O   UNL     1       8.693  -5.802  23.944  0.00  0.00    -0.153 OA
BRANCH  19  22
ATOM     22  N   UNL     1      10.218  -5.338  25.874  0.00  0.00    -0.204 NA
ATOM     23  H   UNL     1      10.876  -5.498  25.112  0.00  0.00    +0.144 HD
ATOM     24  H   UNL     1      10.422  -4.501  26.422  0.00  0.00    +0.144 HD
ENDBRANCH  19  22
ENDBRANCH  13  19
ENDBRANCH   1  16
BRANCH   4  25
ATOM     25  C   UNL     1      10.735   3.200  23.344  0.00  0.00    +0.436 C 
ATOM     26  F   UNL     1      10.424   4.523  23.414  0.00  0.00    -0.164 F 
ATOM     27  F   UNL     1      10.788   2.891  22.020  0.00  0.00    -0.164 F 
ATOM     28  F   UNL     1      11.996   3.065  23.831  0.00  0.00    -0.164 F 
ENDBRANCH   4  25
TORSDOF 5
ENDMDL
MODEL 9
REMARK VINA RESULT:      -5.9      5.486      7.069
REMARK  Name = 
REMARK  5 active torsions:
REMARK  status: ('A' for Active; 'I' for Inactive)
REMARK    1  A    between atoms: N_1  and  S_2
REMARK    2  A    between atoms: S_2  and  C_5
REMARK    3  A    between atoms: C_8  and  N_11
REMARK    4  A    between atoms: C_13  and  C_23
REMARK    5  A    between atoms: C_15  and  C_16
REMARK                            x       y       z     vdW  Elec       q    Type
REMARK                         _______ _______ _______ _____ _____    ______ ____
ROOT
ATOM      1  N   UNL     1       8.462  -1.443  25.186  0.00  0.00    -0.232 N 
ATOM      2  C   UNL     1       7.667  -1.746  26.301  0.00  0.00    +0.075 A 
ATOM      3  C   UNL     1       7.813  -3.112  26.472  0.00  0.00    +0.062 A 
ATOM      4  C   UNL     1       8.582  -3.581  25.383  0.00  0.00    +0.166 A 
ATOM      5  N   UNL     1       8.902  -2.568  24.560  0.00  0.00    -0.162 NA
ENDROOT
BRANCH   2   6
ATOM      6  C   UNL     1       6.797  -0.836  27.073  0.00  0.00    +0.001 A 
ATOM      7  C   UNL     1       7.300   0.276  27.767  0.00  0.00    +0.011 A 
ATOM      8  C   UNL     1       6.468   1.082  28.551  0.00  0.00    +0.016 A 
ATOM      9  C   UNL     1       5.099   0.840  28.574  0.00  0.00    +0.018 A 
ATOM     10 BR   UNL     1       3.969   1.944  29.609  0.00  0.00    -0.050 Br
ATOM     11  C   UNL     1       4.562  -0.205  27.829  0.00  0.00    +0.016 A 
ATOM     12  C   UNL     1       5.408  -1.043  27.094  0.00  0.00    +0.011 A 
ENDBRANCH   2   6
BRANCH   1  16
ATOM     13  C   UNL     1       9.250   2.505  24.043  0.00  0.00    +0.105 A 
ATOM     14  C   UNL     1      10.313   1.689  24.437  0.00  0.00    +0.030 A 
ATOM     15  C   UNL     1      10.079   0.344  24.713  0.00  0.00    +0.030 A 
ATOM     16  C   UNL     1       8.777  -0.166  24.627  0.00  0.00    +0.066 A 
ATOM     17  C   UNL     1       7.747   0.619  24.084  0.00  0.00    +0.030 A 
ATOM     18  C   UNL     1       7.983   1.968  23.800  0.00  0.00    +0.030 A 
BRANCH  13  19
ATOM     19  S   UNL     1       9.530   4.244  23.914  0.00  0.00    +0.056 S 
ATOM     20  O   UNL     1       8.971   4.907  25.071  0.00  0.00    -0.153 OA
ATOM     21  O   UNL     1      10.878   4.481  23.453  0.00  0.00    -0.153 OA
BRANCH  19  22
ATOM     22  N   UNL     1       8.521   4.642  22.627  0.00  0.00    -0.204 NA
ATOM     23  H   UNL     1       8.630   3.968  21.871  0.00  0.00    +0.144 HD
ATOM     24  H   UNL     1       7.559   4.734  22.959  0.00  0.00    +0.144 HD
ENDBRANCH  19  22
ENDBRANCH  13  19
ENDBRANCH   1  16
BRANCH   4  25
ATOM     25  C   UNL     1       8.960  -5.018  25.134  0.00  0.00    +0.436 C 
ATOM     26  F   UNL     1       8.394  -5.846  26.054  0.00  0.00    -0.164 F 
ATOM     27  F   UNL     1      10.304  -5.199  25.237  0.00  0.00    -0.164 F 
ATOM     28  F   UNL     1       8.593  -5.480  23.910  0.00  0.00    -0.164 F 
ENDBRANCH   4  25
TORSDOF 5
ENDMDL
