MODEL 1
REMARK VINA RESULT:      -8.0      0.000      0.000
REMARK  Name = 
REMARK  9 active torsions:
REMARK  status: ('A' for Active; 'I' for Inactive)
REMARK    1  A    between atoms: C_2  and  C_3
REMARK    2  A    between atoms: C_2  and  C_7
REMARK    3  A    between atoms: C_2  and  C_11
REMARK    4  A    between atoms: C_3  and  C_4
REMARK    5  A    between atoms: C_4  and  C_5
REMARK    6  A    between atoms: C_4  and  C_6
REMARK    7  A    between atoms: C_7  and  C_8
REMARK    8  A    between atoms: C_8  and  O_9
REMARK    9  A    between atoms: N_13  and  C_14
REMARK                            x       y       z     vdW  Elec       q    Type
REMARK                         _______ _______ _______ _____ _____    ______ ____
ROOT
ATOM      1  C   UNL     1       6.395  -0.752  23.877  0.00  0.00    +0.163 C 
ATOM      2  C   UNL     1       5.338  -1.224  25.273  0.00  0.00    +0.234 C 
ATOM      3  O   UNL     1       4.582  -0.350  25.733  0.00  0.00    -0.274 OA
ATOM      4  N   UNL     1       5.261  -2.501  25.974  0.00  0.00    -0.314 N 
ATOM      5  H   UNL     1       5.380  -2.141  26.912  0.00  0.00    +0.149 HD
ATOM      6  C   UNL     1       3.989  -3.452  26.350  0.00  0.00    +0.104 C 
ATOM      7  C   UNL     1       3.854  -4.302  27.781  0.00  0.00    +0.019 C 
ATOM      8  C   UNL     1       4.558  -5.648  28.198  0.00  0.00    +0.002 C 
ATOM      9  C   UNL     1       6.049  -5.479  28.458  0.00  0.00    +0.002 C 
ATOM     10  C   UNL     1       6.685  -5.537  27.098  0.00  0.00    +0.022 C 
ATOM     11  C   UNL     1       7.564  -4.379  26.806  0.00  0.00    +0.122 C 
ATOM     12  N   UNL     1       7.818  -4.203  25.387  0.00  0.00    -0.346 N 
ATOM     13  C   UNL     1       7.130  -4.632  24.239  0.00  0.00    +0.049 A 
ATOM     14  C   UNL     1       6.102  -5.559  23.960  0.00  0.00    +0.026 A 
ATOM     15  C   UNL     1       5.664  -5.716  22.637  0.00  0.00    +0.002 A 
ATOM     16  C   UNL     1       6.267  -5.028  21.597  0.00  0.00    +0.001 A 
ATOM     17  C   UNL     1       7.207  -4.042  21.882  0.00  0.00    +0.010 A 
ATOM     18  C   UNL     1       7.580  -3.802  23.222  0.00  0.00    +0.003 A 
ATOM     19  C   UNL     1       8.068  -2.682  23.920  0.00  0.00    -0.020 A 
ATOM     20  C   UNL     1       8.635  -3.142  25.074  0.00  0.00    +0.090 A 
ATOM     21  C   UNL     1       7.847  -1.272  23.637  0.00  0.00    +0.069 C 
ENDROOT
BRANCH   1  23
ATOM     22  C   UNL     1       6.719   2.001  23.985  0.00  0.00    +0.217 C 
ATOM     23  N   UNL     1       6.540   0.794  23.243  0.00  0.00    -0.303 N 
ATOM     24  H   UNL     1       6.925   0.781  22.311  0.00  0.00    +0.149 HD
ATOM     25  O   UNL     1       6.237   2.079  25.119  0.00  0.00    -0.275 OA
BRANCH  22  26
ATOM     26  C   UNL     1       7.780   3.199  23.513  0.00  0.00    +0.086 C 
BRANCH  26  27
ATOM     27  C   UNL     1       7.330   4.689  23.474  0.00  0.00    +0.133 C 
BRANCH  27  28
ATOM     28  C   UNL     1       8.002   5.817  22.634  0.00  0.00    +0.305 C 
ATOM     29  O   UNL     1       8.932   6.465  23.103  0.00  0.00    -0.251 OA
BRANCH  28  30
ATOM     30  O   UNL     1       7.569   5.999  21.387  0.00  0.00    -0.481 OA
ATOM     31  H   UNL     1       8.001   5.492  20.681  0.00  0.00    +0.295 HD
ENDBRANCH  28  30
ENDBRANCH  27  28
ENDBRANCH  26  27
BRANCH  26  32
ATOM     32  C   UNL     1       9.321   3.181  23.960  0.00  0.00    +0.016 C 
BRANCH  32  33
ATOM     33  C   UNL     1      10.364   2.183  23.398  0.00  0.00    -0.016 C 
ATOM     34  C   UNL     1       9.891   1.575  22.051  0.00  0.00    +0.007 C 
ATOM     35  C   UNL     1      10.659   1.022  24.343  0.00  0.00    +0.007 C 
ENDBRANCH  32  33
ENDBRANCH  26  32
ENDBRANCH  22  26
ENDBRANCH   1  23
TORSDOF 7
ENDMDL
MODEL 2
REMARK VINA RESULT:      -8.0      1.581      2.496
REMARK  Name = 
REMARK  9 active torsions:
REMARK  status: ('A' for Active; 'I' for Inactive)
REMARK    1  A    between atoms: C_2  and  C_3
REMARK    2  A    between atoms: C_2  and  C_7
REMARK    3  A    between atoms: C_2  and  C_11
REMARK    4  A    between atoms: C_3  and  C_4
REMARK    5  A    between atoms: C_4  and  C_5
REMARK    6  A    between atoms: C_4  and  C_6
REMARK    7  A    between atoms: C_7  and  C_8
REMARK    8  A    between atoms: C_8  and  O_9
REMARK    9  A    between atoms: N_13  and  C_14
REMARK                            x       y       z     vdW  Elec       q    Type
REMARK                         _______ _______ _______ _____ _____    ______ ____
ROOT
ATOM      1  C   UNL     1       6.629  -1.345  24.290  0.00  0.00    +0.163 C 
ATOM      2  C   UNL     1       5.174  -1.725  25.303  0.00  0.00    +0.234 C 
ATOM      3  O   UNL     1       4.492  -0.764  25.701  0.00  0.00    -0.274 OA
ATOM      4  N   UNL     1       4.688  -3.023  25.759  0.00  0.00    -0.314 N 
ATOM      5  H   UNL     1       4.617  -2.797  26.743  0.00  0.00    +0.149 HD
ATOM      6  C   UNL     1       3.214  -3.717  25.669  0.00  0.00    +0.104 C 
ATOM      7  C   UNL     1       2.557  -4.664  26.877  0.00  0.00    +0.019 C 
ATOM      8  C   UNL     1       2.874  -6.165  27.235  0.00  0.00    +0.002 C 
ATOM      9  C   UNL     1       4.249  -6.344  27.866  0.00  0.00    +0.002 C 
ATOM     10  C   UNL     1       5.200  -6.393  26.704  0.00  0.00    +0.022 C 
ATOM     11  C   UNL     1       6.317  -5.423  26.813  0.00  0.00    +0.122 C 
ATOM     12  N   UNL     1       6.964  -5.157  25.540  0.00  0.00    -0.346 N 
ATOM     13  C   UNL     1       6.539  -5.308  24.209  0.00  0.00    +0.049 A 
ATOM     14  C   UNL     1       5.472  -5.962  23.553  0.00  0.00    +0.026 A 
ATOM     15  C   UNL     1       5.379  -5.883  22.156  0.00  0.00    +0.002 A 
ATOM     16  C   UNL     1       6.348  -5.233  21.409  0.00  0.00    +0.001 A 
ATOM     17  C   UNL     1       7.339  -4.504  22.059  0.00  0.00    +0.010 A 
ATOM     18  C   UNL     1       7.381  -4.490  23.470  0.00  0.00    +0.003 A 
ATOM     19  C   UNL     1       7.859  -3.579  24.429  0.00  0.00    -0.020 A 
ATOM     20  C   UNL     1       8.010  -4.267  25.599  0.00  0.00    +0.090 A 
ATOM     21  C   UNL     1       7.976  -2.132  24.325  0.00  0.00    +0.069 C 
ENDROOT
BRANCH   1  23
ATOM     22  C   UNL     1       7.535   1.203  24.914  0.00  0.00    +0.217 C 
ATOM     23  N   UNL     1       7.209   0.194  23.957  0.00  0.00    -0.303 N 
ATOM     24  H   UNL     1       7.721   0.220  23.088  0.00  0.00    +0.149 HD
ATOM     25  O   UNL     1       6.914   1.234  25.980  0.00  0.00    -0.275 OA
BRANCH  22  26
ATOM     26  C   UNL     1       8.895   2.160  24.784  0.00  0.00    +0.086 C 
BRANCH  26  27
ATOM     27  C   UNL     1      10.085   1.731  23.877  0.00  0.00    +0.133 C 
BRANCH  27  28
ATOM     28  C   UNL     1       9.974   1.282  22.388  0.00  0.00    +0.305 C 
ATOM     29  O   UNL     1       9.649   0.132  22.112  0.00  0.00    -0.251 OA
BRANCH  28  30
ATOM     30  O   UNL     1      10.186   2.204  21.449  0.00  0.00    -0.481 OA
ATOM     31  H   UNL     1      10.461   3.089  21.739  0.00  0.00    +0.295 HD
ENDBRANCH  28  30
ENDBRANCH  27  28
ENDBRANCH  26  27
BRANCH  26  32
ATOM     32  C   UNL     1       8.793   3.760  24.706  0.00  0.00    +0.016 C 
BRANCH  32  33
ATOM     33  C   UNL     1       8.679   4.547  23.376  0.00  0.00    -0.016 C 
ATOM     34  C   UNL     1       8.769   6.077  23.619  0.00  0.00    +0.007 C 
ATOM     35  C   UNL     1       7.378   4.281  22.626  0.00  0.00    +0.007 C 
ENDBRANCH  32  33
ENDBRANCH  26  32
ENDBRANCH  22  26
ENDBRANCH   1  23
TORSDOF 7
ENDMDL
MODEL 3
REMARK VINA RESULT:      -7.9      2.056      2.687
REMARK  Name = 
REMARK  9 active torsions:
REMARK  status: ('A' for Active; 'I' for Inactive)
REMARK    1  A    between atoms: C_2  and  C_3
REMARK    2  A    between atoms: C_2  and  C_7
REMARK    3  A    between atoms: C_2  and  C_11
REMARK    4  A    between atoms: C_3  and  C_4
REMARK    5  A    between atoms: C_4  and  C_5
REMARK    6  A    between atoms: C_4  and  C_6
REMARK    7  A    between atoms: C_7  and  C_8
REMARK    8  A    between atoms: C_8  and  O_9
REMARK    9  A    between atoms: N_13  and  C_14
REMARK                            x       y       z     vdW  Elec       q    Type
REMARK                         _______ _______ _______ _____ _____    ______ ____
ROOT
ATOM      1  C   UNL     1       8.823  -0.740  24.735  0.00  0.00    +0.163 C 
ATOM      2  C   UNL     1       7.763  -0.893  26.198  0.00  0.00    +0.234 C 
ATOM      3  O   UNL     1       7.699   0.089  26.958  0.00  0.00    -0.274 OA
ATOM      4  N   UNL     1       6.976  -2.038  26.644  0.00  0.00    -0.314 N 
ATOM      5  H   UNL     1       7.332  -2.079  27.590  0.00  0.00    +0.149 HD
ATOM      6  C   UNL     1       5.408  -2.168  27.078  0.00  0.00    +0.104 C 
ATOM      7  C   UNL     1       4.865  -3.145  28.318  0.00  0.00    +0.019 C 
ATOM      8  C   UNL     1       4.650  -4.705  28.322  0.00  0.00    +0.002 C 
ATOM      9  C   UNL     1       5.959  -5.482  28.306  0.00  0.00    +0.002 C 
ATOM     10  C   UNL     1       6.368  -5.515  26.860  0.00  0.00    +0.022 C 
ATOM     11  C   UNL     1       7.748  -5.026  26.625  0.00  0.00    +0.122 C 
ATOM     12  N   UNL     1       7.986  -4.645  25.243  0.00  0.00    -0.346 N 
ATOM     13  C   UNL     1       7.124  -4.281  24.196  0.00  0.00    +0.049 A 
ATOM     14  C   UNL     1       5.733  -4.351  23.957  0.00  0.00    +0.026 A 
ATOM     15  C   UNL     1       5.224  -3.868  22.743  0.00  0.00    +0.002 A 
ATOM     16  C   UNL     1       6.066  -3.387  21.754  0.00  0.00    +0.001 A 
ATOM     17  C   UNL     1       7.420  -3.223  22.028  0.00  0.00    +0.010 A 
ATOM     18  C   UNL     1       7.928  -3.610  23.287  0.00  0.00    +0.003 A 
ATOM     19  C   UNL     1       9.020  -3.200  24.074  0.00  0.00    -0.020 A 
ATOM     20  C   UNL     1       9.258  -4.191  24.981  0.00  0.00    +0.090 A 
ATOM     21  C   UNL     1       9.668  -1.897  24.115  0.00  0.00    +0.069 C 
ENDROOT
BRANCH   1  23
ATOM     22  C   UNL     1       9.762   1.403  23.242  0.00  0.00    +0.217 C 
ATOM     23  N   UNL     1       9.829   0.559  24.392  0.00  0.00    -0.303 N 
ATOM     24  H   UNL     1      10.198   0.977  25.232  0.00  0.00    +0.149 HD
ATOM     25  O   UNL     1       9.348   0.929  22.180  0.00  0.00    -0.275 OA
BRANCH  22  26
ATOM     26  C   UNL     1       9.945   3.058  23.329  0.00  0.00    +0.086 C 
BRANCH  26  27
ATOM     27  C   UNL     1       8.890   3.938  24.061  0.00  0.00    +0.133 C 
BRANCH  27  28
ATOM     28  C   UNL     1       7.755   3.407  24.990  0.00  0.00    +0.305 C 
ATOM     29  O   UNL     1       6.581   3.647  24.728  0.00  0.00    -0.251 OA
BRANCH  28  30
ATOM     30  O   UNL     1       8.110   2.646  26.025  0.00  0.00    -0.481 OA
ATOM     31  H   UNL     1       8.107   3.053  26.906  0.00  0.00    +0.295 HD
ENDBRANCH  28  30
ENDBRANCH  27  28
ENDBRANCH  26  27
BRANCH  26  32
ATOM     32  C   UNL     1      11.380   3.733  23.580  0.00  0.00    +0.016 C 
BRANCH  32  33
ATOM     33  C   UNL     1      11.713   5.200  23.210  0.00  0.00    -0.016 C 
ATOM     34  C   UNL     1      13.113   5.310  22.550  0.00  0.00    +0.007 C 
ATOM     35  C   UNL     1      11.700   6.143  24.409  0.00  0.00    +0.007 C 
ENDBRANCH  32  33
ENDBRANCH  26  32
ENDBRANCH  22  26
ENDBRANCH   1  23
TORSDOF 7
ENDMDL
MODEL 4
REMARK VINA RESULT:      -7.8      2.106      2.796
REMARK  Name = 
REMARK  9 active torsions:
REMARK  status: ('A' for Active; 'I' for Inactive)
REMARK    1  A    between atoms: C_2  and  C_3
REMARK    2  A    between atoms: C_2  and  C_7
REMARK    3  A    between atoms: C_2  and  C_11
REMARK    4  A    between atoms: C_3  and  C_4
REMARK    5  A    between atoms: C_4  and  C_5
REMARK    6  A    between atoms: C_4  and  C_6
REMARK    7  A    between atoms: C_7  and  C_8
REMARK    8  A    between atoms: C_8  and  O_9
REMARK    9  A    between atoms: N_13  and  C_14
REMARK                            x       y       z     vdW  Elec       q    Type
REMARK                         _______ _______ _______ _____ _____    ______ ____
ROOT
ATOM      1  C   UNL     1       8.969  -0.758  25.196  0.00  0.00    +0.163 C 
ATOM      2  C   UNL     1       7.828  -1.022  26.580  0.00  0.00    +0.234 C 
ATOM      3  O   UNL     1       7.759  -0.124  27.438  0.00  0.00    -0.274 OA
ATOM      4  N   UNL     1       6.978  -2.173  26.861  0.00  0.00    -0.314 N 
ATOM      5  H   UNL     1       7.281  -2.329  27.814  0.00  0.00    +0.149 HD
ATOM      6  C   UNL     1       5.385  -2.283  27.201  0.00  0.00    +0.104 C 
ATOM      7  C   UNL     1       4.742  -3.362  28.301  0.00  0.00    +0.019 C 
ATOM      8  C   UNL     1       4.471  -4.905  28.125  0.00  0.00    +0.002 C 
ATOM      9  C   UNL     1       5.751  -5.729  28.090  0.00  0.00    +0.002 C 
ATOM     10  C   UNL     1       6.235  -5.626  26.672  0.00  0.00    +0.022 C 
ATOM     11  C   UNL     1       7.642  -5.172  26.558  0.00  0.00    +0.122 C 
ATOM     12  N   UNL     1       7.967  -4.658  25.239  0.00  0.00    -0.346 N 
ATOM     13  C   UNL     1       7.175  -4.150  24.196  0.00  0.00    +0.049 A 
ATOM     14  C   UNL     1       5.797  -4.137  23.883  0.00  0.00    +0.026 A 
ATOM     15  C   UNL     1       5.371  -3.507  22.705  0.00  0.00    +0.002 A 
ATOM     16  C   UNL     1       6.281  -2.959  21.815  0.00  0.00    +0.001 A 
ATOM     17  C   UNL     1       7.624  -2.882  22.172  0.00  0.00    +0.010 A 
ATOM     18  C   UNL     1       8.050  -3.420  23.405  0.00  0.00    +0.003 A 
ATOM     19  C   UNL     1       9.112  -3.141  24.284  0.00  0.00    -0.020 A 
ATOM     20  C   UNL     1       9.266  -4.231  25.090  0.00  0.00    +0.090 A 
ATOM     21  C   UNL     1       9.803  -1.878  24.497  0.00  0.00    +0.069 C 
ENDROOT
BRANCH   1  23
ATOM     22  C   UNL     1      10.181   1.380  23.909  0.00  0.00    +0.217 C 
ATOM     23  N   UNL     1      10.038   0.526  25.044  0.00  0.00    -0.303 N 
ATOM     24  H   UNL     1      10.263   0.932  25.940  0.00  0.00    +0.149 HD
ATOM     25  O   UNL     1       9.949   0.922  22.787  0.00  0.00    -0.275 OA
BRANCH  22  26
ATOM     26  C   UNL     1      10.372   3.032  24.044  0.00  0.00    +0.086 C 
BRANCH  26  27
ATOM     27  C   UNL     1      11.344   3.800  23.101  0.00  0.00    +0.133 C 
BRANCH  27  28
ATOM     28  C   UNL     1      12.248   5.001  23.514  0.00  0.00    +0.305 C 
ATOM     29  O   UNL     1      11.746   6.026  23.963  0.00  0.00    -0.251 OA
BRANCH  28  30
ATOM     30  O   UNL     1      13.568   4.842  23.415  0.00  0.00    -0.481 OA
ATOM     31  H   UNL     1      13.897   3.975  23.127  0.00  0.00    +0.295 HD
ENDBRANCH  28  30
ENDBRANCH  27  28
ENDBRANCH  26  27
BRANCH  26  32
ATOM     32  C   UNL     1       9.125   4.002  24.330  0.00  0.00    +0.016 C 
BRANCH  32  33
ATOM     33  C   UNL     1       7.698   3.746  23.783  0.00  0.00    -0.016 C 
ATOM     34  C   UNL     1       7.016   2.564  24.524  0.00  0.00    +0.007 C 
ATOM     35  C   UNL     1       7.672   3.424  22.292  0.00  0.00    +0.007 C 
ENDBRANCH  32  33
ENDBRANCH  26  32
ENDBRANCH  22  26
ENDBRANCH   1  23
TORSDOF 7
ENDMDL
MODEL 5
REMARK VINA RESULT:      -7.5      2.004      2.739
REMARK  Name = 
REMARK  9 active torsions:
REMARK  status: ('A' for Active; 'I' for Inactive)
REMARK    1  A    between atoms: C_2  and  C_3
REMARK    2  A    between atoms: C_2  and  C_7
REMARK    3  A    between atoms: C_2  and  C_11
REMARK    4  A    between atoms: C_3  and  C_4
REMARK    5  A    between atoms: C_4  and  C_5
REMARK    6  A    between atoms: C_4  and  C_6
REMARK    7  A    between atoms: C_7  and  C_8
REMARK    8  A    between atoms: C_8  and  O_9
REMARK    9  A    between atoms: N_13  and  C_14
REMARK                            x       y       z     vdW  Elec       q    Type
REMARK                         _______ _______ _______ _____ _____    ______ ____
ROOT
ATOM      1  C   UNL     1       6.991  -1.793  24.485  0.00  0.00    +0.163 C 
ATOM      2  C   UNL     1       5.343  -1.897  25.235  0.00  0.00    +0.234 C 
ATOM      3  O   UNL     1       4.790  -0.826  25.541  0.00  0.00    -0.274 OA
ATOM      4  N   UNL     1       4.562  -3.082  25.569  0.00  0.00    -0.314 N 
ATOM      5  H   UNL     1       4.370  -2.843  26.534  0.00  0.00    +0.149 HD
ATOM      6  C   UNL     1       3.021  -3.494  25.220  0.00  0.00    +0.104 C 
ATOM      7  C   UNL     1       2.012  -4.300  26.278  0.00  0.00    +0.019 C 
ATOM      8  C   UNL     1       1.988  -5.833  26.642  0.00  0.00    +0.002 C 
ATOM      9  C   UNL     1       3.183  -6.259  27.485  0.00  0.00    +0.002 C 
ATOM     10  C   UNL     1       4.289  -6.485  26.494  0.00  0.00    +0.022 C 
ATOM     11  C   UNL     1       5.529  -5.736  26.812  0.00  0.00    +0.122 C 
ATOM     12  N   UNL     1       6.416  -5.598  25.669  0.00  0.00    -0.346 N 
ATOM     13  C   UNL     1       6.198  -5.673  24.283  0.00  0.00    +0.049 A 
ATOM     14  C   UNL     1       5.155  -6.122  23.444  0.00  0.00    +0.026 A 
ATOM     15  C   UNL     1       5.312  -6.033  22.053  0.00  0.00    +0.002 A 
ATOM     16  C   UNL     1       6.493  -5.574  21.493  0.00  0.00    +0.001 A 
ATOM     17  C   UNL     1       7.477  -5.037  22.317  0.00  0.00    +0.010 A 
ATOM     18  C   UNL     1       7.286  -5.026  23.715  0.00  0.00    +0.003 A 
ATOM     19  C   UNL     1       7.755  -4.215  24.764  0.00  0.00    -0.020 A 
ATOM     20  C   UNL     1       7.582  -4.914  25.923  0.00  0.00    +0.090 A 
ATOM     21  C   UNL     1       8.148  -2.814  24.719  0.00  0.00    +0.069 C 
ENDROOT
BRANCH   1  23
ATOM     22  C   UNL     1       7.408   0.865  23.807  0.00  0.00    +0.217 C 
ATOM     23  N   UNL     1       7.888  -0.388  24.294  0.00  0.00    -0.303 N 
ATOM     24  H   UNL     1       8.663  -0.350  24.939  0.00  0.00    +0.149 HD
ATOM     25  O   UNL     1       6.482   0.870  22.990  0.00  0.00    -0.275 OA
BRANCH  22  26
ATOM     26  C   UNL     1       7.840   2.323  24.493  0.00  0.00    +0.086 C 
BRANCH  26  27
ATOM     27  C   UNL     1       7.583   2.598  26.003  0.00  0.00    +0.133 C 
BRANCH  27  28
ATOM     28  C   UNL     1       6.680   1.739  26.940  0.00  0.00    +0.305 C 
ATOM     29  O   UNL     1       5.623   2.193  27.364  0.00  0.00    -0.251 OA
BRANCH  28  30
ATOM     30  O   UNL     1       7.073   0.493  27.203  0.00  0.00    -0.481 OA
ATOM     31  H   UNL     1       6.983   0.175  28.116  0.00  0.00    +0.295 HD
ENDBRANCH  28  30
ENDBRANCH  27  28
ENDBRANCH  26  27
BRANCH  26  32
ATOM     32  C   UNL     1       9.212   3.061  24.103  0.00  0.00    +0.016 C 
BRANCH  32  33
ATOM     33  C   UNL     1      10.434   2.331  23.493  0.00  0.00    -0.016 C 
ATOM     34  C   UNL     1      10.117   1.795  22.072  0.00  0.00    +0.007 C 
ATOM     35  C   UNL     1      10.910   1.147  24.330  0.00  0.00    +0.007 C 
ENDBRANCH  32  33
ENDBRANCH  26  32
ENDBRANCH  22  26
ENDBRANCH   1  23
TORSDOF 7
ENDMDL
MODEL 6
REMARK VINA RESULT:      -7.2      2.838      4.942
REMARK  Name = 
REMARK  9 active torsions:
REMARK  status: ('A' for Active; 'I' for Inactive)
REMARK    1  A    between atoms: C_2  and  C_3
REMARK    2  A    between atoms: C_2  and  C_7
REMARK    3  A    between atoms: C_2  and  C_11
REMARK    4  A    between atoms: C_3  and  C_4
REMARK    5  A    between atoms: C_4  and  C_5
REMARK    6  A    between atoms: C_4  and  C_6
REMARK    7  A    between atoms: C_7  and  C_8
REMARK    8  A    between atoms: C_8  and  O_9
REMARK    9  A    between atoms: N_13  and  C_14
REMARK                            x       y       z     vdW  Elec       q    Type
REMARK                         _______ _______ _______ _____ _____    ______ ____
ROOT
ATOM      1  C   UNL     1       6.957  -4.023  24.375  0.00  0.00    +0.163 C 
ATOM      2  C   UNL     1       5.724  -4.793  23.290  0.00  0.00    +0.234 C 
ATOM      3  O   UNL     1       6.060  -5.007  22.112  0.00  0.00    -0.274 OA
ATOM      4  N   UNL     1       4.351  -5.181  23.594  0.00  0.00    -0.314 N 
ATOM      5  H   UNL     1       3.907  -4.700  22.822  0.00  0.00    +0.149 HD
ATOM      6  C   UNL     1       3.549  -6.584  23.363  0.00  0.00    +0.104 C 
ATOM      7  C   UNL     1       1.945  -6.674  22.908  0.00  0.00    +0.019 C 
ATOM      8  C   UNL     1       0.657  -6.468  23.791  0.00  0.00    +0.002 C 
ATOM      9  C   UNL     1       0.443  -5.015  24.194  0.00  0.00    +0.002 C 
ATOM     10  C   UNL     1       1.328  -4.816  25.392  0.00  0.00    +0.022 C 
ATOM     11  C   UNL     1       2.247  -3.660  25.262  0.00  0.00    +0.122 C 
ATOM     12  N   UNL     1       3.371  -3.723  26.181  0.00  0.00    -0.346 N 
ATOM     13  C   UNL     1       3.974  -4.787  26.872  0.00  0.00    +0.049 A 
ATOM     14  C   UNL     1       3.639  -6.130  27.159  0.00  0.00    +0.026 A 
ATOM     15  C   UNL     1       4.530  -6.911  27.907  0.00  0.00    +0.002 A 
ATOM     16  C   UNL     1       5.697  -6.370  28.424  0.00  0.00    +0.001 A 
ATOM     17  C   UNL     1       6.075  -5.083  28.057  0.00  0.00    +0.010 A 
ATOM     18  C   UNL     1       5.234  -4.322  27.217  0.00  0.00    +0.003 A 
ATOM     19  C   UNL     1       5.448  -3.279  26.297  0.00  0.00    -0.020 A 
ATOM     20  C   UNL     1       4.245  -2.665  26.096  0.00  0.00    +0.090 A 
ATOM     21  C   UNL     1       6.638  -2.998  25.507  0.00  0.00    +0.069 C 
ENDROOT
BRANCH   1  23
ATOM     22  C   UNL     1       8.710  -2.476  22.881  0.00  0.00    +0.217 C 
ATOM     23  N   UNL     1       8.459  -3.453  23.892  0.00  0.00    -0.303 N 
ATOM     24  H   UNL     1       9.137  -3.511  24.636  0.00  0.00    +0.149 HD
ATOM     25  O   UNL     1       7.927  -2.387  21.931  0.00  0.00    -0.275 OA
BRANCH  22  26
ATOM     26  C   UNL     1       9.844  -1.265  23.063  0.00  0.00    +0.086 C 
BRANCH  26  27
ATOM     27  C   UNL     1      10.126  -0.262  21.906  0.00  0.00    +0.133 C 
BRANCH  27  28
ATOM     28  C   UNL     1       9.438   1.126  21.721  0.00  0.00    +0.305 C 
ATOM     29  O   UNL     1       8.216   1.217  21.749  0.00  0.00    -0.251 OA
BRANCH  28  30
ATOM     30  O   UNL     1      10.227   2.193  21.594  0.00  0.00    -0.481 OA
ATOM     31  H   UNL     1      10.567   2.600  22.407  0.00  0.00    +0.295 HD
ENDBRANCH  28  30
ENDBRANCH  27  28
ENDBRANCH  26  27
BRANCH  26  32
ATOM     32  C   UNL     1       9.996  -0.455  24.440  0.00  0.00    +0.016 C 
BRANCH  32  33
ATOM     33  C   UNL     1       8.805  -0.117  25.371  0.00  0.00    -0.016 C 
ATOM     34  C   UNL     1       8.484   1.401  25.346  0.00  0.00    +0.007 C 
ATOM     35  C   UNL     1       9.046  -0.507  26.826  0.00  0.00    +0.007 C 
ENDBRANCH  32  33
ENDBRANCH  26  32
ENDBRANCH  22  26
ENDBRANCH   1  23
TORSDOF 7
ENDMDL
MODEL 7
REMARK VINA RESULT:      -7.0      3.231      8.579
REMARK  Name = 
REMARK  9 active torsions:
REMARK  status: ('A' for Active; 'I' for Inactive)
REMARK    1  A    between atoms: C_2  and  C_3
REMARK    2  A    between atoms: C_2  and  C_7
REMARK    3  A    between atoms: C_2  and  C_11
REMARK    4  A    between atoms: C_3  and  C_4
REMARK    5  A    between atoms: C_4  and  C_5
REMARK    6  A    between atoms: C_4  and  C_6
REMARK    7  A    between atoms: C_7  and  C_8
REMARK    8  A    between atoms: C_8  and  O_9
REMARK    9  A    between atoms: N_13  and  C_14
REMARK                            x       y       z     vdW  Elec       q    Type
REMARK                         _______ _______ _______ _____ _____    ______ ____
ROOT
ATOM      1  C   UNL     1       5.831  -2.545  24.930  0.00  0.00    +0.163 C 
ATOM      2  C   UNL     1       6.536  -1.832  23.419  0.00  0.00    +0.234 C 
ATOM      3  O   UNL     1       6.245  -2.383  22.343  0.00  0.00    -0.274 OA
ATOM      4  N   UNL     1       7.442  -0.698  23.277  0.00  0.00    -0.314 N 
ATOM      5  H   UNL     1       8.144  -1.162  22.714  0.00  0.00    +0.149 HD
ATOM      6  C   UNL     1       7.366   0.633  22.335  0.00  0.00    +0.104 C 
ATOM      7  C   UNL     1       8.695   1.331  21.603  0.00  0.00    +0.019 C 
ATOM      8  C   UNL     1       9.802   2.252  22.241  0.00  0.00    +0.002 C 
ATOM      9  C   UNL     1      10.736   1.493  23.175  0.00  0.00    +0.002 C 
ATOM     10  C   UNL     1      10.000   1.426  24.483  0.00  0.00    +0.022 C 
ATOM     11  C   UNL     1       9.875   0.050  25.021  0.00  0.00    +0.122 C 
ATOM     12  N   UNL     1       8.822  -0.076  26.014  0.00  0.00    -0.346 N 
ATOM     13  C   UNL     1       7.677   0.691  26.287  0.00  0.00    +0.049 A 
ATOM     14  C   UNL     1       7.199   1.967  25.915  0.00  0.00    +0.026 A 
ATOM     15  C   UNL     1       5.963   2.405  26.411  0.00  0.00    +0.002 A 
ATOM     16  C   UNL     1       5.239   1.637  27.309  0.00  0.00    +0.001 A 
ATOM     17  C   UNL     1       5.659   0.342  27.595  0.00  0.00    +0.010 A 
ATOM     18  C   UNL     1       6.849  -0.149  27.017  0.00  0.00    +0.003 A 
ATOM     19  C   UNL     1       7.322  -1.430  26.680  0.00  0.00    -0.020 A 
ATOM     20  C   UNL     1       8.677  -1.337  26.544  0.00  0.00    +0.090 A 
ATOM     21  C   UNL     1       6.554  -2.611  26.312  0.00  0.00    +0.069 C 
ENDROOT
BRANCH   1  23
ATOM     22  C   UNL     1       5.407  -5.281  24.754  0.00  0.00    +0.217 C 
ATOM     23  N   UNL     1       4.933  -3.960  25.013  0.00  0.00    -0.303 N 
ATOM     24  H   UNL     1       4.169  -3.879  25.667  0.00  0.00    +0.149 HD
ATOM     25  O   UNL     1       6.319  -5.437  23.937  0.00  0.00    -0.275 OA
BRANCH  22  26
ATOM     26  C   UNL     1       4.988  -6.589  25.701  0.00  0.00    +0.086 C 
BRANCH  26  27
ATOM     27  C   UNL     1       5.150  -6.534  27.248  0.00  0.00    +0.133 C 
BRANCH  27  28
ATOM     28  C   UNL     1       6.402  -6.003  28.011  0.00  0.00    +0.305 C 
ATOM     29  O   UNL     1       6.306  -5.645  29.180  0.00  0.00    -0.251 OA
BRANCH  28  30
ATOM     30  O   UNL     1       7.568  -6.015  27.365  0.00  0.00    -0.481 OA
ATOM     31  H   UNL     1       7.642  -5.478  26.560  0.00  0.00    +0.295 HD
ENDBRANCH  28  30
ENDBRANCH  27  28
ENDBRANCH  26  27
BRANCH  26  32
ATOM     32  C   UNL     1       3.680  -7.467  25.392  0.00  0.00    +0.016 C 
BRANCH  32  33
ATOM     33  C   UNL     1       2.356  -6.869  24.855  0.00  0.00    -0.016 C 
ATOM     34  C   UNL     1       2.509  -6.394  23.385  0.00  0.00    +0.007 C 
ATOM     35  C   UNL     1       1.857  -5.678  25.667  0.00  0.00    +0.007 C 
ENDBRANCH  32  33
ENDBRANCH  26  32
ENDBRANCH  22  26
ENDBRANCH   1  23
TORSDOF 7
ENDMDL
MODEL 8
REMARK VINA RESULT:      -7.0      1.727      2.262
REMARK  Name = 
REMARK  9 active torsions:
REMARK  status: ('A' for Active; 'I' for Inactive)
REMARK    1  A    between atoms: C_2  and  C_3
REMARK    2  A    between atoms: C_2  and  C_7
REMARK    3  A    between atoms: C_2  and  C_11
REMARK    4  A    between atoms: C_3  and  C_4
REMARK    5  A    between atoms: C_4  and  C_5
REMARK    6  A    between atoms: C_4  and  C_6
REMARK    7  A    between atoms: C_7  and  C_8
REMARK    8  A    between atoms: C_8  and  O_9
REMARK    9  A    between atoms: N_13  and  C_14
REMARK                            x       y       z     vdW  Elec       q    Type
REMARK                         _______ _______ _______ _____ _____    ______ ____
ROOT
ATOM      1  C   UNL     1       8.273  -0.838  24.894  0.00  0.00    +0.163 C 
ATOM      2  C   UNL     1       7.221  -1.141  26.339  0.00  0.00    +0.234 C 
ATOM      3  O   UNL     1       6.997  -0.176  27.091  0.00  0.00    -0.274 OA
ATOM      4  N   UNL     1       6.606  -2.388  26.780  0.00  0.00    -0.314 N 
ATOM      5  H   UNL     1       6.946  -2.371  27.733  0.00  0.00    +0.149 HD
ATOM      6  C   UNL     1       5.067  -2.749  27.188  0.00  0.00    +0.104 C 
ATOM      7  C   UNL     1       4.653  -3.790  28.426  0.00  0.00    +0.019 C 
ATOM      8  C   UNL     1       4.674  -5.366  28.437  0.00  0.00    +0.002 C 
ATOM      9  C   UNL     1       6.085  -5.938  28.450  0.00  0.00    +0.002 C 
ATOM     10  C   UNL     1       6.521  -5.916  27.012  0.00  0.00    +0.022 C 
ATOM     11  C   UNL     1       7.816  -5.227  26.797  0.00  0.00    +0.122 C 
ATOM     12  N   UNL     1       8.020  -4.822  25.417  0.00  0.00    -0.346 N 
ATOM     13  C   UNL     1       7.132  -4.596  24.352  0.00  0.00    +0.049 A 
ATOM     14  C   UNL     1       5.772  -4.875  24.089  0.00  0.00    +0.026 A 
ATOM     15  C   UNL     1       5.219  -4.479  22.863  0.00  0.00    +0.002 A 
ATOM     16  C   UNL     1       5.998  -3.882  21.885  0.00  0.00    +0.001 A 
ATOM     17  C   UNL     1       7.307  -3.516  22.182  0.00  0.00    +0.010 A 
ATOM     18  C   UNL     1       7.843  -3.816  23.452  0.00  0.00    +0.003 A 
ATOM     19  C   UNL     1       8.847  -3.243  24.255  0.00  0.00    -0.020 A 
ATOM     20  C   UNL     1       9.214  -4.184  25.174  0.00  0.00    +0.090 A 
ATOM     21  C   UNL     1       9.292  -1.858  24.298  0.00  0.00    +0.069 C 
ENDROOT
BRANCH   1  23
ATOM     22  C   UNL     1       8.640   1.629  23.678  0.00  0.00    +0.217 C 
ATOM     23  N   UNL     1       9.079   0.595  24.559  0.00  0.00    -0.303 N 
ATOM     24  H   UNL     1       9.665   0.882  25.328  0.00  0.00    +0.149 HD
ATOM     25  O   UNL     1       7.946   1.326  22.703  0.00  0.00    -0.275 OA
BRANCH  22  26
ATOM     26  C   UNL     1       8.776   3.249  24.053  0.00  0.00    +0.086 C 
BRANCH  26  27
ATOM     27  C   UNL     1       8.630   4.336  22.948  0.00  0.00    +0.133 C 
BRANCH  27  28
ATOM     28  C   UNL     1       7.293   4.760  22.266  0.00  0.00    +0.305 C 
ATOM     29  O   UNL     1       7.056   5.945  22.056  0.00  0.00    -0.251 OA
BRANCH  28  30
ATOM     30  O   UNL     1       6.466   3.791  21.874  0.00  0.00    -0.481 OA
ATOM     31  H   UNL     1       6.850   2.919  21.688  0.00  0.00    +0.295 HD
ENDBRANCH  28  30
ENDBRANCH  27  28
ENDBRANCH  26  27
BRANCH  26  32
ATOM     32  C   UNL     1       8.150   3.856  25.401  0.00  0.00    +0.016 C 
BRANCH  32  33
ATOM     33  C   UNL     1       6.904   3.265  26.108  0.00  0.00    -0.016 C 
ATOM     34  C   UNL     1       5.600   3.940  25.606  0.00  0.00    +0.007 C 
ATOM     35  C   UNL     1       6.942   3.419  27.625  0.00  0.00    +0.007 C 
ENDBRANCH  32  33
ENDBRANCH  26  32
ENDBRANCH  22  26
ENDBRANCH   1  23
TORSDOF 7
ENDMDL
MODEL 9
REMARK VINA RESULT:      -7.0      2.746      8.347
REMARK  Name = 
REMARK  9 active torsions:
REMARK  status: ('A' for Active; 'I' for Inactive)
REMARK    1  A    between atoms: C_2  and  C_3
REMARK    2  A    between atoms: C_2  and  C_7
REMARK    3  A    between atoms: C_2  and  C_11
REMARK    4  A    between atoms: C_3  and  C_4
REMARK    5  A    between atoms: C_4  and  C_5
REMARK    6  A    between atoms: C_4  and  C_6
REMARK    7  A    between atoms: C_7  and  C_8
REMARK    8  A    between atoms: C_8  and  O_9
REMARK    9  A    between atoms: N_13  and  C_14
REMARK                            x       y       z     vdW  Elec       q    Type
REMARK                         _______ _______ _______ _____ _____    ______ ____
ROOT
ATOM      1  C   UNL     1       8.160  -0.294  25.380  0.00  0.00    +0.163 C 
ATOM      2  C   UNL     1       7.304   0.819  26.528  0.00  0.00    +0.234 C 
ATOM      3  O   UNL     1       7.030   0.369  27.655  0.00  0.00    -0.274 OA
ATOM      4  N   UNL     1       6.850   2.187  26.311  0.00  0.00    -0.314 N 
ATOM      5  H   UNL     1       5.892   2.055  26.608  0.00  0.00    +0.149 HD
ATOM      6  C   UNL     1       7.077   3.551  27.178  0.00  0.00    +0.104 C 
ATOM      7  C   UNL     1       5.912   4.730  27.381  0.00  0.00    +0.019 C 
ATOM      8  C   UNL     1       5.453   5.847  26.368  0.00  0.00    +0.002 C 
ATOM      9  C   UNL     1       4.662   5.290  25.193  0.00  0.00    +0.002 C 
ATOM     10  C   UNL     1       5.703   4.804  24.225  0.00  0.00    +0.022 C 
ATOM     11  C   UNL     1       5.510   3.394  23.807  0.00  0.00    +0.122 C 
ATOM     12  N   UNL     1       6.711   2.799  23.247  0.00  0.00    -0.346 N 
ATOM     13  C   UNL     1       8.074   3.120  23.365  0.00  0.00    +0.049 A 
ATOM     14  C   UNL     1       8.818   4.223  23.841  0.00  0.00    +0.026 A 
ATOM     15  C   UNL     1      10.219   4.173  23.792  0.00  0.00    +0.002 A 
ATOM     16  C   UNL     1      10.878   3.093  23.227  0.00  0.00    +0.001 A 
ATOM     17  C   UNL     1      10.151   1.967  22.853  0.00  0.00    +0.010 A 
ATOM     18  C   UNL     1       8.747   1.965  22.995  0.00  0.00    +0.003 A 
ATOM     19  C   UNL     1       7.781   0.961  23.187  0.00  0.00    -0.020 A 
ATOM     20  C   UNL     1       6.572   1.493  22.840  0.00  0.00    +0.090 A 
ATOM     21  C   UNL     1       7.935  -0.333  23.836  0.00  0.00    +0.069 C 
ENDROOT
BRANCH   1  23
ATOM     22  C   UNL     1       7.564  -2.906  26.100  0.00  0.00    +0.217 C 
ATOM     23  N   UNL     1       8.492  -1.915  25.658  0.00  0.00    -0.303 N 
ATOM     24  H   UNL     1       9.259  -2.241  25.091  0.00  0.00    +0.149 HD
ATOM     25  O   UNL     1       6.625  -2.563  26.824  0.00  0.00    -0.275 OA
BRANCH  22  26
ATOM     26  C   UNL     1       7.522  -4.447  25.461  0.00  0.00    +0.086 C 
BRANCH  26  27
ATOM     27  C   UNL     1       6.423  -5.458  25.898  0.00  0.00    +0.133 C 
BRANCH  27  28
ATOM     28  C   UNL     1       6.168  -5.947  27.357  0.00  0.00    +0.305 C 
ATOM     29  O   UNL     1       5.540  -6.981  27.561  0.00  0.00    -0.251 OA
BRANCH  28  30
ATOM     30  O   UNL     1       6.705  -5.235  28.348  0.00  0.00    -0.481 OA
ATOM     31  H   UNL     1       6.542  -5.534  29.257  0.00  0.00    +0.295 HD
ENDBRANCH  28  30
ENDBRANCH  27  28
ENDBRANCH  26  27
BRANCH  26  32
ATOM     32  C   UNL     1       7.831  -4.723  23.910  0.00  0.00    +0.016 C 
BRANCH  32  33
ATOM     33  C   UNL     1       6.736  -4.774  22.816  0.00  0.00    -0.016 C 
ATOM     34  C   UNL     1       7.139  -5.731  21.662  0.00  0.00    +0.007 C 
ATOM     35  C   UNL     1       6.439  -3.413  22.195  0.00  0.00    +0.007 C 
ENDBRANCH  32  33
ENDBRANCH  26  32
ENDBRANCH  22  26
ENDBRANCH   1  23
TORSDOF 7
ENDMDL
