MODEL 1
REMARK VINA RESULT:      -6.3      0.000      0.000
REMARK  Name = 
REMARK  7 active torsions:
REMARK  status: ('A' for Active; 'I' for Inactive)
REMARK    1  A    between atoms: C_1  and  C_2
REMARK    2  A    between atoms: C_2  and  O_3
REMARK    3  A    between atoms: O_3  and  C_4
REMARK    4  A    between atoms: C_7  and  C_10
REMARK    5  A    between atoms: C_11  and  C_12
REMARK    6  A    between atoms: C_19  and  N_20
REMARK    7  A    between atoms: C_21  and  C_23
REMARK                            x       y       z     vdW  Elec       q    Type
REMARK                         _______ _______ _______ _____ _____    ______ ____
ROOT
ATOM      1  C   UNL     1       8.150   2.495  24.055  0.00  0.00    +0.014 A 
ATOM      2  C   UNL     1       9.085   3.595  23.889  0.00  0.00    +0.038 A 
ATOM      3  C   UNL     1      10.529   3.775  23.690  0.00  0.00    +0.054 A 
ATOM      4  C   UNL     1      10.946   5.104  23.694  0.00  0.00    +0.097 A 
ATOM      5  S   UNL     1       9.618   6.156  23.787  0.00  0.00    -0.062 S 
ATOM      6  C   UNL     1       8.522   4.876  23.908  0.00  0.00    +0.113 A 
ATOM      7  N   UNL     1       7.233   5.217  24.015  0.00  0.00    -0.224 NA
ATOM      8  C   UNL     1       6.383   4.219  24.186  0.00  0.00    +0.136 A 
ATOM      9  N   UNL     1       5.064   4.645  24.350  0.00  0.00    -0.342 N 
ATOM     10  H   UNL     1       5.047   5.654  24.203  0.00  0.00    +0.144 HD
ATOM     11  H   UNL     1       4.397   4.167  23.751  0.00  0.00    +0.144 HD
ATOM     12  C   UNL     1       6.776   2.884  24.258  0.00  0.00    +0.100 A 
ENDROOT
BRANCH   1  16
ATOM     13  C   UNL     1       9.397  -1.707  23.780  0.00  0.00    +0.121 A 
ATOM     14  C   UNL     1       9.382  -1.047  25.007  0.00  0.00    +0.046 A 
ATOM     15  C   UNL     1       8.912   0.282  25.119  0.00  0.00    +0.012 A 
ATOM     16  C   UNL     1       8.554   1.044  23.997  0.00  0.00    -0.016 A 
ATOM     17  C   UNL     1       8.573   0.336  22.775  0.00  0.00    +0.012 A 
ATOM     18  C   UNL     1       8.930  -1.018  22.672  0.00  0.00    +0.046 A 
BRANCH  13  19
ATOM     19  O   UNL     1       9.889  -2.986  23.772  0.00  0.00    -0.492 OA
BRANCH  19  21
ATOM     20  C   UNL     1       8.183  -4.668  24.087  0.00  0.00    +0.048 C 
ATOM     21  C   UNL     1       9.319  -3.890  24.726  0.00  0.00    +0.225 C 
ENDBRANCH  19  21
ENDBRANCH  13  19
ENDBRANCH   1  16
BRANCH   4  22
ATOM     22  C   UNL     1      12.292   5.653  23.595  0.00  0.00    +0.250 C 
ATOM     23  O   UNL     1      13.128   5.304  22.763  0.00  0.00    -0.270 OA
ATOM     24  N   UNL     1      12.629   6.628  24.506  0.00  0.00    -0.325 N 
ATOM     25  H   UNL     1      13.560   7.018  24.476  0.00  0.00    +0.145 HD
ATOM     26  H   UNL     1      11.980   6.941  25.214  0.00  0.00    +0.145 HD
ENDBRANCH   4  22
BRANCH   3  27
ATOM     27  N   UNL     1      11.438   2.782  23.536  0.00  0.00    -0.356 N 
ATOM     28  H   UNL     1      12.140   2.857  22.792  0.00  0.00    +0.142 HD
ATOM     29  H   UNL     1      11.199   1.812  23.725  0.00  0.00    +0.142 HD
ENDBRANCH   3  27
BRANCH  12  30
ATOM     30  C   UNL     1       5.732   1.945  24.541  0.00  0.00    +0.103 C 
ATOM     31  N   UNL     1       4.902   1.185  24.853  0.00  0.00    -0.191 NA
ENDBRANCH  12  30
TORSDOF 6
ENDMDL
MODEL 2
REMARK VINA RESULT:      -6.2      5.867      9.412
REMARK  Name = 
REMARK  7 active torsions:
REMARK  status: ('A' for Active; 'I' for Inactive)
REMARK    1  A    between atoms: C_1  and  C_2
REMARK    2  A    between atoms: C_2  and  O_3
REMARK    3  A    between atoms: O_3  and  C_4
REMARK    4  A    between atoms: C_7  and  C_10
REMARK    5  A    between atoms: C_11  and  C_12
REMARK    6  A    between atoms: C_19  and  N_20
REMARK    7  A    between atoms: C_21  and  C_23
REMARK                            x       y       z     vdW  Elec       q    Type
REMARK                         _______ _______ _______ _____ _____    ______ ____
ROOT
ATOM      1  C   UNL     1       6.276  -4.681  24.318  0.00  0.00    +0.014 A 
ATOM      2  C   UNL     1       5.980  -5.220  25.635  0.00  0.00    +0.038 A 
ATOM      3  C   UNL     1       6.493  -5.088  27.005  0.00  0.00    +0.054 A 
ATOM      4  C   UNL     1       5.891  -5.941  27.926  0.00  0.00    +0.097 A 
ATOM      5  S   UNL     1       4.615  -6.802  27.211  0.00  0.00    -0.062 S 
ATOM      6  C   UNL     1       4.913  -6.123  25.694  0.00  0.00    +0.113 A 
ATOM      7  N   UNL     1       4.104  -6.520  24.705  0.00  0.00    -0.224 NA
ATOM      8  C   UNL     1       4.384  -6.048  23.503  0.00  0.00    +0.136 A 
ATOM      9  N   UNL     1       3.542  -6.546  22.509  0.00  0.00    -0.342 N 
ATOM     10  H   UNL     1       2.823  -7.106  22.967  0.00  0.00    +0.144 HD
ATOM     11  H   UNL     1       3.136  -5.831  21.913  0.00  0.00    +0.144 HD
ATOM     12  C   UNL     1       5.452  -5.188  23.249  0.00  0.00    +0.100 A 
ENDROOT
BRANCH   1  16
ATOM     13  C   UNL     1       9.317  -1.585  23.646  0.00  0.00    +0.121 A 
ATOM     14  C   UNL     1       9.688  -2.896  23.939  0.00  0.00    +0.046 A 
ATOM     15  C   UNL     1       8.720  -3.916  24.084  0.00  0.00    +0.012 A 
ATOM     16  C   UNL     1       7.343  -3.647  24.063  0.00  0.00    -0.016 A 
ATOM     17  C   UNL     1       7.010  -2.310  23.752  0.00  0.00    +0.012 A 
ATOM     18  C   UNL     1       7.967  -1.315  23.494  0.00  0.00    +0.046 A 
BRANCH  13  19
ATOM     19  O   UNL     1      10.328  -0.665  23.545  0.00  0.00    -0.492 OA
BRANCH  19  21
ATOM     20  C   UNL     1      10.531   1.664  24.156  0.00  0.00    +0.048 C 
ATOM     21  C   UNL     1      10.483   0.230  24.653  0.00  0.00    +0.225 C 
ENDBRANCH  19  21
ENDBRANCH  13  19
ENDBRANCH   1  16
BRANCH   4  22
ATOM     22  C   UNL     1       6.186  -6.135  29.340  0.00  0.00    +0.250 C 
ATOM     23  O   UNL     1       6.009  -5.285  30.211  0.00  0.00    -0.270 OA
ATOM     24  N   UNL     1       6.695  -7.361  29.701  0.00  0.00    -0.325 N 
ATOM     25  H   UNL     1       6.926  -7.523  30.670  0.00  0.00    +0.145 HD
ATOM     26  H   UNL     1       6.866  -8.087  29.020  0.00  0.00    +0.145 HD
ENDBRANCH   4  22
BRANCH   3  27
ATOM     27  N   UNL     1       7.480  -4.249  27.405  0.00  0.00    -0.356 N 
ATOM     28  H   UNL     1       7.298  -3.589  28.168  0.00  0.00    +0.142 HD
ATOM     29  H   UNL     1       8.157  -3.876  26.744  0.00  0.00    +0.142 HD
ENDBRANCH   3  27
BRANCH  12  30
ATOM     30  C   UNL     1       5.662  -4.851  21.873  0.00  0.00    +0.103 C 
ATOM     31  N   UNL     1       5.867  -4.653  20.740  0.00  0.00    -0.191 NA
ENDBRANCH  12  30
TORSDOF 6
ENDMDL
MODEL 3
REMARK VINA RESULT:      -6.2      2.709      4.997
REMARK  Name = 
REMARK  7 active torsions:
REMARK  status: ('A' for Active; 'I' for Inactive)
REMARK    1  A    between atoms: C_1  and  C_2
REMARK    2  A    between atoms: C_2  and  O_3
REMARK    3  A    between atoms: O_3  and  C_4
REMARK    4  A    between atoms: C_7  and  C_10
REMARK    5  A    between atoms: C_11  and  C_12
REMARK    6  A    between atoms: C_19  and  N_20
REMARK    7  A    between atoms: C_21  and  C_23
REMARK                            x       y       z     vdW  Elec       q    Type
REMARK                         _______ _______ _______ _____ _____    ______ ____
ROOT
ATOM      1  C   UNL     1       8.663   3.598  23.289  0.00  0.00    +0.014 A 
ATOM      2  C   UNL     1       7.249   3.913  23.167  0.00  0.00    +0.038 A 
ATOM      3  C   UNL     1       5.997   3.203  22.877  0.00  0.00    +0.054 A 
ATOM      4  C   UNL     1       4.881   4.029  22.776  0.00  0.00    +0.097 A 
ATOM      5  S   UNL     1       5.276   5.632  23.167  0.00  0.00    -0.062 S 
ATOM      6  C   UNL     1       6.908   5.253  23.378  0.00  0.00    +0.113 A 
ATOM      7  N   UNL     1       7.707   6.271  23.720  0.00  0.00    -0.224 NA
ATOM      8  C   UNL     1       8.994   5.991  23.811  0.00  0.00    +0.136 A 
ATOM      9  N   UNL     1       9.778   7.105  24.112  0.00  0.00    -0.342 N 
ATOM     10  H   UNL     1       9.146   7.887  24.289  0.00  0.00    +0.144 HD
ATOM     11  H   UNL     1      10.422   6.963  24.884  0.00  0.00    +0.144 HD
ATOM     12  C   UNL     1       9.520   4.723  23.570  0.00  0.00    +0.100 A 
ENDROOT
BRANCH   1  16
ATOM     13  C   UNL     1      10.206  -0.505  23.020  0.00  0.00    +0.121 A 
ATOM     14  C   UNL     1       9.832   0.192  21.873  0.00  0.00    +0.046 A 
ATOM     15  C   UNL     1       9.404   1.538  21.940  0.00  0.00    +0.012 A 
ATOM     16  C   UNL     1       9.217   2.201  23.162  0.00  0.00    -0.016 A 
ATOM     17  C   UNL     1       9.618   1.465  24.298  0.00  0.00    +0.012 A 
ATOM     18  C   UNL     1      10.151   0.167  24.230  0.00  0.00    +0.046 A 
BRANCH  13  19
ATOM     19  O   UNL     1      10.587  -1.811  22.854  0.00  0.00    -0.492 OA
BRANCH  19  21
ATOM     20  C   UNL     1       8.527  -2.987  23.314  0.00  0.00    +0.048 C 
ATOM     21  C   UNL     1       9.971  -2.767  23.726  0.00  0.00    +0.225 C 
ENDBRANCH  19  21
ENDBRANCH  13  19
ENDBRANCH   1  16
BRANCH   4  22
ATOM     22  C   UNL     1       3.505   3.690  22.436  0.00  0.00    +0.250 C 
ATOM     23  O   UNL     1       2.815   2.879  23.051  0.00  0.00    -0.270 OA
ATOM     24  N   UNL     1       2.961   4.335  21.349  0.00  0.00    -0.325 N 
ATOM     25  H   UNL     1       2.015   4.112  21.077  0.00  0.00    +0.145 HD
ATOM     26  H   UNL     1       3.491   5.004  20.808  0.00  0.00    +0.145 HD
ENDBRANCH   4  22
BRANCH   3  27
ATOM     27  N   UNL     1       5.869   1.867  22.686  0.00  0.00    -0.356 N 
ATOM     28  H   UNL     1       5.518   1.283  23.453  0.00  0.00    +0.142 HD
ATOM     29  H   UNL     1       6.516   1.353  22.094  0.00  0.00    +0.142 HD
ENDBRANCH   3  27
BRANCH  12  30
ATOM     30  C   UNL     1      10.948   4.623  23.623  0.00  0.00    +0.103 C 
ATOM     31  N   UNL     1      12.116   4.600  23.606  0.00  0.00    -0.191 NA
ENDBRANCH  12  30
TORSDOF 6
ENDMDL
MODEL 4
REMARK VINA RESULT:      -6.0      5.030      7.214
REMARK  Name = 
REMARK  7 active torsions:
REMARK  status: ('A' for Active; 'I' for Inactive)
REMARK    1  A    between atoms: C_1  and  C_2
REMARK    2  A    between atoms: C_2  and  O_3
REMARK    3  A    between atoms: O_3  and  C_4
REMARK    4  A    between atoms: C_7  and  C_10
REMARK    5  A    between atoms: C_11  and  C_12
REMARK    6  A    between atoms: C_19  and  N_20
REMARK    7  A    between atoms: C_21  and  C_23
REMARK                            x       y       z     vdW  Elec       q    Type
REMARK                         _______ _______ _______ _____ _____    ______ ____
ROOT
ATOM      1  C   UNL     1       7.161  -3.036  25.147  0.00  0.00    +0.014 A 
ATOM      2  C   UNL     1       7.840  -2.081  24.286  0.00  0.00    +0.038 A 
ATOM      3  C   UNL     1       7.543  -0.796  23.640  0.00  0.00    +0.054 A 
ATOM      4  C   UNL     1       8.553  -0.331  22.801  0.00  0.00    +0.097 A 
ATOM      5  S   UNL     1       9.919  -1.334  22.882  0.00  0.00    -0.062 S 
ATOM      6  C   UNL     1       9.155  -2.409  23.938  0.00  0.00    +0.113 A 
ATOM      7  N   UNL     1       9.881  -3.463  24.328  0.00  0.00    -0.224 NA
ATOM      8  C   UNL     1       9.259  -4.342  25.093  0.00  0.00    +0.136 A 
ATOM      9  N   UNL     1      10.051  -5.445  25.416  0.00  0.00    -0.342 N 
ATOM     10  H   UNL     1      10.987  -5.268  25.051  0.00  0.00    +0.144 HD
ATOM     11  H   UNL     1      10.071  -5.666  26.407  0.00  0.00    +0.144 HD
ATOM     12  C   UNL     1       7.928  -4.210  25.484  0.00  0.00    +0.100 A 
ENDROOT
BRANCH   1  16
ATOM     13  C   UNL     1       3.072  -2.554  26.673  0.00  0.00    +0.121 A 
ATOM     14  C   UNL     1       4.160  -2.049  27.381  0.00  0.00    +0.046 A 
ATOM     15  C   UNL     1       5.474  -2.133  26.864  0.00  0.00    +0.012 A 
ATOM     16  C   UNL     1       5.767  -2.829  25.682  0.00  0.00    -0.016 A 
ATOM     17  C   UNL     1       4.636  -3.315  24.990  0.00  0.00    +0.012 A 
ATOM     18  C   UNL     1       3.318  -3.136  25.441  0.00  0.00    +0.046 A 
BRANCH  13  19
ATOM     19  O   UNL     1       1.842  -2.442  27.268  0.00  0.00    -0.492 OA
BRANCH  19  21
ATOM     20  C   UNL     1       0.989  -4.566  28.044  0.00  0.00    +0.048 C 
ATOM     21  C   UNL     1       0.902  -3.485  26.981  0.00  0.00    +0.225 C 
ENDBRANCH  19  21
ENDBRANCH  13  19
ENDBRANCH   1  16
BRANCH   4  22
ATOM     22  C   UNL     1       8.580   0.854  21.954  0.00  0.00    +0.250 C 
ATOM     23  O   UNL     1       7.581   1.452  21.559  0.00  0.00    -0.270 OA
ATOM     24  N   UNL     1       9.821   1.318  21.583  0.00  0.00    -0.325 N 
ATOM     25  H   UNL     1       9.876   2.128  20.983  0.00  0.00    +0.145 HD
ATOM     26  H   UNL     1      10.671   0.856  21.874  0.00  0.00    +0.145 HD
ENDBRANCH   4  22
BRANCH   3  27
ATOM     27  N   UNL     1       6.399  -0.083  23.781  0.00  0.00    -0.356 N 
ATOM     28  H   UNL     1       5.660  -0.177  23.076  0.00  0.00    +0.142 HD
ATOM     29  H   UNL     1       6.402   0.845  24.195  0.00  0.00    +0.142 HD
ENDBRANCH   3  27
BRANCH  12  30
ATOM     30  C   UNL     1       7.390  -5.305  26.235  0.00  0.00    +0.103 C 
ATOM     31  N   UNL     1       6.893  -6.144  26.877  0.00  0.00    -0.191 NA
ENDBRANCH  12  30
TORSDOF 6
ENDMDL
MODEL 5
REMARK VINA RESULT:      -6.0      5.132      7.867
REMARK  Name = 
REMARK  7 active torsions:
REMARK  status: ('A' for Active; 'I' for Inactive)
REMARK    1  A    between atoms: C_1  and  C_2
REMARK    2  A    between atoms: C_2  and  O_3
REMARK    3  A    between atoms: O_3  and  C_4
REMARK    4  A    between atoms: C_7  and  C_10
REMARK    5  A    between atoms: C_11  and  C_12
REMARK    6  A    between atoms: C_19  and  N_20
REMARK    7  A    between atoms: C_21  and  C_23
REMARK                            x       y       z     vdW  Elec       q    Type
REMARK                         _______ _______ _______ _____ _____    ______ ____
ROOT
ATOM      1  C   UNL     1       6.503  -4.547  24.759  0.00  0.00    +0.014 A 
ATOM      2  C   UNL     1       7.415  -3.520  24.282  0.00  0.00    +0.038 A 
ATOM      3  C   UNL     1       8.204  -2.418  24.847  0.00  0.00    +0.054 A 
ATOM      4  C   UNL     1       8.861  -1.639  23.898  0.00  0.00    +0.097 A 
ATOM      5  S   UNL     1       8.670  -2.289  22.342  0.00  0.00    -0.062 S 
ATOM      6  C   UNL     1       7.666  -3.525  22.905  0.00  0.00    +0.113 A 
ATOM      7  N   UNL     1       7.209  -4.377  21.980  0.00  0.00    -0.224 NA
ATOM      8  C   UNL     1       6.364  -5.298  22.408  0.00  0.00    +0.136 A 
ATOM      9  N   UNL     1       5.881  -6.116  21.385  0.00  0.00    -0.342 N 
ATOM     10  H   UNL     1       6.378  -5.865  20.530  0.00  0.00    +0.144 HD
ATOM     11  H   UNL     1       5.951  -7.109  21.581  0.00  0.00    +0.144 HD
ATOM     12  C   UNL     1       5.952  -5.400  23.735  0.00  0.00    +0.100 A 
ENDROOT
BRANCH   1  16
ATOM     13  C   UNL     1       5.381  -5.119  28.966  0.00  0.00    +0.121 A 
ATOM     14  C   UNL     1       6.417  -5.858  28.398  0.00  0.00    +0.046 A 
ATOM     15  C   UNL     1       6.836  -5.630  27.067  0.00  0.00    +0.012 A 
ATOM     16  C   UNL     1       6.161  -4.745  26.213  0.00  0.00    -0.016 A 
ATOM     17  C   UNL     1       5.126  -4.009  26.829  0.00  0.00    +0.012 A 
ATOM     18  C   UNL     1       4.777  -4.148  28.183  0.00  0.00    +0.046 A 
BRANCH  13  19
ATOM     19  O   UNL     1       5.035  -5.428  30.255  0.00  0.00    -0.492 OA
BRANCH  19  21
ATOM     20  C   UNL     1       3.317  -7.086  29.879  0.00  0.00    +0.048 C 
ATOM     21  C   UNL     1       3.654  -5.735  30.485  0.00  0.00    +0.225 C 
ENDBRANCH  19  21
ENDBRANCH  13  19
ENDBRANCH   1  16
BRANCH   4  22
ATOM     22  C   UNL     1       9.667  -0.439  24.082  0.00  0.00    +0.250 C 
ATOM     23  O   UNL     1       9.863   0.110  25.165  0.00  0.00    -0.270 OA
ATOM     24  N   UNL     1      10.238   0.100  22.951  0.00  0.00    -0.325 N 
ATOM     25  H   UNL     1      10.789   0.940  23.041  0.00  0.00    +0.145 HD
ATOM     26  H   UNL     1      10.098  -0.310  22.039  0.00  0.00    +0.145 HD
ENDBRANCH   4  22
BRANCH   3  27
ATOM     27  N   UNL     1       8.309  -2.112  26.163  0.00  0.00    -0.356 N 
ATOM     28  H   UNL     1       8.567  -2.848  26.830  0.00  0.00    +0.142 HD
ATOM     29  H   UNL     1       7.706  -1.415  26.594  0.00  0.00    +0.142 HD
ENDBRANCH   3  27
BRANCH  12  30
ATOM     30  C   UNL     1       4.960  -6.399  24.001  0.00  0.00    +0.103 C 
ATOM     31  N   UNL     1       4.198  -7.238  24.284  0.00  0.00    -0.191 NA
ENDBRANCH  12  30
TORSDOF 6
ENDMDL
MODEL 6
REMARK VINA RESULT:      -5.6      4.150      7.696
REMARK  Name = 
REMARK  7 active torsions:
REMARK  status: ('A' for Active; 'I' for Inactive)
REMARK    1  A    between atoms: C_1  and  C_2
REMARK    2  A    between atoms: C_2  and  O_3
REMARK    3  A    between atoms: O_3  and  C_4
REMARK    4  A    between atoms: C_7  and  C_10
REMARK    5  A    between atoms: C_11  and  C_12
REMARK    6  A    between atoms: C_19  and  N_20
REMARK    7  A    between atoms: C_21  and  C_23
REMARK                            x       y       z     vdW  Elec       q    Type
REMARK                         _______ _______ _______ _____ _____    ______ ____
ROOT
ATOM      1  C   UNL     1       7.093  -1.375  25.361  0.00  0.00    +0.014 A 
ATOM      2  C   UNL     1       6.764  -2.628  24.700  0.00  0.00    +0.038 A 
ATOM      3  C   UNL     1       7.200  -3.381  23.517  0.00  0.00    +0.054 A 
ATOM      4  C   UNL     1       6.457  -4.532  23.266  0.00  0.00    +0.097 A 
ATOM      5  S   UNL     1       5.333  -4.811  24.506  0.00  0.00    -0.062 S 
ATOM      6  C   UNL     1       5.763  -3.390  25.312  0.00  0.00    +0.113 A 
ATOM      7  N   UNL     1       5.099  -3.135  26.445  0.00  0.00    -0.224 NA
ATOM      8  C   UNL     1       5.381  -1.987  27.036  0.00  0.00    +0.136 A 
ATOM      9  N   UNL     1       4.615  -1.756  28.179  0.00  0.00    -0.342 N 
ATOM     10  H   UNL     1       4.061  -2.595  28.352  0.00  0.00    +0.144 HD
ATOM     11  H   UNL     1       5.157  -1.490  28.995  0.00  0.00    +0.144 HD
ATOM     12  C   UNL     1       6.306  -1.075  26.531  0.00  0.00    +0.100 A 
ENDROOT
BRANCH   1  16
ATOM     13  C   UNL     1      10.201   1.419  24.015  0.00  0.00    +0.121 A 
ATOM     14  C   UNL     1      10.516   0.358  24.861  0.00  0.00    +0.046 A 
ATOM     15  C   UNL     1       9.538  -0.591  25.241  0.00  0.00    +0.012 A 
ATOM     16  C   UNL     1       8.187  -0.450  24.892  0.00  0.00    -0.016 A 
ATOM     17  C   UNL     1       7.913   0.631  24.026  0.00  0.00    +0.012 A 
ATOM     18  C   UNL     1       8.899   1.512  23.552  0.00  0.00    +0.046 A 
BRANCH  13  19
ATOM     19  O   UNL     1      11.213   2.296  23.721  0.00  0.00    -0.492 OA
BRANCH  19  21
ATOM     20  C   UNL     1      12.046   4.536  23.360  0.00  0.00    +0.048 C 
ATOM     21  C   UNL     1      10.819   3.644  23.435  0.00  0.00    +0.225 C 
ENDBRANCH  19  21
ENDBRANCH  13  19
ENDBRANCH   1  16
BRANCH   4  22
ATOM     22  C   UNL     1       6.555  -5.475  22.159  0.00  0.00    +0.250 C 
ATOM     23  O   UNL     1       7.568  -5.655  21.485  0.00  0.00    -0.270 OA
ATOM     24  N   UNL     1       5.425  -6.203  21.867  0.00  0.00    -0.325 N 
ATOM     25  H   UNL     1       5.454  -6.854  21.096  0.00  0.00    +0.145 HD
ATOM     26  H   UNL     1       4.567  -6.085  22.387  0.00  0.00    +0.145 HD
ENDBRANCH   4  22
BRANCH   3  27
ATOM     27  N   UNL     1       8.211  -3.033  22.684  0.00  0.00    -0.356 N 
ATOM     28  H   UNL     1       8.655  -3.755  22.106  0.00  0.00    +0.142 HD
ATOM     29  H   UNL     1       8.868  -2.296  22.927  0.00  0.00    +0.142 HD
ENDBRANCH   3  27
BRANCH  12  30
ATOM     30  C   UNL     1       6.416   0.159  27.251  0.00  0.00    +0.103 C 
ATOM     31  N   UNL     1       6.537   1.121  27.902  0.00  0.00    -0.191 NA
ENDBRANCH  12  30
TORSDOF 6
ENDMDL
MODEL 7
REMARK VINA RESULT:      -5.5      4.275      7.895
REMARK  Name = 
REMARK  7 active torsions:
REMARK  status: ('A' for Active; 'I' for Inactive)
REMARK    1  A    between atoms: C_1  and  C_2
REMARK    2  A    between atoms: C_2  and  O_3
REMARK    3  A    between atoms: O_3  and  C_4
REMARK    4  A    between atoms: C_7  and  C_10
REMARK    5  A    between atoms: C_11  and  C_12
REMARK    6  A    between atoms: C_19  and  N_20
REMARK    7  A    between atoms: C_21  and  C_23
REMARK                            x       y       z     vdW  Elec       q    Type
REMARK                         _______ _______ _______ _____ _____    ______ ____
ROOT
ATOM      1  C   UNL     1       7.665  -0.318  24.231  0.00  0.00    +0.014 A 
ATOM      2  C   UNL     1       7.731  -1.683  24.726  0.00  0.00    +0.038 A 
ATOM      3  C   UNL     1       7.255  -2.444  25.889  0.00  0.00    +0.054 A 
ATOM      4  C   UNL     1       7.698  -3.763  25.930  0.00  0.00    +0.097 A 
ATOM      5  S   UNL     1       8.560  -4.158  24.522  0.00  0.00    -0.062 S 
ATOM      6  C   UNL     1       8.423  -2.588  23.914  0.00  0.00    +0.113 A 
ATOM      7  N   UNL     1       8.994  -2.370  22.723  0.00  0.00    -0.224 NA
ATOM      8  C   UNL     1       8.953  -1.125  22.281  0.00  0.00    +0.136 A 
ATOM      9  N   UNL     1       9.615  -0.953  21.065  0.00  0.00    -0.342 N 
ATOM     10  H   UNL     1       9.908  -1.875  20.742  0.00  0.00    +0.144 HD
ATOM     11  H   UNL     1       9.070  -0.465  20.362  0.00  0.00    +0.144 HD
ATOM     12  C   UNL     1       8.361  -0.081  22.991  0.00  0.00    +0.100 A 
ENDROOT
BRANCH   1  16
ATOM     13  C   UNL     1       5.569   2.968  26.255  0.00  0.00    +0.121 A 
ATOM     14  C   UNL     1       4.915   2.183  25.308  0.00  0.00    +0.046 A 
ATOM     15  C   UNL     1       5.557   1.076  24.704  0.00  0.00    +0.012 A 
ATOM     16  C   UNL     1       6.910   0.784  24.930  0.00  0.00    -0.016 A 
ATOM     17  C   UNL     1       7.532   1.596  25.904  0.00  0.00    +0.012 A 
ATOM     18  C   UNL     1       6.869   2.625  26.591  0.00  0.00    +0.046 A 
BRANCH  13  19
ATOM     19  O   UNL     1       4.870   4.030  26.767  0.00  0.00    -0.492 OA
BRANCH  19  21
ATOM     20  C   UNL     1       5.462   5.907  25.364  0.00  0.00    +0.048 C 
ATOM     21  C   UNL     1       4.356   4.968  25.813  0.00  0.00    +0.225 C 
ENDBRANCH  19  21
ENDBRANCH  13  19
ENDBRANCH   1  16
BRANCH   4  22
ATOM     22  C   UNL     1       7.487  -4.780  26.953  0.00  0.00    +0.250 C 
ATOM     23  O   UNL     1       6.699  -4.672  27.890  0.00  0.00    -0.270 OA
ATOM     24  N   UNL     1       8.233  -5.931  26.841  0.00  0.00    -0.325 N 
ATOM     25  H   UNL     1       8.123  -6.649  27.542  0.00  0.00    +0.145 HD
ATOM     26  H   UNL     1       8.899  -6.062  26.093  0.00  0.00    +0.145 HD
ENDBRANCH   4  22
BRANCH   3  27
ATOM     27  N   UNL     1       6.473  -1.961  26.885  0.00  0.00    -0.356 N 
ATOM     28  H   UNL     1       5.574  -1.527  26.651  0.00  0.00    +0.142 HD
ATOM     29  H   UNL     1       6.877  -1.549  27.723  0.00  0.00    +0.142 HD
ENDBRANCH   3  27
BRANCH  12  30
ATOM     30  C   UNL     1       8.493   1.219  22.405  0.00  0.00    +0.103 C 
ATOM     31  N   UNL     1       8.680   2.261  21.911  0.00  0.00    -0.191 NA
ENDBRANCH  12  30
TORSDOF 6
ENDMDL
MODEL 8
REMARK VINA RESULT:      -5.5      3.064      4.448
REMARK  Name = 
REMARK  7 active torsions:
REMARK  status: ('A' for Active; 'I' for Inactive)
REMARK    1  A    between atoms: C_1  and  C_2
REMARK    2  A    between atoms: C_2  and  O_3
REMARK    3  A    between atoms: O_3  and  C_4
REMARK    4  A    between atoms: C_7  and  C_10
REMARK    5  A    between atoms: C_11  and  C_12
REMARK    6  A    between atoms: C_19  and  N_20
REMARK    7  A    between atoms: C_21  and  C_23
REMARK                            x       y       z     vdW  Elec       q    Type
REMARK                         _______ _______ _______ _____ _____    ______ ____
ROOT
ATOM      1  C   UNL     1       8.383   0.832  24.483  0.00  0.00    +0.014 A 
ATOM      2  C   UNL     1       8.168   2.110  25.141  0.00  0.00    +0.038 A 
ATOM      3  C   UNL     1       7.555   2.607  26.380  0.00  0.00    +0.054 A 
ATOM      4  C   UNL     1       7.527   3.995  26.487  0.00  0.00    +0.097 A 
ATOM      5  S   UNL     1       8.354   4.721  25.195  0.00  0.00    -0.062 S 
ATOM      6  C   UNL     1       8.665   3.230  24.465  0.00  0.00    +0.113 A 
ATOM      7  N   UNL     1       9.348   3.272  23.315  0.00  0.00    -0.224 NA
ATOM      8  C   UNL     1       9.526   2.113  22.705  0.00  0.00    +0.136 A 
ATOM      9  N   UNL     1      10.193   2.233  21.485  0.00  0.00    -0.342 N 
ATOM     10  H   UNL     1      10.479   3.207  21.386  0.00  0.00    +0.144 HD
ATOM     11  H   UNL     1      10.978   1.599  21.377  0.00  0.00    +0.144 HD
ATOM     12  C   UNL     1       9.041   0.905  23.203  0.00  0.00    +0.100 A 
ENDROOT
BRANCH   1  16
ATOM     13  C   UNL     1       7.270  -2.988  26.342  0.00  0.00    +0.121 A 
ATOM     14  C   UNL     1       6.342  -2.260  25.600  0.00  0.00    +0.046 A 
ATOM     15  C   UNL     1       6.709  -1.067  24.935  0.00  0.00    +0.012 A 
ATOM     16  C   UNL     1       7.979  -0.490  25.084  0.00  0.00    -0.016 A 
ATOM     17  C   UNL     1       8.892  -1.264  25.834  0.00  0.00    +0.012 A 
ATOM     18  C   UNL     1       8.568  -2.507  26.403  0.00  0.00    +0.046 A 
BRANCH  13  19
ATOM     19  O   UNL     1       6.813  -4.120  26.965  0.00  0.00    -0.492 OA
BRANCH  19  21
ATOM     20  C   UNL     1       5.693  -6.016  25.969  0.00  0.00    +0.048 C 
ATOM     21  C   UNL     1       7.026  -5.355  26.270  0.00  0.00    +0.225 C 
ENDBRANCH  19  21
ENDBRANCH  13  19
ENDBRANCH   1  16
BRANCH   4  22
ATOM     22  C   UNL     1       6.944   4.832  27.528  0.00  0.00    +0.250 C 
ATOM     23  O   UNL     1       7.192   4.727  28.727  0.00  0.00    -0.270 OA
ATOM     24  N   UNL     1       6.057   5.800  27.116  0.00  0.00    -0.325 N 
ATOM     25  H   UNL     1       5.622   6.387  27.813  0.00  0.00    +0.145 HD
ATOM     26  H   UNL     1       5.814   5.920  26.143  0.00  0.00    +0.145 HD
ENDBRANCH   4  22
BRANCH   3  27
ATOM     27  N   UNL     1       7.021   1.842  27.362  0.00  0.00    -0.356 N 
ATOM     28  H   UNL     1       7.458   1.842  28.290  0.00  0.00    +0.142 HD
ATOM     29  H   UNL     1       6.584   0.947  27.157  0.00  0.00    +0.142 HD
ENDBRANCH   3  27
BRANCH  12  30
ATOM     30  C   UNL     1       9.246  -0.238  22.363  0.00  0.00    +0.103 C 
ATOM     31  N   UNL     1       9.390  -1.121  21.613  0.00  0.00    -0.191 NA
ENDBRANCH  12  30
TORSDOF 6
ENDMDL
MODEL 9
REMARK VINA RESULT:      -5.4      3.747      5.681
REMARK  Name = 
REMARK  7 active torsions:
REMARK  status: ('A' for Active; 'I' for Inactive)
REMARK    1  A    between atoms: C_1  and  C_2
REMARK    2  A    between atoms: C_2  and  O_3
REMARK    3  A    between atoms: O_3  and  C_4
REMARK    4  A    between atoms: C_7  and  C_10
REMARK    5  A    between atoms: C_11  and  C_12
REMARK    6  A    between atoms: C_19  and  N_20
REMARK    7  A    between atoms: C_21  and  C_23
REMARK                            x       y       z     vdW  Elec       q    Type
REMARK                         _______ _______ _______ _____ _____    ______ ____
ROOT
ATOM      1  C   UNL     1       7.673  -0.374  23.961  0.00  0.00    +0.014 A 
ATOM      2  C   UNL     1       6.727   0.673  24.311  0.00  0.00    +0.038 A 
ATOM      3  C   UNL     1       5.549   0.831  25.174  0.00  0.00    +0.054 A 
ATOM      4  C   UNL     1       4.920   2.068  25.062  0.00  0.00    +0.097 A 
ATOM      5  S   UNL     1       5.798   3.106  24.047  0.00  0.00    -0.062 S 
ATOM      6  C   UNL     1       6.939   1.911  23.694  0.00  0.00    +0.113 A 
ATOM      7  N   UNL     1       7.922   2.267  22.860  0.00  0.00    -0.224 NA
ATOM      8  C   UNL     1       8.771   1.312  22.524  0.00  0.00    +0.136 A 
ATOM      9  N   UNL     1       9.736   1.733  21.608  0.00  0.00    -0.342 N 
ATOM     10  H   UNL     1       9.615   2.737  21.474  0.00  0.00    +0.144 HD
ATOM     11  H   UNL     1      10.688   1.502  21.873  0.00  0.00    +0.144 HD
ATOM     12  C   UNL     1       8.673   0.003  22.992  0.00  0.00    +0.100 A 
ENDROOT
BRANCH   1  16
ATOM     13  C   UNL     1       7.599  -4.337  25.851  0.00  0.00    +0.121 A 
ATOM     14  C   UNL     1       6.845  -4.079  24.708  0.00  0.00    +0.046 A 
ATOM     15  C   UNL     1       6.918  -2.830  24.048  0.00  0.00    +0.012 A 
ATOM     16  C   UNL     1       7.650  -1.753  24.569  0.00  0.00    -0.016 A 
ATOM     17  C   UNL     1       8.408  -2.059  25.721  0.00  0.00    +0.012 A 
ATOM     18  C   UNL     1       8.429  -3.331  26.317  0.00  0.00    +0.046 A 
BRANCH  13  19
ATOM     19  O   UNL     1       7.444  -5.570  26.428  0.00  0.00    -0.492 OA
BRANCH  19  21
ATOM     20  C   UNL     1       5.918  -5.345  28.289  0.00  0.00    +0.048 C 
ATOM     21  C   UNL     1       6.125  -5.892  26.888  0.00  0.00    +0.225 C 
ENDBRANCH  19  21
ENDBRANCH  13  19
ENDBRANCH   1  16
BRANCH   4  22
ATOM     22  C   UNL     1       3.703   2.550  25.703  0.00  0.00    +0.250 C 
ATOM     23  O   UNL     1       2.682   1.881  25.850  0.00  0.00    -0.270 OA
ATOM     24  N   UNL     1       3.722   3.845  26.168  0.00  0.00    -0.325 N 
ATOM     25  H   UNL     1       2.890   4.215  26.602  0.00  0.00    +0.145 HD
ATOM     26  H   UNL     1       4.534   4.436  26.062  0.00  0.00    +0.145 HD
ENDBRANCH   4  22
BRANCH   3  27
ATOM     27  N   UNL     1       5.047  -0.110  26.010  0.00  0.00    -0.356 N 
ATOM     28  H   UNL     1       5.516  -1.020  26.079  0.00  0.00    +0.142 HD
ATOM     29  H   UNL     1       4.047  -0.195  26.172  0.00  0.00    +0.142 HD
ENDBRANCH   3  27
BRANCH  12  30
ATOM     30  C   UNL     1       9.623  -0.922  22.451  0.00  0.00    +0.103 C 
ATOM     31  N   UNL     1      10.447  -1.610  21.991  0.00  0.00    -0.191 NA
ENDBRANCH  12  30
TORSDOF 6
ENDMDL
