MODEL 1
REMARK VINA RESULT:      -7.3      0.000      0.000
REMARK  Name = 
REMARK  10 active torsions:
REMARK  status: ('A' for Active; 'I' for Inactive)
REMARK    1  A    between atoms: O_1  and  C_2
REMARK    2  A    between atoms: C_5  and  N_20
REMARK    3  A    between atoms: C_8  and  C_10
REMARK    4  A    between atoms: C_10  and  O_11
REMARK    5  A    between atoms: O_11  and  P_12
REMARK    6  A    between atoms: P_12  and  O_13
REMARK    7  A    between atoms: P_12  and  N_15
REMARK    8  A    between atoms: N_15  and  P_16
REMARK    9  A    between atoms: P_16  and  O_17
REMARK   10  A    between atoms: P_16  and  O_18
REMARK                            x       y       z     vdW  Elec       q    Type
REMARK                         _______ _______ _______ _____ _____    ______ ____
ROOT
ATOM      1  C   UNL     1       9.907  -1.180  22.848  0.00  0.00    +0.150 C 
ATOM      2  C   UNL     1       8.678  -0.331  23.177  0.00  0.00    +0.175 C 
ATOM      3  O   UNL     1       7.815  -1.126  24.018  0.00  0.00    -0.348 OA
ATOM      4  C   UNL     1       8.356  -2.462  24.111  0.00  0.00    +0.226 C 
ATOM      5  C   UNL     1       9.852  -2.276  23.885  0.00  0.00    +0.088 C 
ENDROOT
BRANCH   4   6
ATOM      6  N   UNL     1       7.685  -3.350  23.164  0.00  0.00    -0.274 N 
ATOM      7  C   UNL     1       7.961  -4.710  23.262  0.00  0.00    +0.331 A 
ATOM      8  O   UNL     1       8.748  -5.192  24.076  0.00  0.00    -0.246 OA
ATOM      9  N   UNL     1       7.304  -5.515  22.380  0.00  0.00    -0.275 N 
ATOM     10  H   UNL     1       7.490  -6.503  22.444  0.00  0.00    +0.173 HD
ATOM     11  C   UNL     1       6.289  -5.151  21.542  0.00  0.00    +0.254 A 
ATOM     12  O   UNL     1       5.651  -5.946  20.866  0.00  0.00    -0.268 OA
ATOM     13  C   UNL     1       5.986  -3.720  21.522  0.00  0.00    +0.088 A 
ATOM     14  C   UNL     1       6.684  -2.904  22.317  0.00  0.00    +0.098 A 
ENDBRANCH   4   6
BRANCH   1  15
ATOM     15  O   UNL     1       9.817  -1.745  21.540  0.00  0.00    -0.389 OA
ATOM     16  H   UNL     1      10.334  -1.197  20.924  0.00  0.00    +0.210 HD
ENDBRANCH   1  15
BRANCH   2  17
ATOM     17  C   UNL     1       9.026   0.956  23.913  0.00  0.00    +0.205 C 
BRANCH  17  18
ATOM     18  O   UNL     1      10.410   1.242  23.741  0.00  0.00    -0.293 OA
BRANCH  18  19
ATOM     19  P   UNL     1      10.726   2.925  23.498  0.00  0.00    +0.415 P 
ATOM     20  O   UNL     1       9.341   3.279  24.040  0.00  0.00    -0.240 OA
BRANCH  19  21
ATOM     21  N   UNL     1      11.050   4.658  23.248  0.00  0.00    -0.126 NA
ATOM     22  H   UNL     1      10.859   5.116  24.135  0.00  0.00    +0.146 HD
BRANCH  21  23
ATOM     23  P   UNL     1      12.807   4.925  23.155  0.00  0.00    +0.412 P 
ATOM     24  O   UNL     1      14.336   5.156  23.074  0.00  0.00    -0.240 OA
BRANCH  23  25
ATOM     25  O   UNL     1      12.447   6.282  24.003  0.00  0.00    -0.312 OA
ATOM     26  H   UNL     1      13.016   6.302  24.796  0.00  0.00    +0.221 HD
ENDBRANCH  23  25
BRANCH  23  27
ATOM     27  O   UNL     1      12.492   5.518  21.664  0.00  0.00    -0.312 OA
ATOM     28  H   UNL     1      11.688   5.076  21.336  0.00  0.00    +0.221 HD
ENDBRANCH  23  27
ENDBRANCH  21  23
ENDBRANCH  19  21
BRANCH  19  29
ATOM     29  O   UNL     1      10.505   2.636  21.911  0.00  0.00    -0.312 OA
ATOM     30  H   UNL     1       9.558   2.797  21.712  0.00  0.00    +0.221 HD
ENDBRANCH  19  29
ENDBRANCH  18  19
ENDBRANCH  17  18
ENDBRANCH   2  17
TORSDOF 10
ENDMDL
MODEL 2
REMARK VINA RESULT:      -7.2      2.990      4.111
REMARK  Name = 
REMARK  10 active torsions:
REMARK  status: ('A' for Active; 'I' for Inactive)
REMARK    1  A    between atoms: O_1  and  C_2
REMARK    2  A    between atoms: C_5  and  N_20
REMARK    3  A    between atoms: C_8  and  C_10
REMARK    4  A    between atoms: C_10  and  O_11
REMARK    5  A    between atoms: O_11  and  P_12
REMARK    6  A    between atoms: P_12  and  O_13
REMARK    7  A    between atoms: P_12  and  N_15
REMARK    8  A    between atoms: N_15  and  P_16
REMARK    9  A    between atoms: P_16  and  O_17
REMARK   10  A    between atoms: P_16  and  O_18
REMARK                            x       y       z     vdW  Elec       q    Type
REMARK                         _______ _______ _______ _____ _____    ______ ____
ROOT
ATOM      1  C   UNL     1       9.700  -4.722  25.195  0.00  0.00    +0.150 C 
ATOM      2  C   UNL     1       9.048  -3.669  24.298  0.00  0.00    +0.175 C 
ATOM      3  O   UNL     1       7.858  -3.203  24.970  0.00  0.00    -0.348 OA
ATOM      4  C   UNL     1       7.649  -4.003  26.155  0.00  0.00    +0.226 C 
ATOM      5  C   UNL     1       9.045  -4.481  26.534  0.00  0.00    +0.088 C 
ENDROOT
BRANCH   4   6
ATOM      6  N   UNL     1       6.675  -5.060  25.890  0.00  0.00    -0.274 N 
ATOM      7  C   UNL     1       6.232  -5.804  26.978  0.00  0.00    +0.331 A 
ATOM      8  O   UNL     1       6.630  -5.636  28.131  0.00  0.00    -0.246 OA
ATOM      9  N   UNL     1       5.308  -6.767  26.703  0.00  0.00    -0.275 N 
ATOM     10  H   UNL     1       4.974  -7.309  27.484  0.00  0.00    +0.173 HD
ATOM     11  C   UNL     1       4.654  -6.958  25.520  0.00  0.00    +0.254 A 
ATOM     12  O   UNL     1       3.741  -7.759  25.372  0.00  0.00    -0.268 OA
ATOM     13  C   UNL     1       5.105  -6.106  24.419  0.00  0.00    +0.088 A 
ATOM     14  C   UNL     1       6.075  -5.217  24.651  0.00  0.00    +0.098 A 
ENDBRANCH   4   6
BRANCH   1  15
ATOM     15  O   UNL     1       9.409  -6.045  24.744  0.00  0.00    -0.389 OA
ATOM     16  H   UNL     1      10.221  -6.440  24.380  0.00  0.00    +0.210 HD
ENDBRANCH   1  15
BRANCH   2  17
ATOM     17  C   UNL     1       9.955  -2.475  24.029  0.00  0.00    +0.205 C 
BRANCH  17  18
ATOM     18  O   UNL     1       9.745  -2.009  22.700  0.00  0.00    -0.293 OA
BRANCH  18  19
ATOM     19  P   UNL     1       9.174  -0.377  22.640  0.00  0.00    +0.415 P 
ATOM     20  O   UNL     1       7.727  -0.868  22.619  0.00  0.00    -0.240 OA
BRANCH  19  21
ATOM     21  N   UNL     1       8.587   1.302  22.577  0.00  0.00    -0.126 NA
ATOM     22  H   UNL     1       7.957   1.415  23.366  0.00  0.00    +0.146 HD
BRANCH  21  23
ATOM     23  P   UNL     1       9.889   2.406  23.082  0.00  0.00    +0.412 P 
ATOM     24  O   UNL     1      11.021   3.365  23.523  0.00  0.00    -0.240 OA
BRANCH  23  25
ATOM     25  O   UNL     1      10.283   2.352  21.491  0.00  0.00    -0.312 OA
ATOM     26  H   UNL     1      10.582   1.446  21.285  0.00  0.00    +0.221 HD
ENDBRANCH  23  25
BRANCH  23  27
ATOM     27  O   UNL     1      10.668   1.042  23.539  0.00  0.00    -0.312 OA
ATOM     28  H   UNL     1      11.600   1.276  23.699  0.00  0.00    +0.221 HD
ENDBRANCH  23  27
ENDBRANCH  21  23
ENDBRANCH  19  21
BRANCH  19  29
ATOM     29  O   UNL     1       9.649  -0.375  21.083  0.00  0.00    -0.312 OA
ATOM     30  H   UNL     1       9.202  -1.127  20.638  0.00  0.00    +0.221 HD
ENDBRANCH  19  29
ENDBRANCH  18  19
ENDBRANCH  17  18
ENDBRANCH   2  17
TORSDOF 10
ENDMDL
MODEL 3
REMARK VINA RESULT:      -7.1      3.972      8.637
REMARK  Name = 
REMARK  10 active torsions:
REMARK  status: ('A' for Active; 'I' for Inactive)
REMARK    1  A    between atoms: O_1  and  C_2
REMARK    2  A    between atoms: C_5  and  N_20
REMARK    3  A    between atoms: C_8  and  C_10
REMARK    4  A    between atoms: C_10  and  O_11
REMARK    5  A    between atoms: O_11  and  P_12
REMARK    6  A    between atoms: P_12  and  O_13
REMARK    7  A    between atoms: P_12  and  N_15
REMARK    8  A    between atoms: N_15  and  P_16
REMARK    9  A    between atoms: P_16  and  O_17
REMARK   10  A    between atoms: P_16  and  O_18
REMARK                            x       y       z     vdW  Elec       q    Type
REMARK                         _______ _______ _______ _____ _____    ______ ____
ROOT
ATOM      1  C   UNL     1       8.982  -2.281  22.481  0.00  0.00    +0.150 C 
ATOM      2  C   UNL     1       9.381  -2.514  23.940  0.00  0.00    +0.175 C 
ATOM      3  O   UNL     1       8.798  -1.451  24.724  0.00  0.00    -0.348 OA
ATOM      4  C   UNL     1       8.187  -0.494  23.830  0.00  0.00    +0.226 C 
ATOM      5  C   UNL     1       7.831  -1.311  22.594  0.00  0.00    +0.088 C 
ENDROOT
BRANCH   4   6
ATOM      6  N   UNL     1       9.089   0.632  23.597  0.00  0.00    -0.274 N 
ATOM      7  C   UNL     1       8.590   1.707  22.869  0.00  0.00    +0.331 A 
ATOM      8  O   UNL     1       7.454   1.746  22.396  0.00  0.00    -0.246 OA
ATOM      9  N   UNL     1       9.446   2.751  22.687  0.00  0.00    -0.275 N 
ATOM     10  H   UNL     1       9.096   3.539  22.166  0.00  0.00    +0.173 HD
ATOM     11  C   UNL     1      10.662   2.924  23.285  0.00  0.00    +0.254 A 
ATOM     12  O   UNL     1      11.329   3.944  23.181  0.00  0.00    -0.268 OA
ATOM     13  C   UNL     1      11.118   1.796  24.097  0.00  0.00    +0.088 A 
ATOM     14  C   UNL     1      10.327   0.726  24.212  0.00  0.00    +0.098 A 
ENDBRANCH   4   6
BRANCH   1  15
ATOM     15  O   UNL     1      10.046  -1.688  21.737  0.00  0.00    -0.389 OA
ATOM     16  H   UNL     1      10.008  -2.011  20.820  0.00  0.00    +0.210 HD
ENDBRANCH   1  15
BRANCH   2  17
ATOM     17  C   UNL     1       8.888  -3.848  24.485  0.00  0.00    +0.205 C 
BRANCH  17  18
ATOM     18  O   UNL     1       8.919  -3.820  25.907  0.00  0.00    -0.293 OA
BRANCH  18  19
ATOM     19  P   UNL     1       7.393  -4.212  26.622  0.00  0.00    +0.415 P 
ATOM     20  O   UNL     1       6.848  -4.642  25.261  0.00  0.00    -0.240 OA
BRANCH  19  21
ATOM     21  N   UNL     1       5.823  -4.615  27.358  0.00  0.00    -0.126 NA
ATOM     22  H   UNL     1       5.214  -4.899  26.596  0.00  0.00    +0.146 HD
BRANCH  21  23
ATOM     23  P   UNL     1       5.952  -6.166  28.222  0.00  0.00    +0.412 P 
ATOM     24  O   UNL     1       6.064  -7.515  28.973  0.00  0.00    -0.240 OA
BRANCH  23  25
ATOM     25  O   UNL     1       7.541  -6.019  27.841  0.00  0.00    -0.312 OA
ATOM     26  H   UNL     1       8.054  -6.061  28.670  0.00  0.00    +0.221 HD
ENDBRANCH  23  25
BRANCH  23  27
ATOM     27  O   UNL     1       5.457  -6.827  26.810  0.00  0.00    -0.312 OA
ATOM     28  H   UNL     1       5.704  -6.213  26.095  0.00  0.00    +0.221 HD
ENDBRANCH  23  27
ENDBRANCH  21  23
ENDBRANCH  19  21
BRANCH  19  29
ATOM     29  O   UNL     1       7.131  -2.607  26.703  0.00  0.00    -0.312 OA
ATOM     30  H   UNL     1       7.994  -2.178  26.889  0.00  0.00    +0.221 HD
ENDBRANCH  19  29
ENDBRANCH  18  19
ENDBRANCH  17  18
ENDBRANCH   2  17
TORSDOF 10
ENDMDL
MODEL 4
REMARK VINA RESULT:      -7.0      3.485      8.438
REMARK  Name = 
REMARK  10 active torsions:
REMARK  status: ('A' for Active; 'I' for Inactive)
REMARK    1  A    between atoms: O_1  and  C_2
REMARK    2  A    between atoms: C_5  and  N_20
REMARK    3  A    between atoms: C_8  and  C_10
REMARK    4  A    between atoms: C_10  and  O_11
REMARK    5  A    between atoms: O_11  and  P_12
REMARK    6  A    between atoms: P_12  and  O_13
REMARK    7  A    between atoms: P_12  and  N_15
REMARK    8  A    between atoms: N_15  and  P_16
REMARK    9  A    between atoms: P_16  and  O_17
REMARK   10  A    between atoms: P_16  and  O_18
REMARK                            x       y       z     vdW  Elec       q    Type
REMARK                         _______ _______ _______ _____ _____    ______ ____
ROOT
ATOM      1  C   UNL     1       8.713   0.248  22.085  0.00  0.00    +0.150 C 
ATOM      2  C   UNL     1       9.961  -0.342  22.745  0.00  0.00    +0.175 C 
ATOM      3  O   UNL     1      10.050   0.210  24.076  0.00  0.00    -0.348 OA
ATOM      4  C   UNL     1       9.025   1.215  24.233  0.00  0.00    +0.226 C 
ATOM      5  C   UNL     1       7.933   0.792  23.258  0.00  0.00    +0.088 C 
ENDROOT
BRANCH   4   6
ATOM      6  N   UNL     1       9.581   2.549  24.009  0.00  0.00    -0.274 N 
ATOM      7  C   UNL     1       8.829   3.634  24.447  0.00  0.00    +0.331 A 
ATOM      8  O   UNL     1       7.725   3.531  24.983  0.00  0.00    -0.246 OA
ATOM      9  N   UNL     1       9.383   4.862  24.245  0.00  0.00    -0.275 N 
ATOM     10  H   UNL     1       8.852   5.656  24.564  0.00  0.00    +0.173 HD
ATOM     11  C   UNL     1      10.656   5.125  23.823  0.00  0.00    +0.254 A 
ATOM     12  O   UNL     1      11.137   6.248  23.783  0.00  0.00    -0.268 OA
ATOM     13  C   UNL     1      11.434   3.948  23.437  0.00  0.00    +0.088 A 
ATOM     14  C   UNL     1      10.872   2.741  23.545  0.00  0.00    +0.098 A 
ENDBRANCH   4   6
BRANCH   1  15
ATOM     15  O   UNL     1       9.048   1.310  21.191  0.00  0.00    -0.389 OA
ATOM     16  H   UNL     1       9.978   1.560  21.333  0.00  0.00    +0.210 HD
ENDBRANCH   1  15
BRANCH   2  17
ATOM     17  C   UNL     1       9.914  -1.861  22.850  0.00  0.00    +0.205 C 
BRANCH  17  18
ATOM     18  O   UNL     1       9.852  -2.241  24.220  0.00  0.00    -0.293 OA
BRANCH  18  19
ATOM     19  P   UNL     1       8.712  -3.506  24.519  0.00  0.00    +0.415 P 
ATOM     20  O   UNL     1       9.843  -4.533  24.576  0.00  0.00    -0.240 OA
BRANCH  19  21
ATOM     21  N   UNL     1       7.539  -4.810  24.827  0.00  0.00    -0.126 NA
ATOM     22  H   UNL     1       8.053  -5.682  24.745  0.00  0.00    +0.146 HD
BRANCH  21  23
ATOM     23  P   UNL     1       7.151  -4.862  26.563  0.00  0.00    +0.412 P 
ATOM     24  O   UNL     1       6.813  -4.908  28.073  0.00  0.00    -0.240 OA
BRANCH  23  25
ATOM     25  O   UNL     1       8.055  -3.494  26.604  0.00  0.00    -0.312 OA
ATOM     26  H   UNL     1       8.272  -3.249  25.685  0.00  0.00    +0.221 HD
ENDBRANCH  23  25
BRANCH  23  27
ATOM     27  O   UNL     1       8.384  -5.933  26.658  0.00  0.00    -0.312 OA
ATOM     28  H   UNL     1       8.498  -6.167  27.596  0.00  0.00    +0.221 HD
ENDBRANCH  23  27
ENDBRANCH  21  23
ENDBRANCH  19  21
BRANCH  19  29
ATOM     29  O   UNL     1       8.318  -3.388  22.944  0.00  0.00    -0.312 OA
ATOM     30  H   UNL     1       8.486  -4.264  22.533  0.00  0.00    +0.221 HD
ENDBRANCH  19  29
ENDBRANCH  18  19
ENDBRANCH  17  18
ENDBRANCH   2  17
TORSDOF 10
ENDMDL
MODEL 5
REMARK VINA RESULT:      -7.0      3.699      8.349
REMARK  Name = 
REMARK  10 active torsions:
REMARK  status: ('A' for Active; 'I' for Inactive)
REMARK    1  A    between atoms: O_1  and  C_2
REMARK    2  A    between atoms: C_5  and  N_20
REMARK    3  A    between atoms: C_8  and  C_10
REMARK    4  A    between atoms: C_10  and  O_11
REMARK    5  A    between atoms: O_11  and  P_12
REMARK    6  A    between atoms: P_12  and  O_13
REMARK    7  A    between atoms: P_12  and  N_15
REMARK    8  A    between atoms: N_15  and  P_16
REMARK    9  A    between atoms: P_16  and  O_17
REMARK   10  A    between atoms: P_16  and  O_18
REMARK                            x       y       z     vdW  Elec       q    Type
REMARK                         _______ _______ _______ _____ _____    ______ ____
ROOT
ATOM      1  C   UNL     1       9.660  -0.224  24.520  0.00  0.00    +0.150 C 
ATOM      2  C   UNL     1       9.236  -0.865  23.198  0.00  0.00    +0.175 C 
ATOM      3  O   UNL     1       9.673   0.007  22.133  0.00  0.00    -0.348 OA
ATOM      4  C   UNL     1      10.209   1.217  22.713  0.00  0.00    +0.226 C 
ATOM      5  C   UNL     1      10.695   0.788  24.092  0.00  0.00    +0.088 C 
ENDROOT
BRANCH   4   6
ATOM      6  N   UNL     1       9.199   2.275  22.706  0.00  0.00    -0.274 N 
ATOM      7  C   UNL     1       9.587   3.527  23.169  0.00  0.00    +0.331 A 
ATOM      8  O   UNL     1      10.712   3.780  23.602  0.00  0.00    -0.246 OA
ATOM      9  N   UNL     1       8.632   4.498  23.129  0.00  0.00    -0.275 N 
ATOM     10  H   UNL     1       8.901   5.412  23.457  0.00  0.00    +0.173 HD
ATOM     11  C   UNL     1       7.407   4.415  22.530  0.00  0.00    +0.254 A 
ATOM     12  O   UNL     1       6.643   5.363  22.416  0.00  0.00    -0.268 OA
ATOM     13  C   UNL     1       7.068   3.096  21.995  0.00  0.00    +0.088 A 
ATOM     14  C   UNL     1       7.962   2.109  22.107  0.00  0.00    +0.098 A 
ENDBRANCH   4   6
BRANCH   1  15
ATOM     15  O   UNL     1       8.565   0.439  25.153  0.00  0.00    -0.389 OA
ATOM     16  H   UNL     1       8.885   0.874  25.962  0.00  0.00    +0.210 HD
ENDBRANCH   1  15
BRANCH   2  17
ATOM     17  C   UNL     1       9.850  -2.243  22.983  0.00  0.00    +0.205 C 
BRANCH  17  18
ATOM     18  O   UNL     1      10.039  -2.879  24.242  0.00  0.00    -0.293 OA
BRANCH  18  19
ATOM     19  P   UNL     1       8.804  -4.035  24.605  0.00  0.00    +0.415 P 
ATOM     20  O   UNL     1       8.546  -3.359  25.951  0.00  0.00    -0.240 OA
BRANCH  19  21
ATOM     21  N   UNL     1       7.534  -5.225  24.980  0.00  0.00    -0.126 NA
ATOM     22  H   UNL     1       8.000  -6.123  25.069  0.00  0.00    +0.146 HD
BRANCH  21  23
ATOM     23  P   UNL     1       6.994  -5.007  26.662  0.00  0.00    +0.412 P 
ATOM     24  O   UNL     1       6.524  -4.818  28.125  0.00  0.00    -0.240 OA
BRANCH  23  25
ATOM     25  O   UNL     1       8.337  -5.888  26.998  0.00  0.00    -0.312 OA
ATOM     26  H   UNL     1       8.496  -6.492  26.248  0.00  0.00    +0.221 HD
ENDBRANCH  23  25
BRANCH  23  27
ATOM     27  O   UNL     1       5.992  -6.262  26.349  0.00  0.00    -0.312 OA
ATOM     28  H   UNL     1       6.330  -7.036  26.833  0.00  0.00    +0.221 HD
ENDBRANCH  23  27
ENDBRANCH  21  23
ENDBRANCH  19  21
BRANCH  19  29
ATOM     29  O   UNL     1      10.012  -5.091  24.879  0.00  0.00    -0.312 OA
ATOM     30  H   UNL     1       9.879  -5.853  24.275  0.00  0.00    +0.221 HD
ENDBRANCH  19  29
ENDBRANCH  18  19
ENDBRANCH  17  18
ENDBRANCH   2  17
TORSDOF 10
ENDMDL
MODEL 6
REMARK VINA RESULT:      -6.9      2.315      3.715
REMARK  Name = 
REMARK  10 active torsions:
REMARK  status: ('A' for Active; 'I' for Inactive)
REMARK    1  A    between atoms: O_1  and  C_2
REMARK    2  A    between atoms: C_5  and  N_20
REMARK    3  A    between atoms: C_8  and  C_10
REMARK    4  A    between atoms: C_10  and  O_11
REMARK    5  A    between atoms: O_11  and  P_12
REMARK    6  A    between atoms: P_12  and  O_13
REMARK    7  A    between atoms: P_12  and  N_15
REMARK    8  A    between atoms: N_15  and  P_16
REMARK    9  A    between atoms: P_16  and  O_17
REMARK   10  A    between atoms: P_16  and  O_18
REMARK                            x       y       z     vdW  Elec       q    Type
REMARK                         _______ _______ _______ _____ _____    ______ ____
ROOT
ATOM      1  C   UNL     1       6.863  -1.475  23.007  0.00  0.00    +0.150 C 
ATOM      2  C   UNL     1       8.392  -1.424  23.017  0.00  0.00    +0.175 C 
ATOM      3  O   UNL     1       8.871  -2.783  22.927  0.00  0.00    -0.348 OA
ATOM      4  C   UNL     1       7.743  -3.681  23.011  0.00  0.00    +0.226 C 
ATOM      5  C   UNL     1       6.572  -2.861  22.485  0.00  0.00    +0.088 C 
ENDROOT
BRANCH   4   6
ATOM      6  N   UNL     1       7.594  -4.183  24.376  0.00  0.00    -0.274 N 
ATOM      7  C   UNL     1       6.609  -5.140  24.598  0.00  0.00    +0.331 A 
ATOM      8  O   UNL     1       5.853  -5.561  23.722  0.00  0.00    -0.246 OA
ATOM      9  N   UNL     1       6.509  -5.605  25.875  0.00  0.00    -0.275 N 
ATOM     10  H   UNL     1       5.803  -6.304  26.048  0.00  0.00    +0.173 HD
ATOM     11  C   UNL     1       7.374  -5.362  26.903  0.00  0.00    +0.254 A 
ATOM     12  O   UNL     1       7.300  -5.911  27.994  0.00  0.00    -0.268 OA
ATOM     13  C   UNL     1       8.435  -4.401  26.605  0.00  0.00    +0.088 A 
ATOM     14  C   UNL     1       8.493  -3.867  25.382  0.00  0.00    +0.098 A 
ENDBRANCH   4   6
BRANCH   1  15
ATOM     15  O   UNL     1       6.328  -1.328  24.322  0.00  0.00    -0.389 OA
ATOM     16  H   UNL     1       6.565  -0.448  24.663  0.00  0.00    +0.210 HD
ENDBRANCH   1  15
BRANCH   2  17
ATOM     17  C   UNL     1       8.967  -0.626  21.852  0.00  0.00    +0.205 C 
BRANCH  17  18
ATOM     18  O   UNL     1       9.834   0.385  22.353  0.00  0.00    -0.293 OA
BRANCH  18  19
ATOM     19  P   UNL     1       9.100   1.951  22.381  0.00  0.00    +0.415 P 
ATOM     20  O   UNL     1       8.179   1.557  21.226  0.00  0.00    -0.240 OA
BRANCH  19  21
ATOM     21  N   UNL     1       8.345   3.563  22.409  0.00  0.00    -0.126 NA
ATOM     22  H   UNL     1       7.343   3.408  22.481  0.00  0.00    +0.146 HD
BRANCH  21  23
ATOM     23  P   UNL     1       8.637   4.327  23.990  0.00  0.00    +0.412 P 
ATOM     24  O   UNL     1       8.890   4.992  25.365  0.00  0.00    -0.240 OA
BRANCH  23  25
ATOM     25  O   UNL     1       9.927   4.979  23.214  0.00  0.00    -0.312 OA
ATOM     26  H   UNL     1      10.375   4.265  22.723  0.00  0.00    +0.221 HD
ENDBRANCH  23  25
BRANCH  23  27
ATOM     27  O   UNL     1       9.330   2.900  24.389  0.00  0.00    -0.312 OA
ATOM     28  H   UNL     1       8.614   2.273  24.595  0.00  0.00    +0.221 HD
ENDBRANCH  23  27
ENDBRANCH  21  23
ENDBRANCH  19  21
BRANCH  19  29
ATOM     29  O   UNL     1      10.464   2.493  21.677  0.00  0.00    -0.312 OA
ATOM     30  H   UNL     1      11.201   2.342  22.308  0.00  0.00    +0.221 HD
ENDBRANCH  19  29
ENDBRANCH  18  19
ENDBRANCH  17  18
ENDBRANCH   2  17
TORSDOF 10
ENDMDL
MODEL 7
REMARK VINA RESULT:      -6.7      1.779      2.209
REMARK  Name = 
REMARK  10 active torsions:
REMARK  status: ('A' for Active; 'I' for Inactive)
REMARK    1  A    between atoms: O_1  and  C_2
REMARK    2  A    between atoms: C_5  and  N_20
REMARK    3  A    between atoms: C_8  and  C_10
REMARK    4  A    between atoms: C_10  and  O_11
REMARK    5  A    between atoms: O_11  and  P_12
REMARK    6  A    between atoms: P_12  and  O_13
REMARK    7  A    between atoms: P_12  and  N_15
REMARK    8  A    between atoms: N_15  and  P_16
REMARK    9  A    between atoms: P_16  and  O_17
REMARK   10  A    between atoms: P_16  and  O_18
REMARK                            x       y       z     vdW  Elec       q    Type
REMARK                         _______ _______ _______ _____ _____    ______ ____
ROOT
ATOM      1  C   UNL     1       9.754  -1.434  22.997  0.00  0.00    +0.150 C 
ATOM      2  C   UNL     1       8.836  -0.558  23.851  0.00  0.00    +0.175 C 
ATOM      3  O   UNL     1       8.258  -1.401  24.871  0.00  0.00    -0.348 OA
ATOM      4  C   UNL     1       8.641  -2.770  24.616  0.00  0.00    +0.226 C 
ATOM      5  C   UNL     1       9.959  -2.655  23.861  0.00  0.00    +0.088 C 
ENDROOT
BRANCH   4   6
ATOM      6  N   UNL     1       7.573  -3.474  23.908  0.00  0.00    -0.274 N 
ATOM      7  C   UNL     1       7.747  -4.835  23.685  0.00  0.00    +0.331 A 
ATOM      8  O   UNL     1       8.751  -5.462  24.024  0.00  0.00    -0.246 OA
ATOM      9  N   UNL     1       6.726  -5.468  23.043  0.00  0.00    -0.275 N 
ATOM     10  H   UNL     1       6.837  -6.456  22.880  0.00  0.00    +0.173 HD
ATOM     11  C   UNL     1       5.494  -4.950  22.758  0.00  0.00    +0.254 A 
ATOM     12  O   UNL     1       4.574  -5.608  22.294  0.00  0.00    -0.268 OA
ATOM     13  C   UNL     1       5.332  -3.531  23.072  0.00  0.00    +0.088 A 
ATOM     14  C   UNL     1       6.358  -2.873  23.621  0.00  0.00    +0.098 A 
ENDBRANCH   4   6
BRANCH   1  15
ATOM     15  O   UNL     1       9.125  -1.808  21.770  0.00  0.00    -0.389 OA
ATOM     16  H   UNL     1       9.236  -2.765  21.638  0.00  0.00    +0.210 HD
ENDBRANCH   1  15
BRANCH   2  17
ATOM     17  C   UNL     1       9.573   0.591  24.527  0.00  0.00    +0.205 C 
BRANCH  17  18
ATOM     18  O   UNL     1      10.581   1.087  23.654  0.00  0.00    -0.293 OA
BRANCH  18  19
ATOM     19  P   UNL     1      10.485   2.798  23.415  0.00  0.00    +0.415 P 
ATOM     20  O   UNL     1       9.211   2.859  24.258  0.00  0.00    -0.240 OA
BRANCH  19  21
ATOM     21  N   UNL     1      10.384   4.558  23.169  0.00  0.00    -0.126 NA
ATOM     22  H   UNL     1      10.177   4.698  22.184  0.00  0.00    +0.146 HD
BRANCH  21  23
ATOM     23  P   UNL     1       8.870   5.171  23.875  0.00  0.00    +0.412 P 
ATOM     24  O   UNL     1       7.553   5.704  24.491  0.00  0.00    -0.240 OA
BRANCH  23  25
ATOM     25  O   UNL     1       8.256   4.775  22.406  0.00  0.00    -0.312 OA
ATOM     26  H   UNL     1       7.570   5.432  22.180  0.00  0.00    +0.221 HD
ENDBRANCH  23  25
BRANCH  23  27
ATOM     27  O   UNL     1       9.449   6.646  23.472  0.00  0.00    -0.312 OA
ATOM     28  H   UNL     1       9.787   7.062  24.285  0.00  0.00    +0.221 HD
ENDBRANCH  23  27
ENDBRANCH  21  23
ENDBRANCH  19  21
BRANCH  19  29
ATOM     29  O   UNL     1       9.984   2.458  21.904  0.00  0.00    -0.312 OA
ATOM     30  H   UNL     1       9.544   1.580  21.930  0.00  0.00    +0.221 HD
ENDBRANCH  19  29
ENDBRANCH  18  19
ENDBRANCH  17  18
ENDBRANCH   2  17
TORSDOF 10
ENDMDL
MODEL 8
REMARK VINA RESULT:      -6.7      2.888      4.322
REMARK  Name = 
REMARK  10 active torsions:
REMARK  status: ('A' for Active; 'I' for Inactive)
REMARK    1  A    between atoms: O_1  and  C_2
REMARK    2  A    between atoms: C_5  and  N_20
REMARK    3  A    between atoms: C_8  and  C_10
REMARK    4  A    between atoms: C_10  and  O_11
REMARK    5  A    between atoms: O_11  and  P_12
REMARK    6  A    between atoms: P_12  and  O_13
REMARK    7  A    between atoms: P_12  and  N_15
REMARK    8  A    between atoms: N_15  and  P_16
REMARK    9  A    between atoms: P_16  and  O_17
REMARK   10  A    between atoms: P_16  and  O_18
REMARK                            x       y       z     vdW  Elec       q    Type
REMARK                         _______ _______ _______ _____ _____    ______ ____
ROOT
ATOM      1  C   UNL     1       6.106  -1.790  24.301  0.00  0.00    +0.150 C 
ATOM      2  C   UNL     1       7.247  -2.293  25.187  0.00  0.00    +0.175 C 
ATOM      3  O   UNL     1       7.780  -3.485  24.572  0.00  0.00    -0.348 OA
ATOM      4  C   UNL     1       6.951  -3.838  23.443  0.00  0.00    +0.226 C 
ATOM      5  C   UNL     1       6.342  -2.514  22.998  0.00  0.00    +0.088 C 
ENDROOT
BRANCH   4   6
ATOM      6  N   UNL     1       5.990  -4.873  23.822  0.00  0.00    -0.274 N 
ATOM      7  C   UNL     1       5.303  -5.510  22.795  0.00  0.00    +0.331 A 
ATOM      8  O   UNL     1       5.442  -5.234  21.603  0.00  0.00    -0.246 OA
ATOM      9  N   UNL     1       4.431  -6.485  23.178  0.00  0.00    -0.275 N 
ATOM     10  H   UNL     1       3.931  -6.959  22.443  0.00  0.00    +0.173 HD
ATOM     11  C   UNL     1       4.293  -7.012  24.430  0.00  0.00    +0.254 A 
ATOM     12  O   UNL     1       3.583  -7.975  24.686  0.00  0.00    -0.268 OA
ATOM     13  C   UNL     1       5.087  -6.355  25.469  0.00  0.00    +0.088 A 
ATOM     14  C   UNL     1       5.880  -5.337  25.123  0.00  0.00    +0.098 A 
ENDBRANCH   4   6
BRANCH   1  15
ATOM     15  O   UNL     1       4.832  -2.154  24.835  0.00  0.00    -0.389 OA
ATOM     16  H   UNL     1       4.215  -1.412  24.712  0.00  0.00    +0.210 HD
ENDBRANCH   1  15
BRANCH   2  17
ATOM     17  C   UNL     1       8.373  -1.277  25.337  0.00  0.00    +0.205 C 
BRANCH  17  18
ATOM     18  O   UNL     1       9.484  -1.679  24.544  0.00  0.00    -0.293 OA
BRANCH  18  19
ATOM     19  P   UNL     1       9.625  -0.780  23.074  0.00  0.00    +0.415 P 
ATOM     20  O   UNL     1      10.297  -1.972  22.391  0.00  0.00    -0.240 OA
BRANCH  19  21
ATOM     21  N   UNL     1       9.770   0.145  21.559  0.00  0.00    -0.126 NA
ATOM     22  H   UNL     1       9.305  -0.404  20.843  0.00  0.00    +0.146 HD
BRANCH  21  23
ATOM     23  P   UNL     1       8.673   1.546  21.612  0.00  0.00    +0.412 P 
ATOM     24  O   UNL     1       7.718   2.763  21.658  0.00  0.00    -0.240 OA
BRANCH  23  25
ATOM     25  O   UNL     1      10.069   2.380  21.830  0.00  0.00    -0.312 OA
ATOM     26  H   UNL     1      10.813   1.768  21.675  0.00  0.00    +0.221 HD
ENDBRANCH  23  25
BRANCH  23  27
ATOM     27  O   UNL     1       8.437   1.118  23.173  0.00  0.00    -0.312 OA
ATOM     28  H   UNL     1       8.423   1.935  23.703  0.00  0.00    +0.221 HD
ENDBRANCH  23  27
ENDBRANCH  21  23
ENDBRANCH  19  21
BRANCH  19  29
ATOM     29  O   UNL     1      10.831   0.034  23.803  0.00  0.00    -0.312 OA
ATOM     30  H   UNL     1      10.545   0.219  24.724  0.00  0.00    +0.221 HD
ENDBRANCH  19  29
ENDBRANCH  18  19
ENDBRANCH  17  18
ENDBRANCH   2  17
TORSDOF 10
ENDMDL
MODEL 9
REMARK VINA RESULT:      -6.7      3.466      8.571
REMARK  Name = 
REMARK  10 active torsions:
REMARK  status: ('A' for Active; 'I' for Inactive)
REMARK    1  A    between atoms: O_1  and  C_2
REMARK    2  A    between atoms: C_5  and  N_20
REMARK    3  A    between atoms: C_8  and  C_10
REMARK    4  A    between atoms: C_10  and  O_11
REMARK    5  A    between atoms: O_11  and  P_12
REMARK    6  A    between atoms: P_12  and  O_13
REMARK    7  A    between atoms: P_12  and  N_15
REMARK    8  A    between atoms: N_15  and  P_16
REMARK    9  A    between atoms: P_16  and  O_17
REMARK   10  A    between atoms: P_16  and  O_18
REMARK                            x       y       z     vdW  Elec       q    Type
REMARK                         _______ _______ _______ _____ _____    ______ ____
ROOT
ATOM      1  C   UNL     1       9.794  -0.099  24.887  0.00  0.00    +0.150 C 
ATOM      2  C   UNL     1       9.099  -0.628  23.631  0.00  0.00    +0.175 C 
ATOM      3  O   UNL     1       9.551   0.172  22.517  0.00  0.00    -0.348 OA
ATOM      4  C   UNL     1      10.364   1.254  23.020  0.00  0.00    +0.226 C 
ATOM      5  C   UNL     1      10.933   0.718  24.328  0.00  0.00    +0.088 C 
ENDROOT
BRANCH   4   6
ATOM      6  N   UNL     1       9.570   2.476  23.137  0.00  0.00    -0.274 N 
ATOM      7  C   UNL     1      10.256   3.660  23.386  0.00  0.00    +0.331 A 
ATOM      8  O   UNL     1      11.476   3.726  23.535  0.00  0.00    -0.246 OA
ATOM      9  N   UNL     1       9.492   4.785  23.467  0.00  0.00    -0.275 N 
ATOM     10  H   UNL     1       9.977   5.650  23.641  0.00  0.00    +0.173 HD
ATOM     11  C   UNL     1       8.165   4.895  23.161  0.00  0.00    +0.254 A 
ATOM     12  O   UNL     1       7.563   5.959  23.131  0.00  0.00    -0.268 OA
ATOM     13  C   UNL     1       7.498   3.633  22.839  0.00  0.00    +0.088 A 
ATOM     14  C   UNL     1       8.217   2.507  22.843  0.00  0.00    +0.098 A 
ENDBRANCH   4   6
BRANCH   1  15
ATOM     15  O   UNL     1       8.924   0.737  25.651  0.00  0.00    -0.389 OA
ATOM     16  H   UNL     1       8.002   0.515  25.435  0.00  0.00    +0.210 HD
ENDBRANCH   1  15
BRANCH   2  17
ATOM     17  C   UNL     1       9.422  -2.089  23.345  0.00  0.00    +0.205 C 
BRANCH  17  18
ATOM     18  O   UNL     1       9.089  -2.880  24.480  0.00  0.00    -0.293 OA
BRANCH  18  19
ATOM     19  P   UNL     1       7.869  -4.059  24.147  0.00  0.00    +0.415 P 
ATOM     20  O   UNL     1       8.914  -5.174  24.184  0.00  0.00    -0.240 OA
BRANCH  19  21
ATOM     21  N   UNL     1       6.613  -5.274  23.803  0.00  0.00    -0.126 NA
ATOM     22  H   UNL     1       5.740  -4.890  24.153  0.00  0.00    +0.146 HD
BRANCH  21  23
ATOM     23  P   UNL     1       6.252  -5.277  22.060  0.00  0.00    +0.412 P 
ATOM     24  O   UNL     1       5.940  -5.279  20.543  0.00  0.00    -0.240 OA
BRANCH  23  25
ATOM     25  O   UNL     1       5.091  -6.347  22.503  0.00  0.00    -0.312 OA
ATOM     26  H   UNL     1       4.553  -5.934  23.205  0.00  0.00    +0.221 HD
ENDBRANCH  23  25
BRANCH  23  27
ATOM     27  O   UNL     1       7.491  -6.341  21.954  0.00  0.00    -0.312 OA
ATOM     28  H   UNL     1       7.572  -6.785  22.816  0.00  0.00    +0.221 HD
ENDBRANCH  23  27
ENDBRANCH  21  23
ENDBRANCH  19  21
BRANCH  19  29
ATOM     29  O   UNL     1       7.889  -3.502  22.617  0.00  0.00    -0.312 OA
ATOM     30  H   UNL     1       8.619  -3.961  22.147  0.00  0.00    +0.221 HD
ENDBRANCH  19  29
ENDBRANCH  18  19
ENDBRANCH  17  18
ENDBRANCH   2  17
TORSDOF 10
ENDMDL
