MODEL 1
REMARK VINA RESULT:      -5.0      0.000      0.000
REMARK  Name = 
REMARK  7 active torsions:
REMARK  status: ('A' for Active; 'I' for Inactive)
REMARK    1  A    between atoms: C_1  and  C_2
REMARK    2  A    between atoms: C_2  and  C_3
REMARK    3  A    between atoms: C_2  and  C_4
REMARK    4  A    between atoms: C_8  and  C_9
REMARK    5  A    between atoms: C_9  and  C_10
REMARK    6  A    between atoms: C_9  and  C_11
REMARK    7  A    between atoms: C_12  and  O_13
REMARK                            x       y       z     vdW  Elec       q    Type
REMARK                         _______ _______ _______ _____ _____    ______ ____
ROOT
ATOM      1  C   UNL     1       7.936  -3.189  23.479  0.00  0.00    -0.003 A 
ATOM      2  C   UNL     1       9.096  -2.386  23.491  0.00  0.00    +0.124 A 
ATOM      3  C   UNL     1       9.052  -0.998  23.268  0.00  0.00    -0.003 A 
ATOM      4  C   UNL     1       7.785  -0.414  23.091  0.00  0.00    +0.007 A 
ATOM      5  C   UNL     1       6.623  -1.182  23.101  0.00  0.00    +0.001 A 
ATOM      6  C   UNL     1       6.698  -2.560  23.288  0.00  0.00    +0.007 A 
ENDROOT
BRANCH   1   8
ATOM      7  C   UNL     1       7.393  -4.984  25.128  0.00  0.00    +0.012 C 
ATOM      8  C   UNL     1       8.024  -4.686  23.765  0.00  0.00    +0.016 C 
ATOM      9  C   UNL     1       7.399  -5.584  22.690  0.00  0.00    +0.012 C 
ENDBRANCH   1   8
BRANCH   3  10
ATOM     10  C   UNL     1      10.251  -0.059  23.220  0.00  0.00    +0.016 C 
ATOM     11  C   UNL     1      10.709   0.515  24.564  0.00  0.00    +0.012 C 
ATOM     12  C   UNL     1      10.033   1.056  22.193  0.00  0.00    +0.012 C 
ENDBRANCH   3  10
BRANCH   2  13
ATOM     13  O   UNL     1      10.276  -3.021  23.772  0.00  0.00    -0.506 OA
ATOM     14  H   UNL     1      10.991  -2.444  23.464  0.00  0.00    +0.292 HD
ENDBRANCH   2  13
TORSDOF 3
ENDMDL
MODEL 2
REMARK VINA RESULT:      -4.9      1.708      2.014
REMARK  Name = 
REMARK  7 active torsions:
REMARK  status: ('A' for Active; 'I' for Inactive)
REMARK    1  A    between atoms: C_1  and  C_2
REMARK    2  A    between atoms: C_2  and  C_3
REMARK    3  A    between atoms: C_2  and  C_4
REMARK    4  A    between atoms: C_8  and  C_9
REMARK    5  A    between atoms: C_9  and  C_10
REMARK    6  A    between atoms: C_9  and  C_11
REMARK    7  A    between atoms: C_12  and  O_13
REMARK                            x       y       z     vdW  Elec       q    Type
REMARK                         _______ _______ _______ _____ _____    ______ ____
ROOT
ATOM      1  C   UNL     1       8.974  -2.843  24.861  0.00  0.00    -0.003 A 
ATOM      2  C   UNL     1       9.688  -1.973  24.009  0.00  0.00    +0.124 A 
ATOM      3  C   UNL     1       9.789  -0.593  24.259  0.00  0.00    -0.003 A 
ATOM      4  C   UNL     1       9.199  -0.106  25.440  0.00  0.00    +0.007 A 
ATOM      5  C   UNL     1       8.511  -0.950  26.309  0.00  0.00    +0.001 A 
ATOM      6  C   UNL     1       8.394  -2.307  26.019  0.00  0.00    +0.007 A 
ENDROOT
BRANCH   1   8
ATOM      7  C   UNL     1       9.817  -5.084  25.569  0.00  0.00    +0.012 C 
ATOM      8  C   UNL     1       8.922  -4.341  24.573  0.00  0.00    +0.016 C 
ATOM      9  C   UNL     1       7.514  -4.949  24.580  0.00  0.00    +0.012 C 
ENDBRANCH   1   8
BRANCH   3  10
ATOM     10  C   UNL     1      10.499   0.429  23.379  0.00  0.00    +0.016 C 
ATOM     11  C   UNL     1      10.733   1.808  24.006  0.00  0.00    +0.012 C 
ATOM     12  C   UNL     1       9.807   0.555  22.019  0.00  0.00    +0.012 C 
ENDBRANCH   3  10
BRANCH   2  13
ATOM     13  O   UNL     1      10.318  -2.546  22.938  0.00  0.00    -0.506 OA
ATOM     14  H   UNL     1       9.677  -2.574  22.212  0.00  0.00    +0.292 HD
ENDBRANCH   2  13
TORSDOF 3
ENDMDL
MODEL 3
REMARK VINA RESULT:      -4.9      0.099      4.684
REMARK  Name = 
REMARK  7 active torsions:
REMARK  status: ('A' for Active; 'I' for Inactive)
REMARK    1  A    between atoms: C_1  and  C_2
REMARK    2  A    between atoms: C_2  and  C_3
REMARK    3  A    between atoms: C_2  and  C_4
REMARK    4  A    between atoms: C_8  and  C_9
REMARK    5  A    between atoms: C_9  and  C_10
REMARK    6  A    between atoms: C_9  and  C_11
REMARK    7  A    between atoms: C_12  and  O_13
REMARK                            x       y       z     vdW  Elec       q    Type
REMARK                         _______ _______ _______ _____ _____    ______ ____
ROOT
ATOM      1  C   UNL     1       9.000  -0.947  23.351  0.00  0.00    -0.003 A 
ATOM      2  C   UNL     1       9.104  -2.343  23.531  0.00  0.00    +0.124 A 
ATOM      3  C   UNL     1       7.975  -3.181  23.577  0.00  0.00    -0.003 A 
ATOM      4  C   UNL     1       6.719  -2.583  23.371  0.00  0.00    +0.007 A 
ATOM      5  C   UNL     1       6.593  -1.210  23.165  0.00  0.00    +0.001 A 
ATOM      6  C   UNL     1       7.725  -0.398  23.162  0.00  0.00    +0.007 A 
ENDROOT
BRANCH   1   8
ATOM      7  C   UNL     1      10.048   1.014  22.216  0.00  0.00    +0.012 C 
ATOM      8  C   UNL     1      10.253  -0.079  23.269  0.00  0.00    +0.016 C 
ATOM      9  C   UNL     1      10.690   0.548  24.598  0.00  0.00    +0.012 C 
ENDBRANCH   1   8
BRANCH   3  10
ATOM     10  C   UNL     1       7.985  -4.687  23.809  0.00  0.00    +0.016 C 
ATOM     11  C   UNL     1       7.380  -5.543  22.690  0.00  0.00    +0.012 C 
ATOM     12  C   UNL     1       7.364  -5.037  25.163  0.00  0.00    +0.012 C 
ENDBRANCH   3  10
BRANCH   2  13
ATOM     13  O   UNL     1      10.370  -2.855  23.621  0.00  0.00    -0.506 OA
ATOM     14  H   UNL     1      10.419  -3.352  24.451  0.00  0.00    +0.292 HD
ENDBRANCH   2  13
TORSDOF 3
ENDMDL
MODEL 4
REMARK VINA RESULT:      -4.8      2.235      3.395
REMARK  Name = 
REMARK  7 active torsions:
REMARK  status: ('A' for Active; 'I' for Inactive)
REMARK    1  A    between atoms: C_1  and  C_2
REMARK    2  A    between atoms: C_2  and  C_3
REMARK    3  A    between atoms: C_2  and  C_4
REMARK    4  A    between atoms: C_8  and  C_9
REMARK    5  A    between atoms: C_9  and  C_10
REMARK    6  A    between atoms: C_9  and  C_11
REMARK    7  A    between atoms: C_12  and  O_13
REMARK                            x       y       z     vdW  Elec       q    Type
REMARK                         _______ _______ _______ _____ _____    ______ ____
ROOT
ATOM      1  C   UNL     1       9.333  -0.632  23.689  0.00  0.00    -0.003 A 
ATOM      2  C   UNL     1       9.553   0.661  24.209  0.00  0.00    +0.124 A 
ATOM      3  C   UNL     1       9.794   1.773  23.382  0.00  0.00    -0.003 A 
ATOM      4  C   UNL     1       9.747   1.564  21.992  0.00  0.00    +0.007 A 
ATOM      5  C   UNL     1       9.506   0.302  21.454  0.00  0.00    +0.001 A 
ATOM      6  C   UNL     1       9.307  -0.789  22.297  0.00  0.00    +0.007 A 
ENDROOT
BRANCH   1   8
ATOM      7  C   UNL     1       7.521  -1.994  24.736  0.00  0.00    +0.012 C 
ATOM      8  C   UNL     1       9.036  -1.804  24.621  0.00  0.00    +0.016 C 
ATOM      9  C   UNL     1       9.701  -3.128  24.223  0.00  0.00    +0.012 C 
ENDBRANCH   1   8
BRANCH   3  10
ATOM     10  C   UNL     1      10.083   3.193  23.850  0.00  0.00    +0.016 C 
ATOM     11  C   UNL     1       8.962   4.214  23.631  0.00  0.00    +0.012 C 
ATOM     12  C   UNL     1      11.408   3.702  23.274  0.00  0.00    +0.012 C 
ENDBRANCH   3  10
BRANCH   2  13
ATOM     13  O   UNL     1       9.480   0.793  25.569  0.00  0.00    -0.506 OA
ATOM     14  H   UNL     1       9.572  -0.093  25.948  0.00  0.00    +0.292 HD
ENDBRANCH   2  13
TORSDOF 3
ENDMDL
MODEL 5
REMARK VINA RESULT:      -4.8      2.263      5.520
REMARK  Name = 
REMARK  7 active torsions:
REMARK  status: ('A' for Active; 'I' for Inactive)
REMARK    1  A    between atoms: C_1  and  C_2
REMARK    2  A    between atoms: C_2  and  C_3
REMARK    3  A    between atoms: C_2  and  C_4
REMARK    4  A    between atoms: C_8  and  C_9
REMARK    5  A    between atoms: C_9  and  C_10
REMARK    6  A    between atoms: C_9  and  C_11
REMARK    7  A    between atoms: C_12  and  O_13
REMARK                            x       y       z     vdW  Elec       q    Type
REMARK                         _______ _______ _______ _____ _____    ______ ____
ROOT
ATOM      1  C   UNL     1       9.670   1.640  23.314  0.00  0.00    -0.003 A 
ATOM      2  C   UNL     1       9.460   0.589  24.232  0.00  0.00    +0.124 A 
ATOM      3  C   UNL     1       9.298  -0.747  23.821  0.00  0.00    -0.003 A 
ATOM      4  C   UNL     1       9.416  -1.017  22.446  0.00  0.00    +0.007 A 
ATOM      5  C   UNL     1       9.650   0.001  21.523  0.00  0.00    +0.001 A 
ATOM      6  C   UNL     1       9.769   1.320  21.953  0.00  0.00    +0.007 A 
ENDROOT
BRANCH   1   8
ATOM      7  C   UNL     1      11.235   3.585  23.314  0.00  0.00    +0.012 C 
ATOM      8  C   UNL     1       9.879   3.070  23.805  0.00  0.00    +0.016 C 
ATOM      9  C   UNL     1       8.771   4.054  23.413  0.00  0.00    +0.012 C 
ENDBRANCH   1   8
BRANCH   3  10
ATOM     10  C   UNL     1       9.025  -1.938  24.730  0.00  0.00    +0.016 C 
ATOM     11  C   UNL     1       9.591  -3.283  24.263  0.00  0.00    +0.012 C 
ATOM     12  C   UNL     1       7.532  -2.053  25.051  0.00  0.00    +0.012 C 
ENDBRANCH   3  10
BRANCH   2  13
ATOM     13  O   UNL     1       9.459   0.926  25.558  0.00  0.00    -0.506 OA
ATOM     14  H   UNL     1       9.827   1.820  25.626  0.00  0.00    +0.292 HD
ENDBRANCH   2  13
TORSDOF 3
ENDMDL
MODEL 6
REMARK VINA RESULT:      -4.8      4.272      6.057
REMARK  Name = 
REMARK  7 active torsions:
REMARK  status: ('A' for Active; 'I' for Inactive)
REMARK    1  A    between atoms: C_1  and  C_2
REMARK    2  A    between atoms: C_2  and  C_3
REMARK    3  A    between atoms: C_2  and  C_4
REMARK    4  A    between atoms: C_8  and  C_9
REMARK    5  A    between atoms: C_9  and  C_10
REMARK    6  A    between atoms: C_9  and  C_11
REMARK    7  A    between atoms: C_12  and  O_13
REMARK                            x       y       z     vdW  Elec       q    Type
REMARK                         _______ _______ _______ _____ _____    ______ ____
ROOT
ATOM      1  C   UNL     1       9.657   2.323  23.860  0.00  0.00    -0.003 A 
ATOM      2  C   UNL     1      10.108   3.645  23.659  0.00  0.00    +0.124 A 
ATOM      3  C   UNL     1       9.474   4.754  24.249  0.00  0.00    -0.003 A 
ATOM      4  C   UNL     1       8.394   4.494  25.112  0.00  0.00    +0.007 A 
ATOM      5  C   UNL     1       7.947   3.196  25.347  0.00  0.00    +0.001 A 
ATOM      6  C   UNL     1       8.569   2.119  24.720  0.00  0.00    +0.007 A 
ENDROOT
BRANCH   1   8
ATOM      7  C   UNL     1      10.507   0.009  24.251  0.00  0.00    +0.012 C 
ATOM      8  C   UNL     1      10.397   1.146  23.232  0.00  0.00    +0.016 C 
ATOM      9  C   UNL     1       9.786   0.623  21.926  0.00  0.00    +0.012 C 
ENDBRANCH   1   8
BRANCH   3  10
ATOM     10  C   UNL     1       9.860   6.215  24.058  0.00  0.00    +0.016 C 
ATOM     11  C   UNL     1      10.888   6.773  25.047  0.00  0.00    +0.012 C 
ATOM     12  C   UNL     1       8.617   7.107  23.998  0.00  0.00    +0.012 C 
ENDBRANCH   3  10
BRANCH   2  13
ATOM     13  O   UNL     1      11.227   3.799  22.887  0.00  0.00    -0.506 OA
ATOM     14  H   UNL     1      11.917   4.172  23.455  0.00  0.00    +0.292 HD
ENDBRANCH   2  13
TORSDOF 3
ENDMDL
MODEL 7
REMARK VINA RESULT:      -4.7      1.606      2.879
REMARK  Name = 
REMARK  7 active torsions:
REMARK  status: ('A' for Active; 'I' for Inactive)
REMARK    1  A    between atoms: C_1  and  C_2
REMARK    2  A    between atoms: C_2  and  C_3
REMARK    3  A    between atoms: C_2  and  C_4
REMARK    4  A    between atoms: C_8  and  C_9
REMARK    5  A    between atoms: C_9  and  C_10
REMARK    6  A    between atoms: C_9  and  C_11
REMARK    7  A    between atoms: C_12  and  O_13
REMARK                            x       y       z     vdW  Elec       q    Type
REMARK                         _______ _______ _______ _____ _____    ______ ____
ROOT
ATOM      1  C   UNL     1       7.440  -4.514  23.481  0.00  0.00    -0.003 A 
ATOM      2  C   UNL     1       7.720  -3.190  23.078  0.00  0.00    +0.124 A 
ATOM      3  C   UNL     1       8.815  -2.467  23.584  0.00  0.00    -0.003 A 
ATOM      4  C   UNL     1       9.675  -3.136  24.472  0.00  0.00    +0.007 A 
ATOM      5  C   UNL     1       9.434  -4.451  24.865  0.00  0.00    +0.001 A 
ATOM      6  C   UNL     1       8.322  -5.132  24.378  0.00  0.00    +0.007 A 
ENDROOT
BRANCH   1   8
ATOM      7  C   UNL     1       6.783  -6.295  21.860  0.00  0.00    +0.012 C 
ATOM      8  C   UNL     1       6.264  -5.277  22.879  0.00  0.00    +0.016 C 
ATOM      9  C   UNL     1       5.357  -5.973  23.901  0.00  0.00    +0.012 C 
ENDBRANCH   1   8
BRANCH   3  10
ATOM     10  C   UNL     1       9.172  -1.026  23.242  0.00  0.00    +0.016 C 
ATOM     11  C   UNL     1       9.819  -0.800  21.871  0.00  0.00    +0.012 C 
ATOM     12  C   UNL     1      10.010  -0.390  24.355  0.00  0.00    +0.012 C 
ENDBRANCH   3  10
BRANCH   2  13
ATOM     13  O   UNL     1       6.890  -2.651  22.133  0.00  0.00    -0.506 OA
ATOM     14  H   UNL     1       6.632  -1.772  22.448  0.00  0.00    +0.292 HD
ENDBRANCH   2  13
TORSDOF 3
ENDMDL
MODEL 8
REMARK VINA RESULT:      -4.7      1.833      2.816
REMARK  Name = 
REMARK  7 active torsions:
REMARK  status: ('A' for Active; 'I' for Inactive)
REMARK    1  A    between atoms: C_1  and  C_2
REMARK    2  A    between atoms: C_2  and  C_3
REMARK    3  A    between atoms: C_2  and  C_4
REMARK    4  A    between atoms: C_8  and  C_9
REMARK    5  A    between atoms: C_9  and  C_10
REMARK    6  A    between atoms: C_9  and  C_11
REMARK    7  A    between atoms: C_12  and  O_13
REMARK                            x       y       z     vdW  Elec       q    Type
REMARK                         _______ _______ _______ _____ _____    ______ ____
ROOT
ATOM      1  C   UNL     1       7.284  -2.200  23.322  0.00  0.00    -0.003 A 
ATOM      2  C   UNL     1       7.675  -0.851  23.189  0.00  0.00    +0.124 A 
ATOM      3  C   UNL     1       8.992  -0.423  23.436  0.00  0.00    -0.003 A 
ATOM      4  C   UNL     1       9.940  -1.409  23.766  0.00  0.00    +0.007 A 
ATOM      5  C   UNL     1       9.582  -2.751  23.878  0.00  0.00    +0.001 A 
ATOM      6  C   UNL     1       8.263  -3.143  23.664  0.00  0.00    +0.007 A 
ENDROOT
BRANCH   1   8
ATOM      7  C   UNL     1       5.871  -3.714  21.927  0.00  0.00    +0.012 C 
ATOM      8  C   UNL     1       5.853  -2.628  23.007  0.00  0.00    +0.016 C 
ATOM      9  C   UNL     1       5.042  -3.107  24.218  0.00  0.00    +0.012 C 
ENDBRANCH   1   8
BRANCH   3  10
ATOM     10  C   UNL     1       9.498   1.012  23.361  0.00  0.00    +0.016 C 
ATOM     11  C   UNL     1       9.856   1.525  21.962  0.00  0.00    +0.012 C 
ATOM     12  C   UNL     1      10.653   1.238  24.340  0.00  0.00    +0.012 C 
ENDBRANCH   3  10
BRANCH   2  13
ATOM     13  O   UNL     1       6.714   0.026  22.766  0.00  0.00    -0.506 OA
ATOM     14  H   UNL     1       7.111   0.909  22.771  0.00  0.00    +0.292 HD
ENDBRANCH   2  13
TORSDOF 3
ENDMDL
MODEL 9
REMARK VINA RESULT:      -4.6      1.647      5.108
REMARK  Name = 
REMARK  7 active torsions:
REMARK  status: ('A' for Active; 'I' for Inactive)
REMARK    1  A    between atoms: C_1  and  C_2
REMARK    2  A    between atoms: C_2  and  C_3
REMARK    3  A    between atoms: C_2  and  C_4
REMARK    4  A    between atoms: C_8  and  C_9
REMARK    5  A    between atoms: C_9  and  C_10
REMARK    6  A    between atoms: C_9  and  C_11
REMARK    7  A    between atoms: C_12  and  O_13
REMARK                            x       y       z     vdW  Elec       q    Type
REMARK                         _______ _______ _______ _____ _____    ______ ____
ROOT
ATOM      1  C   UNL     1       8.773  -2.586  23.605  0.00  0.00    -0.003 A 
ATOM      2  C   UNL     1       7.624  -3.143  23.004  0.00  0.00    +0.124 A 
ATOM      3  C   UNL     1       7.215  -4.466  23.247  0.00  0.00    -0.003 A 
ATOM      4  C   UNL     1       7.966  -5.213  24.174  0.00  0.00    +0.007 A 
ATOM      5  C   UNL     1       9.090  -4.676  24.799  0.00  0.00    +0.001 A 
ATOM      6  C   UNL     1       9.494  -3.375  24.511  0.00  0.00    +0.007 A 
ENDROOT
BRANCH   1   8
ATOM      7  C   UNL     1       9.823  -0.548  24.593  0.00  0.00    +0.012 C 
ATOM      8  C   UNL     1       9.160  -1.133  23.343  0.00  0.00    +0.016 C 
ATOM      9  C   UNL     1      10.061  -0.915  22.121  0.00  0.00    +0.012 C 
ENDBRANCH   1   8
BRANCH   3  10
ATOM     10  C   UNL     1       6.019  -5.166  22.616  0.00  0.00    +0.016 C 
ATOM     11  C   UNL     1       5.273  -6.162  23.511  0.00  0.00    +0.012 C 
ATOM     12  C   UNL     1       6.402  -5.810  21.281  0.00  0.00    +0.012 C 
ENDBRANCH   3  10
BRANCH   2  13
ATOM     13  O   UNL     1       6.894  -2.314  22.196  0.00  0.00    -0.506 OA
ATOM     14  H   UNL     1       6.735  -2.791  21.368  0.00  0.00    +0.292 HD
ENDBRANCH   2  13
TORSDOF 3
ENDMDL
