MODEL 1
REMARK VINA RESULT:      -7.8      0.000      0.000
REMARK  Name = 
REMARK  6 active torsions:
REMARK  status: ('A' for Active; 'I' for Inactive)
REMARK    1  A    between atoms: C_1  and  O_2
REMARK    2  A    between atoms: O_2  and  C_3
REMARK    3  A    between atoms: C_8  and  N_9
REMARK    4  A    between atoms: C_20  and  C_21
REMARK    5  A    between atoms: C_21  and  S_22
REMARK    6  A    between atoms: S_22  and  C_23
REMARK                            x       y       z     vdW  Elec       q    Type
REMARK                         _______ _______ _______ _____ _____    ______ ____
ROOT
ATOM      1  N   UNL     1       7.115  -1.575  23.841  0.00  0.00    -0.260 N 
ATOM      2  C   UNL     1       6.295  -1.051  24.844  0.00  0.00    +0.128 A 
ATOM      3  N   UNL     1       6.409   0.173  25.268  0.00  0.00    -0.232 NA
ATOM      4  C   UNL     1       7.409   1.006  24.790  0.00  0.00    +0.080 A 
ATOM      5  C   UNL     1       8.204   0.666  23.707  0.00  0.00    +0.083 A 
ATOM      6  C   UNL     1       9.147   1.597  23.235  0.00  0.00    +0.055 A 
ATOM      7  C   UNL     1       9.312   2.829  23.890  0.00  0.00    +0.021 A 
ATOM      8  C   UNL     1       8.542   3.143  25.002  0.00  0.00    +0.004 A 
ATOM      9 CL   UNL     1      10.169   1.354  21.860  0.00  0.00    -0.083 Cl
ATOM     10  C   UNL     1       7.585   2.236  25.441  0.00  0.00    +0.028 A 
ATOM     11  C   UNL     1       7.987  -0.691  23.148  0.00  0.00    +0.268 A 
ATOM     12  O   UNL     1       8.542  -0.972  22.088  0.00  0.00    -0.267 OA
ENDROOT
BRANCH   1  14
ATOM     13  C   UNL     1       7.958  -4.019  23.956  0.00  0.00    +0.144 A 
ATOM     14  C   UNL     1       7.157  -2.988  23.412  0.00  0.00    +0.093 A 
ATOM     15  C   UNL     1       6.311  -3.368  22.337  0.00  0.00    +0.030 A 
ATOM     16  C   UNL     1       6.251  -4.674  21.835  0.00  0.00    +0.002 A 
ATOM     17  C   UNL     1       7.091  -5.644  22.347  0.00  0.00    +0.004 A 
ATOM     18  C   UNL     1       7.943  -5.317  23.396  0.00  0.00    +0.048 A 
BRANCH  13  20
ATOM     19  C   UNL     1       8.835  -4.954  25.968  0.00  0.00    +0.277 C 
ATOM     20  O   UNL     1       8.634  -3.804  25.134  0.00  0.00    -0.493 OA
ENDBRANCH  13  20
ENDBRANCH   1  14
BRANCH   2  21
ATOM     21  C   UNL     1       5.190  -1.874  25.499  0.00  0.00    +0.150 C 
BRANCH  21  22
ATOM     22  S   UNL     1       5.596  -2.609  27.109  0.00  0.00    -0.096 S 
BRANCH  22  23
ATOM     23  C   UNL     1       5.262  -4.290  26.725  0.00  0.00    +0.128 A 
ATOM     24  N   UNL     1       4.780  -4.638  25.503  0.00  0.00    -0.227 NA
ATOM     25  C   UNL     1       4.612  -5.948  25.242  0.00  0.00    +0.224 A 
ATOM     26  N   UNL     1       4.866  -6.993  26.052  0.00  0.00    -0.216 NA
ATOM     27  C   UNL     1       5.318  -6.577  27.245  0.00  0.00    +0.162 A 
ATOM     28  N   UNL     1       5.685  -7.361  28.300  0.00  0.00    -0.329 N 
ATOM     29  H   UNL     1       5.684  -8.369  28.303  0.00  0.00    +0.168 HD
ATOM     30  C   UNL     1       6.068  -6.533  29.319  0.00  0.00    +0.198 A 
ATOM     31  N   UNL     1       5.988  -5.267  28.973  0.00  0.00    -0.232 NA
ATOM     32  C   UNL     1       5.530  -5.277  27.671  0.00  0.00    +0.139 A 
ENDBRANCH  22  23
ENDBRANCH  21  22
ENDBRANCH   2  21
TORSDOF 5
ENDMDL
MODEL 2
REMARK VINA RESULT:      -7.3      1.089      1.956
REMARK  Name = 
REMARK  6 active torsions:
REMARK  status: ('A' for Active; 'I' for Inactive)
REMARK    1  A    between atoms: C_1  and  O_2
REMARK    2  A    between atoms: O_2  and  C_3
REMARK    3  A    between atoms: C_8  and  N_9
REMARK    4  A    between atoms: C_20  and  C_21
REMARK    5  A    between atoms: C_21  and  S_22
REMARK    6  A    between atoms: S_22  and  C_23
REMARK                            x       y       z     vdW  Elec       q    Type
REMARK                         _______ _______ _______ _____ _____    ______ ____
ROOT
ATOM      1  N   UNL     1       7.542  -1.356  25.000  0.00  0.00    -0.260 N 
ATOM      2  C   UNL     1       6.266  -0.878  25.309  0.00  0.00    +0.128 A 
ATOM      3  N   UNL     1       5.990   0.391  25.357  0.00  0.00    -0.232 NA
ATOM      4  C   UNL     1       6.978   1.347  25.172  0.00  0.00    +0.080 A 
ATOM      5  C   UNL     1       8.251   1.022  24.731  0.00  0.00    +0.083 A 
ATOM      6  C   UNL     1       9.175   2.056  24.495  0.00  0.00    +0.055 A 
ATOM      7  C   UNL     1       8.823   3.391  24.758  0.00  0.00    +0.021 A 
ATOM      8  C   UNL     1       7.560   3.703  25.243  0.00  0.00    +0.004 A 
ATOM      9 CL   UNL     1      10.777   1.826  23.885  0.00  0.00    -0.083 Cl
ATOM     10  C   UNL     1       6.638   2.681  25.437  0.00  0.00    +0.028 A 
ATOM     11  C   UNL     1       8.525  -0.426  24.561  0.00  0.00    +0.268 A 
ATOM     12  O   UNL     1       9.574  -0.752  24.011  0.00  0.00    -0.267 OA
ENDROOT
BRANCH   1  14
ATOM     13  C   UNL     1       7.915  -3.731  24.044  0.00  0.00    +0.144 A 
ATOM     14  C   UNL     1       7.978  -2.765  25.075  0.00  0.00    +0.093 A 
ATOM     15  C   UNL     1       8.518  -3.215  26.309  0.00  0.00    +0.030 A 
ATOM     16  C   UNL     1       8.971  -4.525  26.513  0.00  0.00    +0.002 A 
ATOM     17  C   UNL     1       8.839  -5.460  25.506  0.00  0.00    +0.004 A 
ATOM     18  C   UNL     1       8.308  -5.068  24.282  0.00  0.00    +0.048 A 
BRANCH  13  20
ATOM     19  C   UNL     1       6.322  -3.687  22.269  0.00  0.00    +0.277 C 
ATOM     20  O   UNL     1       7.623  -3.335  22.760  0.00  0.00    -0.493 OA
ENDBRANCH  13  20
ENDBRANCH   1  14
BRANCH   2  21
ATOM     21  C   UNL     1       5.096  -1.817  25.592  0.00  0.00    +0.150 C 
BRANCH  21  22
ATOM     22  S   UNL     1       4.999  -2.478  27.280  0.00  0.00    -0.096 S 
BRANCH  22  23
ATOM     23  C   UNL     1       5.014  -4.192  26.894  0.00  0.00    +0.128 A 
ATOM     24  N   UNL     1       4.739  -4.620  25.634  0.00  0.00    -0.227 NA
ATOM     25  C   UNL     1       4.835  -5.938  25.381  0.00  0.00    +0.224 A 
ATOM     26  N   UNL     1       5.180  -6.922  26.234  0.00  0.00    -0.216 NA
ATOM     27  C   UNL     1       5.416  -6.433  27.461  0.00  0.00    +0.162 A 
ATOM     28  N   UNL     1       5.798  -7.139  28.565  0.00  0.00    -0.329 N 
ATOM     29  H   UNL     1       5.975  -8.131  28.587  0.00  0.00    +0.168 HD
ATOM     30  C   UNL     1       5.913  -6.256  29.602  0.00  0.00    +0.198 A 
ATOM     31  N   UNL     1       5.649  -5.025  29.226  0.00  0.00    -0.232 NA
ATOM     32  C   UNL     1       5.346  -5.116  27.882  0.00  0.00    +0.139 A 
ENDBRANCH  22  23
ENDBRANCH  21  22
ENDBRANCH   2  21
TORSDOF 5
ENDMDL
MODEL 3
REMARK VINA RESULT:      -7.2      2.453      4.223
REMARK  Name = 
REMARK  6 active torsions:
REMARK  status: ('A' for Active; 'I' for Inactive)
REMARK    1  A    between atoms: C_1  and  O_2
REMARK    2  A    between atoms: O_2  and  C_3
REMARK    3  A    between atoms: C_8  and  N_9
REMARK    4  A    between atoms: C_20  and  C_21
REMARK    5  A    between atoms: C_21  and  S_22
REMARK    6  A    between atoms: S_22  and  C_23
REMARK                            x       y       z     vdW  Elec       q    Type
REMARK                         _______ _______ _______ _____ _____    ______ ____
ROOT
ATOM      1  N   UNL     1       6.636  -1.222  25.060  0.00  0.00    -0.260 N 
ATOM      2  C   UNL     1       7.924  -1.763  25.083  0.00  0.00    +0.128 A 
ATOM      3  N   UNL     1       8.896  -1.280  24.366  0.00  0.00    -0.232 NA
ATOM      4  C   UNL     1       8.680  -0.236  23.479  0.00  0.00    +0.080 A 
ATOM      5  C   UNL     1       7.494   0.480  23.449  0.00  0.00    +0.083 A 
ATOM      6  C   UNL     1       7.379   1.574  22.573  0.00  0.00    +0.055 A 
ATOM      7  C   UNL     1       8.437   1.896  21.705  0.00  0.00    +0.021 A 
ATOM      8  C   UNL     1       9.605   1.146  21.709  0.00  0.00    +0.004 A 
ATOM      9 CL   UNL     1       5.995   2.605  22.459  0.00  0.00    -0.083 Cl
ATOM     10  C   UNL     1       9.727   0.090  22.605  0.00  0.00    +0.028 A 
ATOM     11  C   UNL     1       6.426  -0.003  24.360  0.00  0.00    +0.268 A 
ATOM     12  O   UNL     1       5.425   0.698  24.494  0.00  0.00    -0.267 OA
ENDROOT
BRANCH   1  14
ATOM     13  C   UNL     1       5.026  -1.590  27.053  0.00  0.00    +0.144 A 
ATOM     14  C   UNL     1       5.446  -1.799  25.718  0.00  0.00    +0.093 A 
ATOM     15  C   UNL     1       4.626  -2.661  24.943  0.00  0.00    +0.030 A 
ATOM     16  C   UNL     1       3.469  -3.271  25.443  0.00  0.00    +0.002 A 
ATOM     17  C   UNL     1       3.120  -3.095  26.768  0.00  0.00    +0.004 A 
ATOM     18  C   UNL     1       3.897  -2.266  27.569  0.00  0.00    +0.048 A 
BRANCH  13  20
ATOM     19  C   UNL     1       4.774   0.484  28.204  0.00  0.00    +0.277 C 
ATOM     20  O   UNL     1       5.620  -0.604  27.804  0.00  0.00    -0.493 OA
ENDBRANCH  13  20
ENDBRANCH   1  14
BRANCH   2  21
ATOM     21  C   UNL     1       8.289  -2.951  25.970  0.00  0.00    +0.150 C 
BRANCH  21  22
ATOM     22  S   UNL     1       8.874  -4.437  25.106  0.00  0.00    -0.096 S 
BRANCH  22  23
ATOM     23  C   UNL     1       7.336  -5.271  24.944  0.00  0.00    +0.128 A 
ATOM     24  N   UNL     1       6.675  -5.723  26.041  0.00  0.00    -0.227 NA
ATOM     25  C   UNL     1       5.468  -6.290  25.860  0.00  0.00    +0.224 A 
ATOM     26  N   UNL     1       4.806  -6.475  24.702  0.00  0.00    -0.216 NA
ATOM     27  C   UNL     1       5.523  -6.027  23.661  0.00  0.00    +0.162 A 
ATOM     28  N   UNL     1       5.157  -6.042  22.346  0.00  0.00    -0.329 N 
ATOM     29  H   UNL     1       4.275  -6.378  21.993  0.00  0.00    +0.168 HD
ATOM     30  C   UNL     1       6.186  -5.505  21.623  0.00  0.00    +0.198 A 
ATOM     31  N   UNL     1       7.179  -5.127  22.396  0.00  0.00    -0.232 NA
ATOM     32  C   UNL     1       6.776  -5.437  23.679  0.00  0.00    +0.139 A 
ENDBRANCH  22  23
ENDBRANCH  21  22
ENDBRANCH   2  21
TORSDOF 5
ENDMDL
MODEL 4
REMARK VINA RESULT:      -7.2      1.672      2.704
REMARK  Name = 
REMARK  6 active torsions:
REMARK  status: ('A' for Active; 'I' for Inactive)
REMARK    1  A    between atoms: C_1  and  O_2
REMARK    2  A    between atoms: O_2  and  C_3
REMARK    3  A    between atoms: C_8  and  N_9
REMARK    4  A    between atoms: C_20  and  C_21
REMARK    5  A    between atoms: C_21  and  S_22
REMARK    6  A    between atoms: S_22  and  C_23
REMARK                            x       y       z     vdW  Elec       q    Type
REMARK                         _______ _______ _______ _____ _____    ______ ____
ROOT
ATOM      1  N   UNL     1       7.025  -2.461  23.773  0.00  0.00    -0.260 N 
ATOM      2  C   UNL     1       6.428  -2.077  24.976  0.00  0.00    +0.128 A 
ATOM      3  N   UNL     1       6.602  -0.898  25.496  0.00  0.00    -0.232 NA
ATOM      4  C   UNL     1       7.459   0.022  24.911  0.00  0.00    +0.080 A 
ATOM      5  C   UNL     1       8.011  -0.172  23.655  0.00  0.00    +0.083 A 
ATOM      6  C   UNL     1       8.810   0.842  23.097  0.00  0.00    +0.055 A 
ATOM      7  C   UNL     1       9.084   2.009  23.831  0.00  0.00    +0.021 A 
ATOM      8  C   UNL     1       8.564   2.176  25.107  0.00  0.00    +0.004 A 
ATOM      9 CL   UNL     1       9.519   0.784  21.520  0.00  0.00    -0.083 Cl
ATOM     10  C   UNL     1       7.743   1.188  25.638  0.00  0.00    +0.028 A 
ATOM     11  C   UNL     1       7.709  -1.474  23.011  0.00  0.00    +0.268 A 
ATOM     12  O   UNL     1       8.030  -1.622  21.834  0.00  0.00    -0.267 OA
ENDROOT
BRANCH   1  14
ATOM     13  C   UNL     1       7.928  -4.863  23.442  0.00  0.00    +0.144 A 
ATOM     14  C   UNL     1       7.005  -3.820  23.195  0.00  0.00    +0.093 A 
ATOM     15  C   UNL     1       5.955  -4.129  22.291  0.00  0.00    +0.030 A 
ATOM     16  C   UNL     1       5.818  -5.379  21.676  0.00  0.00    +0.002 A 
ATOM     17  C   UNL     1       6.770  -6.357  21.890  0.00  0.00    +0.004 A 
ATOM     18  C   UNL     1       7.821  -6.098  22.762  0.00  0.00    +0.048 A 
BRANCH  13  20
ATOM     19  C   UNL     1       8.443  -5.278  25.734  0.00  0.00    +0.277 C 
ATOM     20  O   UNL     1       8.838  -4.737  24.466  0.00  0.00    -0.493 OA
ENDBRANCH  13  20
ENDBRANCH   1  14
BRANCH   2  21
ATOM     21  C   UNL     1       5.507  -3.010  25.757  0.00  0.00    +0.150 C 
BRANCH  21  22
ATOM     22  S   UNL     1       3.850  -3.259  25.058  0.00  0.00    -0.096 S 
BRANCH  22  23
ATOM     23  C   UNL     1       3.868  -5.013  24.953  0.00  0.00    +0.128 A 
ATOM     24  N   UNL     1       4.668  -5.747  25.770  0.00  0.00    -0.227 NA
ATOM     25  C   UNL     1       4.586  -7.088  25.692  0.00  0.00    +0.224 A 
ATOM     26  N   UNL     1       3.792  -7.824  24.891  0.00  0.00    -0.216 NA
ATOM     27  C   UNL     1       3.048  -7.038  24.099  0.00  0.00    +0.162 A 
ATOM     28  N   UNL     1       2.127  -7.442  23.175  0.00  0.00    -0.329 N 
ATOM     29  H   UNL     1       1.874  -8.399  22.989  0.00  0.00    +0.168 HD
ATOM     30  C   UNL     1       1.614  -6.322  22.584  0.00  0.00    +0.198 A 
ATOM     31  N   UNL     1       2.133  -5.224  23.087  0.00  0.00    -0.232 NA
ATOM     32  C   UNL     1       3.026  -5.655  24.047  0.00  0.00    +0.139 A 
ENDBRANCH  22  23
ENDBRANCH  21  22
ENDBRANCH   2  21
TORSDOF 5
ENDMDL
MODEL 5
REMARK VINA RESULT:      -7.1      2.739      4.377
REMARK  Name = 
REMARK  6 active torsions:
REMARK  status: ('A' for Active; 'I' for Inactive)
REMARK    1  A    between atoms: C_1  and  O_2
REMARK    2  A    between atoms: O_2  and  C_3
REMARK    3  A    between atoms: C_8  and  N_9
REMARK    4  A    between atoms: C_20  and  C_21
REMARK    5  A    between atoms: C_21  and  S_22
REMARK    6  A    between atoms: S_22  and  C_23
REMARK                            x       y       z     vdW  Elec       q    Type
REMARK                         _______ _______ _______ _____ _____    ______ ____
ROOT
ATOM      1  N   UNL     1       8.811   2.260  23.458  0.00  0.00    -0.260 N 
ATOM      2  C   UNL     1       7.480   2.655  23.613  0.00  0.00    +0.128 A 
ATOM      3  N   UNL     1       7.145   3.876  23.908  0.00  0.00    -0.232 NA
ATOM      4  C   UNL     1       8.109   4.842  24.157  0.00  0.00    +0.080 A 
ATOM      5  C   UNL     1       9.456   4.628  23.913  0.00  0.00    +0.083 A 
ATOM      6  C   UNL     1      10.363   5.682  24.120  0.00  0.00    +0.055 A 
ATOM      7  C   UNL     1       9.910   6.915  24.619  0.00  0.00    +0.021 A 
ATOM      8  C   UNL     1       8.565   7.107  24.905  0.00  0.00    +0.004 A 
ATOM      9 CL   UNL     1      12.062   5.598  23.803  0.00  0.00    -0.083 Cl
ATOM     10  C   UNL     1       7.667   6.074  24.661  0.00  0.00    +0.028 A 
ATOM     11  C   UNL     1       9.820   3.262  23.458  0.00  0.00    +0.268 A 
ATOM     12  O   UNL     1      10.969   3.075  23.066  0.00  0.00    -0.267 OA
ENDROOT
BRANCH   1  14
ATOM     13  C   UNL     1       9.626  -0.049  24.296  0.00  0.00    +0.144 A 
ATOM     14  C   UNL     1       9.284   0.872  23.278  0.00  0.00    +0.093 A 
ATOM     15  C   UNL     1       9.417   0.396  21.947  0.00  0.00    +0.030 A 
ATOM     16  C   UNL     1       9.851  -0.898  21.637  0.00  0.00    +0.002 A 
ATOM     17  C   UNL     1      10.236  -1.753  22.651  0.00  0.00    +0.004 A 
ATOM     18  C   UNL     1      10.131  -1.329  23.971  0.00  0.00    +0.048 A 
BRANCH  13  20
ATOM     19  C   UNL     1       8.928  -0.874  26.422  0.00  0.00    +0.277 C 
ATOM     20  O   UNL     1       9.317   0.238  25.604  0.00  0.00    -0.493 OA
ENDBRANCH  13  20
ENDBRANCH   1  14
BRANCH   2  21
ATOM     21  C   UNL     1       6.319   1.682  23.425  0.00  0.00    +0.150 C 
BRANCH  21  22
ATOM     22  S   UNL     1       5.757   0.819  24.920  0.00  0.00    -0.096 S 
BRANCH  22  23
ATOM     23  C   UNL     1       5.944  -0.835  24.356  0.00  0.00    +0.128 A 
ATOM     24  N   UNL     1       6.343  -1.091  23.083  0.00  0.00    -0.227 NA
ATOM     25  C   UNL     1       6.538  -2.375  22.730  0.00  0.00    +0.224 A 
ATOM     26  N   UNL     1       6.389  -3.475  23.493  0.00  0.00    -0.216 NA
ATOM     27  C   UNL     1       5.974  -3.151  24.727  0.00  0.00    +0.162 A 
ATOM     28  N   UNL     1       5.733  -4.009  25.761  0.00  0.00    -0.329 N 
ATOM     29  H   UNL     1       5.861  -5.007  25.729  0.00  0.00    +0.168 HD
ATOM     30  C   UNL     1       5.314  -3.263  26.828  0.00  0.00    +0.198 A 
ATOM     31  N   UNL     1       5.294  -1.979  26.548  0.00  0.00    -0.232 NA
ATOM     32  C   UNL     1       5.716  -1.890  25.236  0.00  0.00    +0.139 A 
ENDBRANCH  22  23
ENDBRANCH  21  22
ENDBRANCH   2  21
TORSDOF 5
ENDMDL
MODEL 6
REMARK VINA RESULT:      -7.0      2.409      3.625
REMARK  Name = 
REMARK  6 active torsions:
REMARK  status: ('A' for Active; 'I' for Inactive)
REMARK    1  A    between atoms: C_1  and  O_2
REMARK    2  A    between atoms: O_2  and  C_3
REMARK    3  A    between atoms: C_8  and  N_9
REMARK    4  A    between atoms: C_20  and  C_21
REMARK    5  A    between atoms: C_21  and  S_22
REMARK    6  A    between atoms: S_22  and  C_23
REMARK                            x       y       z     vdW  Elec       q    Type
REMARK                         _______ _______ _______ _____ _____    ______ ____
ROOT
ATOM      1  N   UNL     1       6.606  -1.076  25.215  0.00  0.00    -0.260 N 
ATOM      2  C   UNL     1       7.901  -1.601  25.231  0.00  0.00    +0.128 A 
ATOM      3  N   UNL     1       8.846  -1.147  24.462  0.00  0.00    -0.232 NA
ATOM      4  C   UNL     1       8.593  -0.156  23.526  0.00  0.00    +0.080 A 
ATOM      5  C   UNL     1       7.398   0.544  23.490  0.00  0.00    +0.083 A 
ATOM      6  C   UNL     1       7.245   1.587  22.558  0.00  0.00    +0.055 A 
ATOM      7  C   UNL     1       8.275   1.873  21.645  0.00  0.00    +0.021 A 
ATOM      8  C   UNL     1       9.451   1.137  21.657  0.00  0.00    +0.004 A 
ATOM      9 CL   UNL     1       5.846   2.595  22.427  0.00  0.00    -0.083 Cl
ATOM     10  C   UNL     1       9.612   0.133  22.606  0.00  0.00    +0.028 A 
ATOM     11  C   UNL     1       6.361   0.101  24.455  0.00  0.00    +0.268 A 
ATOM     12  O   UNL     1       5.356   0.797  24.579  0.00  0.00    -0.267 OA
ENDROOT
BRANCH   1  14
ATOM     13  C   UNL     1       5.048  -1.340  27.264  0.00  0.00    +0.144 A 
ATOM     14  C   UNL     1       5.442  -1.629  25.937  0.00  0.00    +0.093 A 
ATOM     15  C   UNL     1       4.621  -2.553  25.238  0.00  0.00    +0.030 A 
ATOM     16  C   UNL     1       3.487  -3.148  25.804  0.00  0.00    +0.002 A 
ATOM     17  C   UNL     1       3.164  -2.893  27.122  0.00  0.00    +0.004 A 
ATOM     18  C   UNL     1       3.943  -2.000  27.849  0.00  0.00    +0.048 A 
BRANCH  13  20
ATOM     19  C   UNL     1       4.906   0.240  29.046  0.00  0.00    +0.277 C 
ATOM     20  O   UNL     1       5.640  -0.297  27.936  0.00  0.00    -0.493 OA
ENDBRANCH  13  20
ENDBRANCH   1  14
BRANCH   2  21
ATOM     21  C   UNL     1       8.304  -2.733  26.171  0.00  0.00    +0.150 C 
BRANCH  21  22
ATOM     22  S   UNL     1       8.831  -4.277  25.374  0.00  0.00    -0.096 S 
BRANCH  22  23
ATOM     23  C   UNL     1       7.275  -5.091  25.320  0.00  0.00    +0.128 A 
ATOM     24  N   UNL     1       6.614  -5.242  24.143  0.00  0.00    -0.227 NA
ATOM     25  C   UNL     1       5.461  -5.937  24.153  0.00  0.00    +0.224 A 
ATOM     26  N   UNL     1       4.856  -6.522  25.204  0.00  0.00    -0.216 NA
ATOM     27  C   UNL     1       5.550  -6.316  26.333  0.00  0.00    +0.162 A 
ATOM     28  N   UNL     1       5.239  -6.774  27.581  0.00  0.00    -0.329 N 
ATOM     29  H   UNL     1       4.446  -7.353  27.806  0.00  0.00    +0.168 HD
ATOM     30  C   UNL     1       6.202  -6.322  28.441  0.00  0.00    +0.198 A 
ATOM     31  N   UNL     1       7.122  -5.621  27.817  0.00  0.00    -0.232 NA
ATOM     32  C   UNL     1       6.735  -5.617  26.491  0.00  0.00    +0.139 A 
ENDBRANCH  22  23
ENDBRANCH  21  22
ENDBRANCH   2  21
TORSDOF 5
ENDMDL
MODEL 7
REMARK VINA RESULT:      -6.9      1.236      2.596
REMARK  Name = 
REMARK  6 active torsions:
REMARK  status: ('A' for Active; 'I' for Inactive)
REMARK    1  A    between atoms: C_1  and  O_2
REMARK    2  A    between atoms: O_2  and  C_3
REMARK    3  A    between atoms: C_8  and  N_9
REMARK    4  A    between atoms: C_20  and  C_21
REMARK    5  A    between atoms: C_21  and  S_22
REMARK    6  A    between atoms: S_22  and  C_23
REMARK                            x       y       z     vdW  Elec       q    Type
REMARK                         _______ _______ _______ _____ _____    ______ ____
ROOT
ATOM      1  N   UNL     1       7.860  -1.403  24.714  0.00  0.00    -0.260 N 
ATOM      2  C   UNL     1       7.059  -0.821  25.700  0.00  0.00    +0.128 A 
ATOM      3  N   UNL     1       7.005   0.465  25.885  0.00  0.00    -0.232 NA
ATOM      4  C   UNL     1       7.806   1.327  25.152  0.00  0.00    +0.080 A 
ATOM      5  C   UNL     1       8.545   0.906  24.058  0.00  0.00    +0.083 A 
ATOM      6  C   UNL     1       9.274   1.855  23.320  0.00  0.00    +0.055 A 
ATOM      7  C   UNL     1       9.290   3.201  23.724  0.00  0.00    +0.021 A 
ATOM      8  C   UNL     1       8.583   3.608  24.847  0.00  0.00    +0.004 A 
ATOM      9 CL   UNL     1      10.193   1.505  21.897  0.00  0.00    -0.083 Cl
ATOM     10  C   UNL     1       7.834   2.672  25.550  0.00  0.00    +0.028 A 
ATOM     11  C   UNL     1       8.506  -0.551  23.776  0.00  0.00    +0.268 A 
ATOM     12  O   UNL     1       9.002  -0.946  22.724  0.00  0.00    -0.267 OA
ENDROOT
BRANCH   1  14
ATOM     13  C   UNL     1       7.416  -3.723  23.658  0.00  0.00    +0.144 A 
ATOM     14  C   UNL     1       8.097  -2.850  24.537  0.00  0.00    +0.093 A 
ATOM     15  C   UNL     1       9.114  -3.445  25.330  0.00  0.00    +0.030 A 
ATOM     16  C   UNL     1       9.443  -4.804  25.259  0.00  0.00    +0.002 A 
ATOM     17  C   UNL     1       8.717  -5.643  24.435  0.00  0.00    +0.004 A 
ATOM     18  C   UNL     1       7.706  -5.107  23.645  0.00  0.00    +0.048 A 
BRANCH  13  20
ATOM     19  C   UNL     1       6.293  -4.056  21.580  0.00  0.00    +0.277 C 
ATOM     20  O   UNL     1       6.581  -3.204  22.697  0.00  0.00    -0.493 OA
ENDBRANCH  13  20
ENDBRANCH   1  14
BRANCH   2  21
ATOM     21  C   UNL     1       6.170  -1.656  26.617  0.00  0.00    +0.150 C 
BRANCH  21  22
ATOM     22  S   UNL     1       4.630  -2.276  25.882  0.00  0.00    -0.096 S 
BRANCH  22  23
ATOM     23  C   UNL     1       4.941  -3.999  26.031  0.00  0.00    +0.128 A 
ATOM     24  N   UNL     1       5.687  -4.481  27.059  0.00  0.00    -0.227 NA
ATOM     25  C   UNL     1       5.831  -5.815  27.162  0.00  0.00    +0.224 A 
ATOM     26  N   UNL     1       5.318  -6.767  26.359  0.00  0.00    -0.216 NA
ATOM     27  C   UNL     1       4.613  -6.222  25.357  0.00  0.00    +0.162 A 
ATOM     28  N   UNL     1       3.947  -6.886  24.367  0.00  0.00    -0.329 N 
ATOM     29  H   UNL     1       3.884  -7.888  24.282  0.00  0.00    +0.168 HD
ATOM     30  C   UNL     1       3.379  -5.949  23.549  0.00  0.00    +0.198 A 
ATOM     31  N   UNL     1       3.621  -4.726  23.966  0.00  0.00    -0.232 NA
ATOM     32  C   UNL     1       4.386  -4.879  25.106  0.00  0.00    +0.139 A 
ENDBRANCH  22  23
ENDBRANCH  21  22
ENDBRANCH   2  21
TORSDOF 5
ENDMDL
MODEL 8
REMARK VINA RESULT:      -6.8      2.763      5.090
REMARK  Name = 
REMARK  6 active torsions:
REMARK  status: ('A' for Active; 'I' for Inactive)
REMARK    1  A    between atoms: C_1  and  O_2
REMARK    2  A    between atoms: O_2  and  C_3
REMARK    3  A    between atoms: C_8  and  N_9
REMARK    4  A    between atoms: C_20  and  C_21
REMARK    5  A    between atoms: C_21  and  S_22
REMARK    6  A    between atoms: S_22  and  C_23
REMARK                            x       y       z     vdW  Elec       q    Type
REMARK                         _______ _______ _______ _____ _____    ______ ____
ROOT
ATOM      1  N   UNL     1       6.728  -0.398  24.419  0.00  0.00    -0.260 N 
ATOM      2  C   UNL     1       6.051  -1.594  24.167  0.00  0.00    +0.128 A 
ATOM      3  N   UNL     1       5.199  -2.103  25.008  0.00  0.00    -0.232 NA
ATOM      4  C   UNL     1       4.973  -1.514  26.243  0.00  0.00    +0.080 A 
ATOM      5  C   UNL     1       5.471  -0.263  26.571  0.00  0.00    +0.083 A 
ATOM      6  C   UNL     1       5.135   0.300  27.815  0.00  0.00    +0.055 A 
ATOM      7  C   UNL     1       4.350  -0.424  28.728  0.00  0.00    +0.021 A 
ATOM      8  C   UNL     1       3.893  -1.696  28.410  0.00  0.00    +0.004 A 
ATOM      9 CL   UNL     1       5.620   1.872  28.349  0.00  0.00    -0.083 Cl
ATOM     10  C   UNL     1       4.195  -2.231  27.164  0.00  0.00    +0.028 A 
ATOM     11  C   UNL     1       6.347   0.370  25.554  0.00  0.00    +0.268 A 
ATOM     12  O   UNL     1       6.670   1.543  25.723  0.00  0.00    -0.267 OA
ENDROOT
BRANCH   1  14
ATOM     13  C   UNL     1       7.683   1.036  22.489  0.00  0.00    +0.144 A 
ATOM     14  C   UNL     1       7.817   0.166  23.596  0.00  0.00    +0.093 A 
ATOM     15  C   UNL     1       9.147  -0.194  23.939  0.00  0.00    +0.030 A 
ATOM     16  C   UNL     1      10.269   0.273  23.244  0.00  0.00    +0.002 A 
ATOM     17  C   UNL     1      10.102   1.071  22.129  0.00  0.00    +0.004 A 
ATOM     18  C   UNL     1       8.818   1.444  21.750  0.00  0.00    +0.048 A 
BRANCH  13  20
ATOM     19  C   UNL     1       6.408   3.045  22.336  0.00  0.00    +0.277 C 
ATOM     20  O   UNL     1       6.465   1.616  22.224  0.00  0.00    -0.493 OA
ENDBRANCH  13  20
ENDBRANCH   1  14
BRANCH   2  21
ATOM     21  C   UNL     1       6.247  -2.380  22.873  0.00  0.00    +0.150 C 
BRANCH  21  22
ATOM     22  S   UNL     1       6.061  -4.181  23.002  0.00  0.00    -0.096 S 
BRANCH  22  23
ATOM     23  C   UNL     1       7.350  -4.498  24.153  0.00  0.00    +0.128 A 
ATOM     24  N   UNL     1       8.631  -4.141  23.873  0.00  0.00    -0.227 NA
ATOM     25  C   UNL     1       9.563  -4.344  24.822  0.00  0.00    +0.224 A 
ATOM     26  N   UNL     1       9.393  -4.869  26.050  0.00  0.00    -0.216 NA
ATOM     27  C   UNL     1       8.114  -5.218  26.251  0.00  0.00    +0.162 A 
ATOM     28  N   UNL     1       7.582  -5.767  27.382  0.00  0.00    -0.329 N 
ATOM     29  H   UNL     1       8.092  -5.959  28.229  0.00  0.00    +0.168 HD
ATOM     30  C   UNL     1       6.250  -5.979  27.153  0.00  0.00    +0.198 A 
ATOM     31  N   UNL     1       5.892  -5.580  25.953  0.00  0.00    -0.232 NA
ATOM     32  C   UNL     1       7.047  -5.089  25.377  0.00  0.00    +0.139 A 
ENDBRANCH  22  23
ENDBRANCH  21  22
ENDBRANCH   2  21
TORSDOF 5
ENDMDL
MODEL 9
REMARK VINA RESULT:      -6.8      1.961      2.697
REMARK  Name = 
REMARK  6 active torsions:
REMARK  status: ('A' for Active; 'I' for Inactive)
REMARK    1  A    between atoms: C_1  and  O_2
REMARK    2  A    between atoms: O_2  and  C_3
REMARK    3  A    between atoms: C_8  and  N_9
REMARK    4  A    between atoms: C_20  and  C_21
REMARK    5  A    between atoms: C_21  and  S_22
REMARK    6  A    between atoms: S_22  and  C_23
REMARK                            x       y       z     vdW  Elec       q    Type
REMARK                         _______ _______ _______ _____ _____    ______ ____
ROOT
ATOM      1  N   UNL     1       7.663  -2.819  23.913  0.00  0.00    -0.260 N 
ATOM      2  C   UNL     1       8.061  -2.685  25.246  0.00  0.00    +0.128 A 
ATOM      3  N   UNL     1       8.793  -1.693  25.658  0.00  0.00    -0.232 NA
ATOM      4  C   UNL     1       9.282  -0.747  24.770  0.00  0.00    +0.080 A 
ATOM      5  C   UNL     1       8.863  -0.680  23.451  0.00  0.00    +0.083 A 
ATOM      6  C   UNL     1       9.349   0.356  22.632  0.00  0.00    +0.055 A 
ATOM      7  C   UNL     1      10.286   1.273  23.136  0.00  0.00    +0.021 A 
ATOM      8  C   UNL     1      10.736   1.172  24.446  0.00  0.00    +0.004 A 
ATOM      9 CL   UNL     1       8.877   0.617  20.988  0.00  0.00    -0.083 Cl
ATOM     10  C   UNL     1      10.223   0.170  25.262  0.00  0.00    +0.028 A 
ATOM     11  C   UNL     1       7.929  -1.748  23.016  0.00  0.00    +0.268 A 
ATOM     12  O   UNL     1       7.398  -1.633  21.914  0.00  0.00    -0.267 OA
ENDROOT
BRANCH   1  14
ATOM     13  C   UNL     1       5.585  -4.275  23.408  0.00  0.00    +0.144 A 
ATOM     14  C   UNL     1       6.967  -3.986  23.333  0.00  0.00    +0.093 A 
ATOM     15  C   UNL     1       7.757  -4.929  22.624  0.00  0.00    +0.030 A 
ATOM     16  C   UNL     1       7.223  -6.076  22.023  0.00  0.00    +0.002 A 
ATOM     17  C   UNL     1       5.879  -6.362  22.167  0.00  0.00    +0.004 A 
ATOM     18  C   UNL     1       5.067  -5.471  22.860  0.00  0.00    +0.048 A 
BRANCH  13  20
ATOM     19  C   UNL     1       3.412  -3.778  24.255  0.00  0.00    +0.277 C 
ATOM     20  O   UNL     1       4.715  -3.317  23.871  0.00  0.00    -0.493 OA
ENDBRANCH  13  20
ENDBRANCH   1  14
BRANCH   2  21
ATOM     21  C   UNL     1       7.643  -3.685  26.320  0.00  0.00    +0.150 C 
BRANCH  21  22
ATOM     22  S   UNL     1       6.028  -3.390  27.095  0.00  0.00    -0.096 S 
BRANCH  22  23
ATOM     23  C   UNL     1       5.787  -4.975  27.814  0.00  0.00    +0.128 A 
ATOM     24  N   UNL     1       6.811  -5.616  28.435  0.00  0.00    -0.227 NA
ATOM     25  C   UNL     1       6.548  -6.794  29.030  0.00  0.00    +0.224 A 
ATOM     26  N   UNL     1       5.370  -7.443  29.097  0.00  0.00    -0.216 NA
ATOM     27  C   UNL     1       4.411  -6.767  28.447  0.00  0.00    +0.162 A 
ATOM     28  N   UNL     1       3.099  -7.122  28.321  0.00  0.00    -0.329 N 
ATOM     29  H   UNL     1       2.678  -7.941  28.729  0.00  0.00    +0.168 HD
ATOM     30  C   UNL     1       2.480  -6.161  27.571  0.00  0.00    +0.198 A 
ATOM     31  N   UNL     1       3.309  -5.201  27.227  0.00  0.00    -0.232 NA
ATOM     32  C   UNL     1       4.523  -5.560  27.778  0.00  0.00    +0.139 A 
ENDBRANCH  22  23
ENDBRANCH  21  22
ENDBRANCH   2  21
TORSDOF 5
ENDMDL
