MODEL 1
REMARK VINA RESULT:      -7.2      0.000      0.000
REMARK  Name = 
REMARK  7 active torsions:
REMARK  status: ('A' for Active; 'I' for Inactive)
REMARK    1  A    between atoms: C_1  and  C_2
REMARK    2  A    between atoms: C_5  and  S_8
REMARK    3  A    between atoms: S_8  and  N_11
REMARK    4  A    between atoms: N_11  and  C_12
REMARK    5  A    between atoms: C_13  and  C_24
REMARK    6  A    between atoms: C_15  and  C_17
REMARK    7  A    between atoms: C_24  and  O_25
REMARK                            x       y       z     vdW  Elec       q    Type
REMARK                         _______ _______ _______ _____ _____    ______ ____
ROOT
ATOM      1  C   UNL     1       7.967  -3.794  24.266  0.00  0.00    +0.070 A 
ATOM      2  C   UNL     1       8.734  -2.612  24.565  0.00  0.00    +0.041 A 
ATOM      3  C   UNL     1       8.743  -1.695  23.524  0.00  0.00    +0.022 A 
ATOM      4  S   UNL     1       7.696  -2.225  22.273  0.00  0.00    -0.080 S 
ATOM      5  C   UNL     1       7.460  -3.755  22.983  0.00  0.00    +0.119 A 
ENDROOT
BRANCH   3   6
ATOM      6  C   UNL     1       9.436  -0.400  23.365  0.00  0.00    -0.011 A 
ATOM      7  C   UNL     1       9.353   0.316  22.149  0.00  0.00    +0.012 A 
ATOM      8  C   UNL     1       9.935   1.577  22.003  0.00  0.00    +0.039 A 
ATOM      9  C   UNL     1      10.632   2.126  23.064  0.00  0.00    +0.123 A 
ATOM     10  F   UNL     1      11.177   3.342  22.934  0.00  0.00    -0.205 F 
ATOM     11  C   UNL     1      10.769   1.430  24.261  0.00  0.00    +0.039 A 
ATOM     12  C   UNL     1      10.175   0.169  24.411  0.00  0.00    +0.012 A 
ENDBRANCH   3   6
BRANCH   1  13
ATOM     13  N   UNL     1       7.871  -4.893  25.135  0.00  0.00    -0.215 N 
ATOM     14  H   UNL     1       8.729  -5.343  25.456  0.00  0.00    +0.174 HD
BRANCH  13  15
ATOM     15  S   UNL     1       6.681  -5.002  26.333  0.00  0.00    +0.072 S 
ATOM     16  O   UNL     1       6.960  -6.222  27.060  0.00  0.00    -0.150 OA
ATOM     17  O   UNL     1       6.598  -3.728  27.018  0.00  0.00    -0.150 OA
BRANCH  15  22
ATOM     18  C   UNL     1       1.695  -5.813  22.968  0.00  0.00    +0.044 C 
ATOM     19  C   UNL     1       2.884  -5.630  23.865  0.00  0.00    -0.050 A 
ATOM     20  C   UNL     1       3.717  -6.717  24.167  0.00  0.00    +0.005 A 
ATOM     21  C   UNL     1       4.864  -6.539  24.946  0.00  0.00    +0.029 A 
ATOM     22  C   UNL     1       5.184  -5.264  25.420  0.00  0.00    +0.109 A 
ATOM     23  C   UNL     1       4.356  -4.177  25.137  0.00  0.00    +0.029 A 
ATOM     24  C   UNL     1       3.203  -4.364  24.371  0.00  0.00    +0.005 A 
ENDBRANCH  15  22
ENDBRANCH  13  15
ENDBRANCH   1  13
BRANCH   5  25
ATOM     25  C   UNL     1       6.802  -4.812  22.230  0.00  0.00    +0.345 C 
ATOM     26  O   UNL     1       5.716  -4.735  21.674  0.00  0.00    -0.244 OA
BRANCH  25  27
ATOM     27  O   UNL     1       7.498  -5.984  22.235  0.00  0.00    -0.477 OA
ATOM     28  H   UNL     1       6.934  -6.741  21.985  0.00  0.00    +0.295 HD
ENDBRANCH  25  27
ENDBRANCH   5  25
TORSDOF 6
ENDMDL
MODEL 2
REMARK VINA RESULT:      -7.1      1.665      2.733
REMARK  Name = 
REMARK  7 active torsions:
REMARK  status: ('A' for Active; 'I' for Inactive)
REMARK    1  A    between atoms: C_1  and  C_2
REMARK    2  A    between atoms: C_5  and  S_8
REMARK    3  A    between atoms: S_8  and  N_11
REMARK    4  A    between atoms: N_11  and  C_12
REMARK    5  A    between atoms: C_13  and  C_24
REMARK    6  A    between atoms: C_15  and  C_17
REMARK    7  A    between atoms: C_24  and  O_25
REMARK                            x       y       z     vdW  Elec       q    Type
REMARK                         _______ _______ _______ _____ _____    ______ ____
ROOT
ATOM      1  C   UNL     1       7.322  -3.550  24.159  0.00  0.00    +0.070 A 
ATOM      2  C   UNL     1       7.502  -2.200  23.690  0.00  0.00    +0.041 A 
ATOM      3  C   UNL     1       8.810  -1.754  23.816  0.00  0.00    +0.022 A 
ATOM      4  S   UNL     1       9.813  -3.037  24.355  0.00  0.00    -0.080 S 
ATOM      5  C   UNL     1       8.494  -4.067  24.673  0.00  0.00    +0.119 A 
ENDROOT
BRANCH   3   6
ATOM      6  C   UNL     1       9.430  -0.443  23.530  0.00  0.00    -0.011 A 
ATOM      7  C   UNL     1       9.371   0.112  22.232  0.00  0.00    +0.012 A 
ATOM      8  C   UNL     1       9.881   1.383  21.958  0.00  0.00    +0.039 A 
ATOM      9  C   UNL     1      10.482   2.103  22.975  0.00  0.00    +0.123 A 
ATOM     10  F   UNL     1      10.957   3.329  22.721  0.00  0.00    -0.205 F 
ATOM     11  C   UNL     1      10.594   1.569  24.254  0.00  0.00    +0.039 A 
ATOM     12  C   UNL     1      10.072   0.297  24.532  0.00  0.00    +0.012 A 
ENDBRANCH   3   6
BRANCH   1  13
ATOM     13  N   UNL     1       6.074  -4.193  24.201  0.00  0.00    -0.215 N 
ATOM     14  H   UNL     1       5.295  -3.728  24.670  0.00  0.00    +0.174 HD
BRANCH  13  15
ATOM     15  S   UNL     1       5.494  -5.134  22.920  0.00  0.00    +0.072 S 
ATOM     16  O   UNL     1       4.888  -4.206  21.988  0.00  0.00    -0.150 OA
ATOM     17  O   UNL     1       6.545  -6.036  22.496  0.00  0.00    -0.150 OA
BRANCH  15  22
ATOM     18  C   UNL     1       1.063  -8.583  25.225  0.00  0.00    +0.044 C 
ATOM     19  C   UNL     1       2.134  -7.671  24.704  0.00  0.00    -0.050 A 
ATOM     20  C   UNL     1       3.393  -7.632  25.321  0.00  0.00    +0.005 A 
ATOM     21  C   UNL     1       4.417  -6.836  24.799  0.00  0.00    +0.029 A 
ATOM     22  C   UNL     1       4.182  -6.079  23.649  0.00  0.00    +0.109 A 
ATOM     23  C   UNL     1       2.929  -6.099  23.033  0.00  0.00    +0.029 A 
ATOM     24  C   UNL     1       1.907  -6.884  23.568  0.00  0.00    +0.005 A 
ENDBRANCH  15  22
ENDBRANCH  13  15
ENDBRANCH   1  13
BRANCH   5  25
ATOM     25  C   UNL     1       8.699  -5.304  25.409  0.00  0.00    +0.345 C 
ATOM     26  O   UNL     1       7.915  -5.818  26.194  0.00  0.00    -0.244 OA
BRANCH  25  27
ATOM     27  O   UNL     1       9.927  -5.856  25.193  0.00  0.00    -0.477 OA
ATOM     28  H   UNL     1      10.643  -5.304  25.565  0.00  0.00    +0.295 HD
ENDBRANCH  25  27
ENDBRANCH   5  25
TORSDOF 6
ENDMDL
MODEL 3
REMARK VINA RESULT:      -7.0      3.475      8.280
REMARK  Name = 
REMARK  7 active torsions:
REMARK  status: ('A' for Active; 'I' for Inactive)
REMARK    1  A    between atoms: C_1  and  C_2
REMARK    2  A    between atoms: C_5  and  S_8
REMARK    3  A    between atoms: S_8  and  N_11
REMARK    4  A    between atoms: N_11  and  C_12
REMARK    5  A    between atoms: C_13  and  C_24
REMARK    6  A    between atoms: C_15  and  C_17
REMARK    7  A    between atoms: C_24  and  O_25
REMARK                            x       y       z     vdW  Elec       q    Type
REMARK                         _______ _______ _______ _____ _____    ______ ____
ROOT
ATOM      1  C   UNL     1       7.198  -3.460  24.715  0.00  0.00    +0.070 A 
ATOM      2  C   UNL     1       5.881  -3.676  24.174  0.00  0.00    +0.041 A 
ATOM      3  C   UNL     1       5.366  -4.927  24.484  0.00  0.00    +0.022 A 
ATOM      4  S   UNL     1       6.431  -5.746  25.550  0.00  0.00    -0.080 S 
ATOM      5  C   UNL     1       7.661  -4.580  25.377  0.00  0.00    +0.119 A 
ENDROOT
BRANCH   3   6
ATOM      6  C   UNL     1       4.105  -5.591  24.095  0.00  0.00    -0.011 A 
ATOM      7  C   UNL     1       3.865  -6.939  24.445  0.00  0.00    +0.012 A 
ATOM      8  C   UNL     1       2.650  -7.563  24.156  0.00  0.00    +0.039 A 
ATOM      9  C   UNL     1       1.668  -6.853  23.487  0.00  0.00    +0.123 A 
ATOM     10  F   UNL     1       0.495  -7.442  23.224  0.00  0.00    -0.205 F 
ATOM     11  C   UNL     1       1.888  -5.538  23.091  0.00  0.00    +0.039 A 
ATOM     12  C   UNL     1       3.104  -4.908  23.391  0.00  0.00    +0.012 A 
ENDBRANCH   3   6
BRANCH   1  13
ATOM     13  N   UNL     1       7.952  -2.301  24.475  0.00  0.00    -0.215 N 
ATOM     14  H   UNL     1       8.276  -1.749  25.271  0.00  0.00    +0.174 HD
BRANCH  13  15
ATOM     15  S   UNL     1       9.069  -2.191  23.209  0.00  0.00    +0.072 S 
ATOM     16  O   UNL     1      10.209  -2.987  23.614  0.00  0.00    -0.150 OA
ATOM     17  O   UNL     1       8.381  -2.455  21.961  0.00  0.00    -0.150 OA
BRANCH  15  22
ATOM     18  C   UNL     1      11.081   3.536  23.256  0.00  0.00    +0.044 C 
ATOM     19  C   UNL     1      10.511   2.147  23.266  0.00  0.00    -0.050 A 
ATOM     20  C   UNL     1       9.933   1.612  22.106  0.00  0.00    +0.005 A 
ATOM     21  C   UNL     1       9.463   0.295  22.089  0.00  0.00    +0.029 A 
ATOM     22  C   UNL     1       9.576  -0.492  23.238  0.00  0.00    +0.109 A 
ATOM     23  C   UNL     1      10.138   0.035  24.402  0.00  0.00    +0.029 A 
ATOM     24  C   UNL     1      10.592   1.354  24.418  0.00  0.00    +0.005 A 
ENDBRANCH  15  22
ENDBRANCH  13  15
ENDBRANCH   1  13
BRANCH   5  25
ATOM     25  C   UNL     1       8.993  -4.847  25.896  0.00  0.00    +0.345 C 
ATOM     26  O   UNL     1       9.429  -4.499  26.984  0.00  0.00    -0.244 OA
BRANCH  25  27
ATOM     27  O   UNL     1       9.790  -5.503  25.006  0.00  0.00    -0.477 OA
ATOM     28  H   UNL     1       9.913  -6.441  25.253  0.00  0.00    +0.295 HD
ENDBRANCH  25  27
ENDBRANCH   5  25
TORSDOF 6
ENDMDL
MODEL 4
REMARK VINA RESULT:      -7.0      1.955      3.302
REMARK  Name = 
REMARK  7 active torsions:
REMARK  status: ('A' for Active; 'I' for Inactive)
REMARK    1  A    between atoms: C_1  and  C_2
REMARK    2  A    between atoms: C_5  and  S_8
REMARK    3  A    between atoms: S_8  and  N_11
REMARK    4  A    between atoms: N_11  and  C_12
REMARK    5  A    between atoms: C_13  and  C_24
REMARK    6  A    between atoms: C_15  and  C_17
REMARK    7  A    between atoms: C_24  and  O_25
REMARK                            x       y       z     vdW  Elec       q    Type
REMARK                         _______ _______ _______ _____ _____    ______ ____
ROOT
ATOM      1  C   UNL     1       8.132  -3.563  22.943  0.00  0.00    +0.070 A 
ATOM      2  C   UNL     1       8.187  -2.194  22.498  0.00  0.00    +0.041 A 
ATOM      3  C   UNL     1       8.959  -1.388  23.323  0.00  0.00    +0.022 A 
ATOM      4  S   UNL     1       9.721  -2.346  24.525  0.00  0.00    -0.080 S 
ATOM      5  C   UNL     1       8.827  -3.739  24.122  0.00  0.00    +0.119 A 
ENDROOT
BRANCH   3   6
ATOM      6  C   UNL     1       9.239   0.062  23.292  0.00  0.00    -0.011 A 
ATOM      7  C   UNL     1       9.031   0.859  24.441  0.00  0.00    +0.012 A 
ATOM      8  C   UNL     1       9.362   2.215  24.458  0.00  0.00    +0.039 A 
ATOM      9  C   UNL     1       9.880   2.799  23.315  0.00  0.00    +0.123 A 
ATOM     10  F   UNL     1      10.215   4.095  23.333  0.00  0.00    -0.205 F 
ATOM     11  C   UNL     1      10.057   2.053  22.155  0.00  0.00    +0.039 A 
ATOM     12  C   UNL     1       9.735   0.689  22.141  0.00  0.00    +0.012 A 
ENDBRANCH   3   6
BRANCH   1  13
ATOM     13  N   UNL     1       7.355  -4.549  22.314  0.00  0.00    -0.215 N 
ATOM     14  H   UNL     1       7.708  -5.507  22.278  0.00  0.00    +0.174 HD
BRANCH  13  15
ATOM     15  S   UNL     1       5.666  -4.563  22.397  0.00  0.00    +0.072 S 
ATOM     16  O   UNL     1       5.236  -3.241  21.990  0.00  0.00    -0.150 OA
ATOM     17  O   UNL     1       5.179  -5.747  21.718  0.00  0.00    -0.150 OA
BRANCH  15  22
ATOM     18  C   UNL     1       4.799  -5.098  28.381  0.00  0.00    +0.044 C 
ATOM     19  C   UNL     1       4.933  -4.968  26.891  0.00  0.00    -0.050 A 
ATOM     20  C   UNL     1       4.935  -3.702  26.289  0.00  0.00    +0.005 A 
ATOM     21  C   UNL     1       5.128  -3.571  24.910  0.00  0.00    +0.029 A 
ATOM     22  C   UNL     1       5.328  -4.714  24.131  0.00  0.00    +0.109 A 
ATOM     23  C   UNL     1       5.316  -5.981  24.719  0.00  0.00    +0.029 A 
ATOM     24  C   UNL     1       5.107  -6.106  26.093  0.00  0.00    +0.005 A 
ENDBRANCH  15  22
ENDBRANCH  13  15
ENDBRANCH   1  13
BRANCH   5  25
ATOM     25  C   UNL     1       8.864  -4.903  24.994  0.00  0.00    +0.345 C 
ATOM     26  O   UNL     1       8.432  -4.965  26.136  0.00  0.00    -0.244 OA
BRANCH  25  27
ATOM     27  O   UNL     1       9.504  -5.968  24.435  0.00  0.00    -0.477 OA
ATOM     28  H   UNL     1      10.443  -5.770  24.249  0.00  0.00    +0.295 HD
ENDBRANCH  25  27
ENDBRANCH   5  25
TORSDOF 6
ENDMDL
MODEL 5
REMARK VINA RESULT:      -7.0      2.202      2.780
REMARK  Name = 
REMARK  7 active torsions:
REMARK  status: ('A' for Active; 'I' for Inactive)
REMARK    1  A    between atoms: C_1  and  C_2
REMARK    2  A    between atoms: C_5  and  S_8
REMARK    3  A    between atoms: S_8  and  N_11
REMARK    4  A    between atoms: N_11  and  C_12
REMARK    5  A    between atoms: C_13  and  C_24
REMARK    6  A    between atoms: C_15  and  C_17
REMARK    7  A    between atoms: C_24  and  O_25
REMARK                            x       y       z     vdW  Elec       q    Type
REMARK                         _______ _______ _______ _____ _____    ______ ____
ROOT
ATOM      1  C   UNL     1       7.273  -2.872  25.997  0.00  0.00    +0.070 A 
ATOM      2  C   UNL     1       7.480  -1.591  25.372  0.00  0.00    +0.041 A 
ATOM      3  C   UNL     1       8.676  -1.518  24.672  0.00  0.00    +0.022 A 
ATOM      4  S   UNL     1       9.441  -3.054  24.666  0.00  0.00    -0.080 S 
ATOM      5  C   UNL     1       8.347  -3.714  25.792  0.00  0.00    +0.119 A 
ENDROOT
BRANCH   3   6
ATOM      6  C   UNL     1       9.320  -0.405  23.946  0.00  0.00    -0.011 A 
ATOM      7  C   UNL     1       9.271  -0.343  22.535  0.00  0.00    +0.012 A 
ATOM      8  C   UNL     1       9.804   0.740  21.832  0.00  0.00    +0.039 A 
ATOM      9  C   UNL     1      10.419   1.763  22.533  0.00  0.00    +0.123 A 
ATOM     10  F   UNL     1      10.916   2.811  21.864  0.00  0.00    -0.205 F 
ATOM     11  C   UNL     1      10.521   1.713  23.919  0.00  0.00    +0.039 A 
ATOM     12  C   UNL     1       9.976   0.631  24.625  0.00  0.00    +0.012 A 
ENDBRANCH   3   6
BRANCH   1  13
ATOM     13  N   UNL     1       6.171  -3.161  26.819  0.00  0.00    -0.215 N 
ATOM     14  H   UNL     1       6.066  -2.654  27.699  0.00  0.00    +0.174 HD
BRANCH  13  15
ATOM     15  S   UNL     1       4.648  -3.546  26.192  0.00  0.00    +0.072 S 
ATOM     16  O   UNL     1       4.129  -4.608  27.030  0.00  0.00    -0.150 OA
ATOM     17  O   UNL     1       3.903  -2.318  26.001  0.00  0.00    -0.150 OA
BRANCH  15  22
ATOM     18  C   UNL     1       6.157  -5.877  20.795  0.00  0.00    +0.044 C 
ATOM     19  C   UNL     1       5.707  -5.322  22.115  0.00  0.00    -0.050 A 
ATOM     20  C   UNL     1       5.687  -6.138  23.256  0.00  0.00    +0.005 A 
ATOM     21  C   UNL     1       5.335  -5.609  24.501  0.00  0.00    +0.029 A 
ATOM     22  C   UNL     1       5.008  -4.255  24.608  0.00  0.00    +0.109 A 
ATOM     23  C   UNL     1       5.013  -3.436  23.477  0.00  0.00    +0.029 A 
ATOM     24  C   UNL     1       5.350  -3.973  22.233  0.00  0.00    +0.005 A 
ENDBRANCH  15  22
ENDBRANCH  13  15
ENDBRANCH   1  13
BRANCH   5  25
ATOM     25  C   UNL     1       8.622  -5.007  26.400  0.00  0.00    +0.345 C 
ATOM     26  O   UNL     1       7.951  -5.559  27.259  0.00  0.00    -0.244 OA
BRANCH  25  27
ATOM     27  O   UNL     1       9.783  -5.568  25.958  0.00  0.00    -0.477 OA
ATOM     28  H   UNL     1      10.495  -5.500  26.624  0.00  0.00    +0.295 HD
ENDBRANCH  25  27
ENDBRANCH   5  25
TORSDOF 6
ENDMDL
MODEL 6
REMARK VINA RESULT:      -6.9      2.201      3.082
REMARK  Name = 
REMARK  7 active torsions:
REMARK  status: ('A' for Active; 'I' for Inactive)
REMARK    1  A    between atoms: C_1  and  C_2
REMARK    2  A    between atoms: C_5  and  S_8
REMARK    3  A    between atoms: S_8  and  N_11
REMARK    4  A    between atoms: N_11  and  C_12
REMARK    5  A    between atoms: C_13  and  C_24
REMARK    6  A    between atoms: C_15  and  C_17
REMARK    7  A    between atoms: C_24  and  O_25
REMARK                            x       y       z     vdW  Elec       q    Type
REMARK                         _______ _______ _______ _____ _____    ______ ____
ROOT
ATOM      1  C   UNL     1       6.908  -2.484  26.301  0.00  0.00    +0.070 A 
ATOM      2  C   UNL     1       8.073  -1.837  25.756  0.00  0.00    +0.041 A 
ATOM      3  C   UNL     1       7.761  -0.831  24.852  0.00  0.00    +0.022 A 
ATOM      4  S   UNL     1       6.062  -0.597  24.807  0.00  0.00    -0.080 S 
ATOM      5  C   UNL     1       5.747  -1.979  25.752  0.00  0.00    +0.119 A 
ENDROOT
BRANCH   3   6
ATOM      6  C   UNL     1       8.617   0.037  24.017  0.00  0.00    -0.011 A 
ATOM      7  C   UNL     1       8.659  -0.129  22.614  0.00  0.00    +0.012 A 
ATOM      8  C   UNL     1       9.399   0.729  21.799  0.00  0.00    +0.039 A 
ATOM      9  C   UNL     1      10.130   1.749  22.381  0.00  0.00    +0.123 A 
ATOM     10  F   UNL     1      10.828   2.585  21.601  0.00  0.00    -0.205 F 
ATOM     11  C   UNL     1      10.145   1.915  23.762  0.00  0.00    +0.039 A 
ATOM     12  C   UNL     1       9.392   1.060  24.579  0.00  0.00    +0.012 A 
ENDBRANCH   3   6
BRANCH   1  13
ATOM     13  N   UNL     1       6.971  -3.578  27.179  0.00  0.00    -0.215 N 
ATOM     14  H   UNL     1       6.213  -3.718  27.848  0.00  0.00    +0.174 HD
BRANCH  13  15
ATOM     15  S   UNL     1       7.615  -5.074  26.720  0.00  0.00    +0.072 S 
ATOM     16  O   UNL     1       9.053  -4.909  26.734  0.00  0.00    -0.150 OA
ATOM     17  O   UNL     1       6.976  -6.112  27.502  0.00  0.00    -0.150 OA
BRANCH  15  22
ATOM     18  C   UNL     1       6.040  -5.928  20.920  0.00  0.00    +0.044 C 
ATOM     19  C   UNL     1       6.404  -5.640  22.347  0.00  0.00    -0.050 A 
ATOM     20  C   UNL     1       5.465  -5.835  23.370  0.00  0.00    +0.005 A 
ATOM     21  C   UNL     1       5.818  -5.635  24.708  0.00  0.00    +0.029 A 
ATOM     22  C   UNL     1       7.122  -5.244  25.025  0.00  0.00    +0.109 A 
ATOM     23  C   UNL     1       8.062  -5.035  24.014  0.00  0.00    +0.029 A 
ATOM     24  C   UNL     1       7.699  -5.222  22.680  0.00  0.00    +0.005 A 
ENDBRANCH  15  22
ENDBRANCH  13  15
ENDBRANCH   1  13
BRANCH   5  25
ATOM     25  C   UNL     1       4.385  -2.474  25.883  0.00  0.00    +0.345 C 
ATOM     26  O   UNL     1       3.615  -2.724  24.966  0.00  0.00    -0.244 OA
BRANCH  25  27
ATOM     27  O   UNL     1       3.983  -2.594  27.180  0.00  0.00    -0.477 OA
ATOM     28  H   UNL     1       3.084  -2.970  27.248  0.00  0.00    +0.295 HD
ENDBRANCH  25  27
ENDBRANCH   5  25
TORSDOF 6
ENDMDL
MODEL 7
REMARK VINA RESULT:      -6.8      2.106      2.736
REMARK  Name = 
REMARK  7 active torsions:
REMARK  status: ('A' for Active; 'I' for Inactive)
REMARK    1  A    between atoms: C_1  and  C_2
REMARK    2  A    between atoms: C_5  and  S_8
REMARK    3  A    between atoms: S_8  and  N_11
REMARK    4  A    between atoms: N_11  and  C_12
REMARK    5  A    between atoms: C_13  and  C_24
REMARK    6  A    between atoms: C_15  and  C_17
REMARK    7  A    between atoms: C_24  and  O_25
REMARK                            x       y       z     vdW  Elec       q    Type
REMARK                         _______ _______ _______ _____ _____    ______ ____
ROOT
ATOM      1  C   UNL     1       7.446  -4.230  24.074  0.00  0.00    +0.070 A 
ATOM      2  C   UNL     1       6.994  -3.046  23.390  0.00  0.00    +0.041 A 
ATOM      3  C   UNL     1       7.944  -2.034  23.374  0.00  0.00    +0.022 A 
ATOM      4  S   UNL     1       9.412  -2.604  24.055  0.00  0.00    -0.080 S 
ATOM      5  C   UNL     1       8.711  -4.058  24.600  0.00  0.00    +0.119 A 
ENDROOT
BRANCH   3   6
ATOM      6  C   UNL     1       7.895  -0.652  22.854  0.00  0.00    -0.011 A 
ATOM      7  C   UNL     1       6.811   0.197  23.170  0.00  0.00    +0.012 A 
ATOM      8  C   UNL     1       6.783   1.530  22.754  0.00  0.00    +0.039 A 
ATOM      9  C   UNL     1       7.828   2.022  21.992  0.00  0.00    +0.123 A 
ATOM     10  F   UNL     1       7.813   3.304  21.606  0.00  0.00    -0.205 F 
ATOM     11  C   UNL     1       8.890   1.201  21.628  0.00  0.00    +0.039 A 
ATOM     12  C   UNL     1       8.924  -0.134  22.055  0.00  0.00    +0.012 A 
ENDBRANCH   3   6
BRANCH   1  13
ATOM     13  N   UNL     1       6.637  -5.358  24.283  0.00  0.00    -0.215 N 
ATOM     14  H   UNL     1       7.030  -6.285  24.116  0.00  0.00    +0.174 HD
BRANCH  13  15
ATOM     15  S   UNL     1       5.493  -5.436  25.527  0.00  0.00    +0.072 S 
ATOM     16  O   UNL     1       6.033  -6.354  26.508  0.00  0.00    -0.150 OA
ATOM     17  O   UNL     1       5.118  -4.086  25.896  0.00  0.00    -0.150 OA
BRANCH  15  22
ATOM     18  C   UNL     1       0.912  -8.303  22.763  0.00  0.00    +0.044 C 
ATOM     19  C   UNL     1       1.990  -7.553  23.489  0.00  0.00    -0.050 A 
ATOM     20  C   UNL     1       2.521  -8.059  24.685  0.00  0.00    +0.005 A 
ATOM     21  C   UNL     1       3.572  -7.402  25.330  0.00  0.00    +0.029 A 
ATOM     22  C   UNL     1       4.100  -6.234  24.772  0.00  0.00    +0.109 A 
ATOM     23  C   UNL     1       3.571  -5.714  23.589  0.00  0.00    +0.029 A 
ATOM     24  C   UNL     1       2.512  -6.367  22.958  0.00  0.00    +0.005 A 
ENDBRANCH  15  22
ENDBRANCH  13  15
ENDBRANCH   1  13
BRANCH   5  25
ATOM     25  C   UNL     1       9.446  -4.922  25.510  0.00  0.00    +0.345 C 
ATOM     26  O   UNL     1      10.572  -5.364  25.336  0.00  0.00    -0.244 OA
BRANCH  25  27
ATOM     27  O   UNL     1       8.725  -5.273  26.612  0.00  0.00    -0.477 OA
ATOM     28  H   UNL     1       8.860  -4.646  27.349  0.00  0.00    +0.295 HD
ENDBRANCH  25  27
ENDBRANCH   5  25
TORSDOF 6
ENDMDL
MODEL 8
REMARK VINA RESULT:      -6.8      4.226      8.743
REMARK  Name = 
REMARK  7 active torsions:
REMARK  status: ('A' for Active; 'I' for Inactive)
REMARK    1  A    between atoms: C_1  and  C_2
REMARK    2  A    between atoms: C_5  and  S_8
REMARK    3  A    between atoms: S_8  and  N_11
REMARK    4  A    between atoms: N_11  and  C_12
REMARK    5  A    between atoms: C_13  and  C_24
REMARK    6  A    between atoms: C_15  and  C_17
REMARK    7  A    between atoms: C_24  and  O_25
REMARK                            x       y       z     vdW  Elec       q    Type
REMARK                         _______ _______ _______ _____ _____    ______ ____
ROOT
ATOM      1  C   UNL     1       7.854  -0.579  23.740  0.00  0.00    +0.070 A 
ATOM      2  C   UNL     1       6.575  -1.042  24.214  0.00  0.00    +0.041 A 
ATOM      3  C   UNL     1       6.268  -2.323  23.777  0.00  0.00    +0.022 A 
ATOM      4  S   UNL     1       7.605  -2.986  22.932  0.00  0.00    -0.080 S 
ATOM      5  C   UNL     1       8.453  -1.509  22.915  0.00  0.00    +0.119 A 
ENDROOT
BRANCH   3   6
ATOM      6  C   UNL     1       5.062  -3.157  23.959  0.00  0.00    -0.011 A 
ATOM      7  C   UNL     1       4.766  -4.201  23.053  0.00  0.00    +0.012 A 
ATOM      8  C   UNL     1       3.676  -5.051  23.249  0.00  0.00    +0.039 A 
ATOM      9  C   UNL     1       2.850  -4.849  24.341  0.00  0.00    +0.123 A 
ATOM     10  F   UNL     1       1.813  -5.672  24.542  0.00  0.00    -0.205 F 
ATOM     11  C   UNL     1       3.088  -3.805  25.229  0.00  0.00    +0.039 A 
ATOM     12  C   UNL     1       4.189  -2.959  25.038  0.00  0.00    +0.012 A 
ENDBRANCH   3   6
BRANCH   1  13
ATOM     13  N   UNL     1       8.349   0.711  23.989  0.00  0.00    -0.215 N 
ATOM     14  H   UNL     1       9.341   0.826  24.202  0.00  0.00    +0.174 HD
BRANCH  13  15
ATOM     15  S   UNL     1       7.777   2.077  23.171  0.00  0.00    +0.072 S 
ATOM     16  O   UNL     1       7.703   1.702  21.774  0.00  0.00    -0.150 OA
ATOM     17  O   UNL     1       6.612   2.580  23.870  0.00  0.00    -0.150 OA
BRANCH  15  22
ATOM     18  C   UNL     1      12.281   6.058  24.008  0.00  0.00    +0.044 C 
ATOM     19  C   UNL     1      11.169   5.092  23.722  0.00  0.00    -0.050 A 
ATOM     20  C   UNL     1      11.456   3.760  23.391  0.00  0.00    +0.005 A 
ATOM     21  C   UNL     1      10.424   2.838  23.191  0.00  0.00    +0.029 A 
ATOM     22  C   UNL     1       9.096   3.250  23.331  0.00  0.00    +0.109 A 
ATOM     23  C   UNL     1       8.798   4.577  23.649  0.00  0.00    +0.029 A 
ATOM     24  C   UNL     1       9.832   5.495  23.832  0.00  0.00    +0.005 A 
ENDBRANCH  15  22
ENDBRANCH  13  15
ENDBRANCH   1  13
BRANCH   5  25
ATOM     25  C   UNL     1       9.642  -1.364  22.089  0.00  0.00    +0.345 C 
ATOM     26  O   UNL     1      10.727  -1.890  22.285  0.00  0.00    -0.244 OA
BRANCH  25  27
ATOM     27  O   UNL     1       9.466  -0.501  21.048  0.00  0.00    -0.477 OA
ATOM     28  H   UNL     1       8.599  -0.628  20.614  0.00  0.00    +0.295 HD
ENDBRANCH  25  27
ENDBRANCH   5  25
TORSDOF 6
ENDMDL
MODEL 9
REMARK VINA RESULT:      -6.7      2.546      3.367
REMARK  Name = 
REMARK  7 active torsions:
REMARK  status: ('A' for Active; 'I' for Inactive)
REMARK    1  A    between atoms: C_1  and  C_2
REMARK    2  A    between atoms: C_5  and  S_8
REMARK    3  A    between atoms: S_8  and  N_11
REMARK    4  A    between atoms: N_11  and  C_12
REMARK    5  A    between atoms: C_13  and  C_24
REMARK    6  A    between atoms: C_15  and  C_17
REMARK    7  A    between atoms: C_24  and  O_25
REMARK                            x       y       z     vdW  Elec       q    Type
REMARK                         _______ _______ _______ _____ _____    ______ ____
ROOT
ATOM      1  C   UNL     1       7.722  -1.380  25.678  0.00  0.00    +0.070 A 
ATOM      2  C   UNL     1       7.758   0.055  25.567  0.00  0.00    +0.041 A 
ATOM      3  C   UNL     1       8.828   0.514  24.811  0.00  0.00    +0.022 A 
ATOM      4  S   UNL     1       9.670  -0.816  24.130  0.00  0.00    -0.080 S 
ATOM      5  C   UNL     1       8.800  -1.962  25.042  0.00  0.00    +0.119 A 
ENDROOT
BRANCH   3   6
ATOM      6  C   UNL     1       9.288   1.881  24.492  0.00  0.00    -0.011 A 
ATOM      7  C   UNL     1      10.483   2.086  23.767  0.00  0.00    +0.012 A 
ATOM      8  C   UNL     1      10.896   3.365  23.386  0.00  0.00    +0.039 A 
ATOM      9  C   UNL     1      10.131   4.458  23.752  0.00  0.00    +0.123 A 
ATOM     10  F   UNL     1      10.514   5.685  23.375  0.00  0.00    -0.205 F 
ATOM     11  C   UNL     1       8.971   4.295  24.502  0.00  0.00    +0.039 A 
ATOM     12  C   UNL     1       8.550   3.010  24.874  0.00  0.00    +0.012 A 
ENDBRANCH   3   6
BRANCH   1  13
ATOM     13  N   UNL     1       6.777  -2.072  26.452  0.00  0.00    -0.215 N 
ATOM     14  H   UNL     1       6.720  -1.875  27.452  0.00  0.00    +0.174 HD
BRANCH  13  15
ATOM     15  S   UNL     1       5.248  -2.487  25.860  0.00  0.00    +0.072 S 
ATOM     16  O   UNL     1       4.678  -3.398  26.831  0.00  0.00    -0.150 OA
ATOM     17  O   UNL     1       4.554  -1.273  25.481  0.00  0.00    -0.150 OA
BRANCH  15  22
ATOM     18  C   UNL     1       6.169  -5.783  20.847  0.00  0.00    +0.044 C 
ATOM     19  C   UNL     1       6.021  -4.957  22.091  0.00  0.00    -0.050 A 
ATOM     20  C   UNL     1       5.856  -3.567  22.002  0.00  0.00    +0.005 A 
ATOM     21  C   UNL     1       5.648  -2.800  23.152  0.00  0.00    +0.029 A 
ATOM     22  C   UNL     1       5.600  -3.429  24.400  0.00  0.00    +0.109 A 
ATOM     23  C   UNL     1       5.776  -4.810  24.502  0.00  0.00    +0.029 A 
ATOM     24  C   UNL     1       5.997  -5.568  23.351  0.00  0.00    +0.005 A 
ENDBRANCH  15  22
ENDBRANCH  13  15
ENDBRANCH   1  13
BRANCH   5  25
ATOM     25  C   UNL     1       9.239  -3.349  25.075  0.00  0.00    +0.345 C 
ATOM     26  O   UNL     1       8.877  -4.203  25.871  0.00  0.00    -0.244 OA
BRANCH  25  27
ATOM     27  O   UNL     1      10.182  -3.632  24.132  0.00  0.00    -0.477 OA
ATOM     28  H   UNL     1       9.810  -3.611  23.229  0.00  0.00    +0.295 HD
ENDBRANCH  25  27
ENDBRANCH   5  25
TORSDOF 6
ENDMDL
