MODEL 1
REMARK VINA RESULT:      -7.7      0.000      0.000
REMARK  Name = 
REMARK  12 active torsions:
REMARK  status: ('A' for Active; 'I' for Inactive)
REMARK    1  A    between atoms: C_1  and  C_2
REMARK    2  A    between atoms: C_3  and  C_17
REMARK    3  A    between atoms: C_5  and  C_7
REMARK    4  A    between atoms: C_10  and  C_13
REMARK    5  A    between atoms: N_19  and  C_20
REMARK    6  A    between atoms: C_20  and  C_21
REMARK    7  A    between atoms: C_24  and  O_25
REMARK    8  A    between atoms: O_25  and  C_26
REMARK    9  A    between atoms: C_26  and  C_27
REMARK   10  A    between atoms: C_26  and  C_28
REMARK   11  A    between atoms: C_26  and  C_29
REMARK   12  A    between atoms: C_29  and  O_30
REMARK                            x       y       z     vdW  Elec       q    Type
REMARK                         _______ _______ _______ _____ _____    ______ ____
ROOT
ATOM      1  C   UNL     1       8.541  -3.331  24.817  0.00  0.00    +0.253 C 
ATOM      2  N   UNL     1       7.498  -3.658  25.664  0.00  0.00    -0.307 N 
ATOM      3  H   UNL     1       6.876  -2.913  25.946  0.00  0.00    +0.149 HD
ATOM      4  O   UNL     1       9.420  -4.142  24.540  0.00  0.00    -0.270 OA
ENDROOT
BRANCH   1  10
ATOM      5  C   UNL     1       6.508  -1.976  22.609  0.00  0.00    +0.067 C 
ATOM      6  C   UNL     1       7.641  -1.377  23.367  0.00  0.00    +0.058 A 
ATOM      7  N   UNL     1       7.886  -0.020  23.139  0.00  0.00    -0.243 NA
ATOM      8  C   UNL     1       8.885   0.416  23.879  0.00  0.00    +0.109 A 
ATOM      9  S   UNL     1       9.618  -0.798  24.839  0.00  0.00    -0.062 S 
ATOM     10  C   UNL     1       8.493  -1.973  24.293  0.00  0.00    +0.097 A 
BRANCH   8  11
ATOM     11  C   UNL     1       9.346   1.817  23.941  0.00  0.00    +0.007 A 
ATOM     12  C   UNL     1      10.603   2.161  23.415  0.00  0.00    +0.011 A 
ATOM     13  C   UNL     1      11.033   3.494  23.394  0.00  0.00    +0.013 A 
ATOM     14  C   UNL     1      10.220   4.518  23.893  0.00  0.00    +0.055 A 
ATOM     15  C   UNL     1       8.985   4.179  24.453  0.00  0.00    +0.013 A 
ATOM     16  C   UNL     1       8.558   2.850  24.477  0.00  0.00    +0.011 A 
BRANCH  14  17
ATOM     17  C   UNL     1      10.652   5.962  23.808  0.00  0.00    +0.417 C 
ATOM     18  F   UNL     1       9.687   6.761  23.278  0.00  0.00    -0.166 F 
ATOM     19  F   UNL     1      11.757   6.136  23.032  0.00  0.00    -0.166 F 
ATOM     20  F   UNL     1      10.959   6.505  25.021  0.00  0.00    -0.166 F 
ENDBRANCH  14  17
ENDBRANCH   8  11
ENDBRANCH   1  10
BRANCH   2  21
ATOM     21  C   UNL     1       7.367  -4.931  26.333  0.00  0.00    +0.139 C 
BRANCH  21  22
ATOM     22  C   UNL     1       6.171  -5.690  25.806  0.00  0.00    -0.030 A 
ATOM     23  C   UNL     1       5.892  -5.720  24.438  0.00  0.00    +0.009 A 
ATOM     24  C   UNL     1       4.809  -6.461  23.934  0.00  0.00    +0.046 A 
ATOM     25  C   UNL     1       4.004  -7.225  24.774  0.00  0.00    +0.122 A 
ATOM     26  C   UNL     1       4.280  -7.193  26.146  0.00  0.00    +0.046 A 
ATOM     27  C   UNL     1       5.344  -6.432  26.660  0.00  0.00    +0.009 A 
BRANCH  25  28
ATOM     28  O   UNL     1       2.996  -8.069  24.395  0.00  0.00    -0.475 OA
BRANCH  28  29
ATOM     29  C   UNL     1       1.635  -7.618  24.190  0.00  0.00    +0.200 C 
ATOM     30  C   UNL     1       1.314  -6.291  24.892  0.00  0.00    +0.067 C 
ATOM     31  C   UNL     1       0.631  -8.748  24.427  0.00  0.00    +0.067 C 
BRANCH  29  32
ATOM     32  C   UNL     1       1.513  -7.272  22.683  0.00  0.00    +0.348 C 
ATOM     33  O   UNL     1       1.357  -6.140  22.242  0.00  0.00    -0.247 OA
BRANCH  32  34
ATOM     34  O   UNL     1       1.613  -8.350  21.867  0.00  0.00    -0.478 OA
ATOM     35  H   UNL     1       2.158  -9.039  22.306  0.00  0.00    +0.295 HD
ENDBRANCH  32  34
ENDBRANCH  29  32
ENDBRANCH  28  29
ENDBRANCH  25  28
ENDBRANCH  21  22
ENDBRANCH   2  21
TORSDOF 9
ENDMDL
MODEL 2
REMARK VINA RESULT:      -7.2      6.425     11.377
REMARK  Name = 
REMARK  12 active torsions:
REMARK  status: ('A' for Active; 'I' for Inactive)
REMARK    1  A    between atoms: C_1  and  C_2
REMARK    2  A    between atoms: C_3  and  C_17
REMARK    3  A    between atoms: C_5  and  C_7
REMARK    4  A    between atoms: C_10  and  C_13
REMARK    5  A    between atoms: N_19  and  C_20
REMARK    6  A    between atoms: C_20  and  C_21
REMARK    7  A    between atoms: C_24  and  O_25
REMARK    8  A    between atoms: O_25  and  C_26
REMARK    9  A    between atoms: C_26  and  C_27
REMARK   10  A    between atoms: C_26  and  C_28
REMARK   11  A    between atoms: C_26  and  C_29
REMARK   12  A    between atoms: C_29  and  O_30
REMARK                            x       y       z     vdW  Elec       q    Type
REMARK                         _______ _______ _______ _____ _____    ______ ____
ROOT
ATOM      1  C   UNL     1       9.114  -3.757  24.145  0.00  0.00    +0.253 C 
ATOM      2  N   UNL     1       9.054  -2.606  23.380  0.00  0.00    -0.307 N 
ATOM      3  H   UNL     1       8.167  -2.380  22.951  0.00  0.00    +0.149 HD
ATOM      4  O   UNL     1      10.181  -4.178  24.584  0.00  0.00    -0.270 OA
ENDROOT
BRANCH   1  10
ATOM      5  C   UNL     1       7.101  -5.315  22.057  0.00  0.00    +0.067 C 
ATOM      6  C   UNL     1       6.964  -5.065  23.520  0.00  0.00    +0.058 A 
ATOM      7  N   UNL     1       5.818  -5.584  24.128  0.00  0.00    -0.243 NA
ATOM      8  C   UNL     1       5.811  -5.335  25.422  0.00  0.00    +0.109 A 
ATOM      9  S   UNL     1       7.150  -4.411  25.958  0.00  0.00    -0.062 S 
ATOM     10  C   UNL     1       7.827  -4.396  24.382  0.00  0.00    +0.097 A 
BRANCH   8  11
ATOM     11  C   UNL     1       4.788  -5.815  26.372  0.00  0.00    +0.007 A 
ATOM     12  C   UNL     1       3.434  -5.818  25.996  0.00  0.00    +0.011 A 
ATOM     13  C   UNL     1       2.452  -6.337  26.849  0.00  0.00    +0.013 A 
ATOM     14  C   UNL     1       2.794  -6.868  28.097  0.00  0.00    +0.055 A 
ATOM     15  C   UNL     1       4.133  -6.832  28.495  0.00  0.00    +0.013 A 
ATOM     16  C   UNL     1       5.112  -6.313  27.645  0.00  0.00    +0.011 A 
BRANCH  14  17
ATOM     17  C   UNL     1       1.746  -7.490  28.989  0.00  0.00    +0.417 C 
ATOM     18  F   UNL     1       2.283  -8.351  29.896  0.00  0.00    -0.166 F 
ATOM     19  F   UNL     1       0.818  -8.201  28.293  0.00  0.00    -0.166 F 
ATOM     20  F   UNL     1       1.045  -6.574  29.717  0.00  0.00    -0.166 F 
ENDBRANCH  14  17
ENDBRANCH   8  11
ENDBRANCH   1  10
BRANCH   2  21
ATOM     21  C   UNL     1      10.208  -1.835  22.983  0.00  0.00    +0.139 C 
BRANCH  21  22
ATOM     22  C   UNL     1       9.926  -0.355  23.097  0.00  0.00    -0.030 A 
ATOM     23  C   UNL     1       9.771   0.247  24.348  0.00  0.00    +0.009 A 
ATOM     24  C   UNL     1       9.553   1.631  24.465  0.00  0.00    +0.046 A 
ATOM     25  C   UNL     1       9.528   2.455  23.344  0.00  0.00    +0.122 A 
ATOM     26  C   UNL     1       9.681   1.853  22.090  0.00  0.00    +0.046 A 
ATOM     27  C   UNL     1       9.870   0.466  21.963  0.00  0.00    +0.009 A 
BRANCH  25  28
ATOM     28  O   UNL     1       9.435   3.821  23.335  0.00  0.00    -0.475 OA
BRANCH  28  29
ATOM     29  C   UNL     1       8.166   4.518  23.375  0.00  0.00    +0.200 C 
ATOM     30  C   UNL     1       7.612   4.705  24.794  0.00  0.00    +0.067 C 
ATOM     31  C   UNL     1       7.182   3.943  22.354  0.00  0.00    +0.067 C 
BRANCH  29  32
ATOM     32  C   UNL     1       8.450   5.967  22.899  0.00  0.00    +0.348 C 
ATOM     33  O   UNL     1       9.123   6.780  23.520  0.00  0.00    -0.247 OA
BRANCH  32  34
ATOM     34  O   UNL     1       7.895   6.265  21.700  0.00  0.00    -0.478 OA
ATOM     35  H   UNL     1       8.403   6.992  21.280  0.00  0.00    +0.295 HD
ENDBRANCH  32  34
ENDBRANCH  29  32
ENDBRANCH  28  29
ENDBRANCH  25  28
ENDBRANCH  21  22
ENDBRANCH   2  21
TORSDOF 9
ENDMDL
MODEL 3
REMARK VINA RESULT:      -7.2      6.273     11.193
REMARK  Name = 
REMARK  12 active torsions:
REMARK  status: ('A' for Active; 'I' for Inactive)
REMARK    1  A    between atoms: C_1  and  C_2
REMARK    2  A    between atoms: C_3  and  C_17
REMARK    3  A    between atoms: C_5  and  C_7
REMARK    4  A    between atoms: C_10  and  C_13
REMARK    5  A    between atoms: N_19  and  C_20
REMARK    6  A    between atoms: C_20  and  C_21
REMARK    7  A    between atoms: C_24  and  O_25
REMARK    8  A    between atoms: O_25  and  C_26
REMARK    9  A    between atoms: C_26  and  C_27
REMARK   10  A    between atoms: C_26  and  C_28
REMARK   11  A    between atoms: C_26  and  C_29
REMARK   12  A    between atoms: C_29  and  O_30
REMARK                            x       y       z     vdW  Elec       q    Type
REMARK                         _______ _______ _______ _____ _____    ______ ____
ROOT
ATOM      1  C   UNL     1       9.592  -2.472  23.749  0.00  0.00    +0.253 C 
ATOM      2  N   UNL     1       9.764  -1.450  24.665  0.00  0.00    -0.307 N 
ATOM      3  H   UNL     1       9.146  -1.435  25.465  0.00  0.00    +0.149 HD
ATOM      4  O   UNL     1      10.201  -2.486  22.683  0.00  0.00    -0.270 OA
ENDROOT
BRANCH   1  10
ATOM      5  C   UNL     1       9.718  -4.569  26.285  0.00  0.00    +0.067 C 
ATOM      6  C   UNL     1       8.680  -4.396  25.230  0.00  0.00    +0.058 A 
ATOM      7  N   UNL     1       7.563  -5.231  25.325  0.00  0.00    -0.243 NA
ATOM      8  C   UNL     1       6.696  -4.975  24.366  0.00  0.00    +0.109 A 
ATOM      9  S   UNL     1       7.209  -3.764  23.269  0.00  0.00    -0.062 S 
ATOM     10  C   UNL     1       8.652  -3.505  24.162  0.00  0.00    +0.097 A 
BRANCH   8  11
ATOM     11  C   UNL     1       5.374  -5.618  24.226  0.00  0.00    +0.007 A 
ATOM     12  C   UNL     1       4.557  -5.300  23.128  0.00  0.00    +0.011 A 
ATOM     13  C   UNL     1       3.332  -5.950  22.931  0.00  0.00    +0.013 A 
ATOM     14  C   UNL     1       2.891  -6.935  23.821  0.00  0.00    +0.055 A 
ATOM     15  C   UNL     1       3.680  -7.230  24.937  0.00  0.00    +0.013 A 
ATOM     16  C   UNL     1       4.900  -6.580  25.135  0.00  0.00    +0.011 A 
BRANCH  14  17
ATOM     17  C   UNL     1       1.605  -7.685  23.572  0.00  0.00    +0.417 C 
ATOM     18  F   UNL     1       1.623  -8.936  24.108  0.00  0.00    -0.166 F 
ATOM     19  F   UNL     1       1.335  -7.843  22.248  0.00  0.00    -0.166 F 
ATOM     20  F   UNL     1       0.511  -7.069  24.105  0.00  0.00    -0.166 F 
ENDBRANCH  14  17
ENDBRANCH   8  11
ENDBRANCH   1  10
BRANCH   2  21
ATOM     21  C   UNL     1      10.610  -0.301  24.448  0.00  0.00    +0.139 C 
BRANCH  21  22
ATOM     22  C   UNL     1       9.788   0.965  24.396  0.00  0.00    -0.030 A 
ATOM     23  C   UNL     1       8.525   1.020  24.990  0.00  0.00    +0.009 A 
ATOM     24  C   UNL     1       7.772   2.207  24.986  0.00  0.00    +0.046 A 
ATOM     25  C   UNL     1       8.276   3.379  24.430  0.00  0.00    +0.122 A 
ATOM     26  C   UNL     1       9.540   3.326  23.832  0.00  0.00    +0.046 A 
ATOM     27  C   UNL     1      10.287   2.135  23.807  0.00  0.00    +0.009 A 
BRANCH  25  28
ATOM     28  O   UNL     1       7.691   4.616  24.462  0.00  0.00    -0.475 OA
BRANCH  28  29
ATOM     29  C   UNL     1       6.886   5.128  23.372  0.00  0.00    +0.200 C 
ATOM     30  C   UNL     1       5.716   6.008  23.832  0.00  0.00    +0.067 C 
ATOM     31  C   UNL     1       6.526   4.021  22.377  0.00  0.00    +0.067 C 
BRANCH  29  32
ATOM     32  C   UNL     1       7.793   6.108  22.583  0.00  0.00    +0.348 C 
ATOM     33  O   UNL     1       8.758   6.692  23.058  0.00  0.00    -0.247 OA
BRANCH  32  34
ATOM     34  O   UNL     1       7.434   6.258  21.285  0.00  0.00    -0.478 OA
ATOM     35  H   UNL     1       7.745   5.481  20.771  0.00  0.00    +0.295 HD
ENDBRANCH  32  34
ENDBRANCH  29  32
ENDBRANCH  28  29
ENDBRANCH  25  28
ENDBRANCH  21  22
ENDBRANCH   2  21
TORSDOF 9
ENDMDL
MODEL 4
REMARK VINA RESULT:      -6.6      6.099     11.284
REMARK  Name = 
REMARK  12 active torsions:
REMARK  status: ('A' for Active; 'I' for Inactive)
REMARK    1  A    between atoms: C_1  and  C_2
REMARK    2  A    between atoms: C_3  and  C_17
REMARK    3  A    between atoms: C_5  and  C_7
REMARK    4  A    between atoms: C_10  and  C_13
REMARK    5  A    between atoms: N_19  and  C_20
REMARK    6  A    between atoms: C_20  and  C_21
REMARK    7  A    between atoms: C_24  and  O_25
REMARK    8  A    between atoms: O_25  and  C_26
REMARK    9  A    between atoms: C_26  and  C_27
REMARK   10  A    between atoms: C_26  and  C_28
REMARK   11  A    between atoms: C_26  and  C_29
REMARK   12  A    between atoms: C_29  and  O_30
REMARK                            x       y       z     vdW  Elec       q    Type
REMARK                         _______ _______ _______ _____ _____    ______ ____
ROOT
ATOM      1  C   UNL     1       9.674  -2.286  23.627  0.00  0.00    +0.253 C 
ATOM      2  N   UNL     1       9.733  -1.266  24.560  0.00  0.00    -0.307 N 
ATOM      3  H   UNL     1       9.031  -1.260  25.286  0.00  0.00    +0.149 HD
ATOM      4  O   UNL     1      10.398  -2.290  22.636  0.00  0.00    -0.270 OA
ENDROOT
BRANCH   1  10
ATOM      5  C   UNL     1       9.929  -4.923  25.583  0.00  0.00    +0.067 C 
ATOM      6  C   UNL     1       8.786  -4.446  24.756  0.00  0.00    +0.058 A 
ATOM      7  N   UNL     1       7.617  -5.211  24.822  0.00  0.00    -0.243 NA
ATOM      8  C   UNL     1       6.663  -4.687  24.081  0.00  0.00    +0.109 A 
ATOM      9  S   UNL     1       7.141  -3.285  23.221  0.00  0.00    -0.062 S 
ATOM     10  C   UNL     1       8.703  -3.329  23.930  0.00  0.00    +0.097 A 
BRANCH   8  11
ATOM     11  C   UNL     1       5.281  -5.198  23.993  0.00  0.00    +0.007 A 
ATOM     12  C   UNL     1       4.248  -4.347  23.565  0.00  0.00    +0.011 A 
ATOM     13  C   UNL     1       2.942  -4.827  23.401  0.00  0.00    +0.013 A 
ATOM     14  C   UNL     1       2.633  -6.167  23.656  0.00  0.00    +0.055 A 
ATOM     15  C   UNL     1       3.647  -7.011  24.120  0.00  0.00    +0.013 A 
ATOM     16  C   UNL     1       4.948  -6.532  24.286  0.00  0.00    +0.011 A 
BRANCH  14  17
ATOM     17  C   UNL     1       1.242  -6.702  23.414  0.00  0.00    +0.417 C 
ATOM     18  F   UNL     1       1.254  -7.945  22.861  0.00  0.00    -0.166 F 
ATOM     19  F   UNL     1       0.516  -5.918  22.572  0.00  0.00    -0.166 F 
ATOM     20  F   UNL     1       0.500  -6.811  24.554  0.00  0.00    -0.166 F 
ENDBRANCH  14  17
ENDBRANCH   8  11
ENDBRANCH   1  10
BRANCH   2  21
ATOM     21  C   UNL     1      10.588  -0.109  24.442  0.00  0.00    +0.139 C 
BRANCH  21  22
ATOM     22  C   UNL     1       9.766   1.148  24.286  0.00  0.00    -0.030 A 
ATOM     23  C   UNL     1       8.414   1.165  24.641  0.00  0.00    +0.009 A 
ATOM     24  C   UNL     1       7.653   2.342  24.542  0.00  0.00    +0.046 A 
ATOM     25  C   UNL     1       8.227   3.541  24.130  0.00  0.00    +0.122 A 
ATOM     26  C   UNL     1       9.580   3.526  23.771  0.00  0.00    +0.046 A 
ATOM     27  C   UNL     1      10.341   2.346  23.841  0.00  0.00    +0.009 A 
BRANCH  25  28
ATOM     28  O   UNL     1       7.623   4.768  24.098  0.00  0.00    -0.475 OA
BRANCH  28  29
ATOM     29  C   UNL     1       7.498   5.609  25.272  0.00  0.00    +0.200 C 
ATOM     30  C   UNL     1       7.461   4.823  26.589  0.00  0.00    +0.067 C 
ATOM     31  C   UNL     1       6.393   6.652  25.095  0.00  0.00    +0.067 C 
BRANCH  29  32
ATOM     32  C   UNL     1       8.816   6.421  25.367  0.00  0.00    +0.348 C 
ATOM     33  O   UNL     1       9.274   7.106  24.462  0.00  0.00    -0.247 OA
BRANCH  32  34
ATOM     34  O   UNL     1       9.429   6.325  26.572  0.00  0.00    -0.478 OA
ATOM     35  H   UNL     1       9.038   6.982  27.188  0.00  0.00    +0.295 HD
ENDBRANCH  32  34
ENDBRANCH  29  32
ENDBRANCH  28  29
ENDBRANCH  25  28
ENDBRANCH  21  22
ENDBRANCH   2  21
TORSDOF 9
ENDMDL
MODEL 5
REMARK VINA RESULT:      -6.6      1.868      2.850
REMARK  Name = 
REMARK  12 active torsions:
REMARK  status: ('A' for Active; 'I' for Inactive)
REMARK    1  A    between atoms: C_1  and  C_2
REMARK    2  A    between atoms: C_3  and  C_17
REMARK    3  A    between atoms: C_5  and  C_7
REMARK    4  A    between atoms: C_10  and  C_13
REMARK    5  A    between atoms: N_19  and  C_20
REMARK    6  A    between atoms: C_20  and  C_21
REMARK    7  A    between atoms: C_24  and  O_25
REMARK    8  A    between atoms: O_25  and  C_26
REMARK    9  A    between atoms: C_26  and  C_27
REMARK   10  A    between atoms: C_26  and  C_28
REMARK   11  A    between atoms: C_26  and  C_29
REMARK   12  A    between atoms: C_29  and  O_30
REMARK                            x       y       z     vdW  Elec       q    Type
REMARK                         _______ _______ _______ _____ _____    ______ ____
ROOT
ATOM      1  C   UNL     1       8.074  -3.373  23.597  0.00  0.00    +0.253 C 
ATOM      2  N   UNL     1       6.888  -3.456  22.889  0.00  0.00    -0.307 N 
ATOM      3  H   UNL     1       6.279  -2.650  22.909  0.00  0.00    +0.149 HD
ATOM      4  O   UNL     1       8.803  -4.351  23.742  0.00  0.00    -0.270 OA
ENDROOT
BRANCH   1  10
ATOM      5  C   UNL     1       8.444  -2.376  26.713  0.00  0.00    +0.067 C 
ATOM      6  C   UNL     1       8.537  -1.608  25.440  0.00  0.00    +0.058 A 
ATOM      7  N   UNL     1       8.854  -0.252  25.561  0.00  0.00    -0.243 NA
ATOM      8  C   UNL     1       8.942   0.324  24.380  0.00  0.00    +0.109 A 
ATOM      9  S   UNL     1       8.589  -0.721  23.069  0.00  0.00    -0.062 S 
ATOM     10  C   UNL     1       8.370  -2.051  24.132  0.00  0.00    +0.097 A 
BRANCH   8  11
ATOM     11  C   UNL     1       9.340   1.727  24.148  0.00  0.00    +0.007 A 
ATOM     12  C   UNL     1       8.538   2.770  24.640  0.00  0.00    +0.011 A 
ATOM     13  C   UNL     1       8.930   4.107  24.499  0.00  0.00    +0.013 A 
ATOM     14  C   UNL     1      10.133   4.438  23.867  0.00  0.00    +0.055 A 
ATOM     15  C   UNL     1      10.918   3.409  23.339  0.00  0.00    +0.013 A 
ATOM     16  C   UNL     1      10.525   2.076  23.478  0.00  0.00    +0.011 A 
BRANCH  14  17
ATOM     17  C   UNL     1      10.591   5.874  23.775  0.00  0.00    +0.417 C 
ATOM     18  F   UNL     1       9.675   6.673  23.163  0.00  0.00    -0.166 F 
ATOM     19  F   UNL     1      11.747   6.013  23.070  0.00  0.00    -0.166 F 
ATOM     20  F   UNL     1      10.825   6.444  24.992  0.00  0.00    -0.166 F 
ENDBRANCH  14  17
ENDBRANCH   8  11
ENDBRANCH   1  10
BRANCH   2  21
ATOM     21  C   UNL     1       6.374  -4.674  22.310  0.00  0.00    +0.139 C 
BRANCH  21  22
ATOM     22  C   UNL     1       5.170  -5.164  23.081  0.00  0.00    -0.030 A 
ATOM     23  C   UNL     1       5.080  -6.496  23.491  0.00  0.00    +0.009 A 
ATOM     24  C   UNL     1       3.985  -6.950  24.248  0.00  0.00    +0.046 A 
ATOM     25  C   UNL     1       2.977  -6.081  24.651  0.00  0.00    +0.122 A 
ATOM     26  C   UNL     1       3.064  -4.746  24.239  0.00  0.00    +0.046 A 
ATOM     27  C   UNL     1       4.141  -4.291  23.459  0.00  0.00    +0.009 A 
BRANCH  25  28
ATOM     28  O   UNL     1       1.925  -6.375  25.475  0.00  0.00    -0.475 OA
BRANCH  28  29
ATOM     29  C   UNL     1       1.966  -6.150  26.906  0.00  0.00    +0.200 C 
ATOM     30  C   UNL     1       1.055  -5.009  27.376  0.00  0.00    +0.067 C 
ATOM     31  C   UNL     1       3.407  -6.097  27.420  0.00  0.00    +0.067 C 
BRANCH  29  32
ATOM     32  C   UNL     1       1.343  -7.410  27.562  0.00  0.00    +0.348 C 
ATOM     33  O   UNL     1       0.700  -7.401  28.604  0.00  0.00    -0.247 OA
BRANCH  32  34
ATOM     34  O   UNL     1       1.558  -8.551  26.864  0.00  0.00    -0.478 OA
ATOM     35  H   UNL     1       0.726  -9.071  26.830  0.00  0.00    +0.295 HD
ENDBRANCH  32  34
ENDBRANCH  29  32
ENDBRANCH  28  29
ENDBRANCH  25  28
ENDBRANCH  21  22
ENDBRANCH   2  21
TORSDOF 9
ENDMDL
MODEL 6
REMARK VINA RESULT:      -6.6      6.353     10.795
REMARK  Name = 
REMARK  12 active torsions:
REMARK  status: ('A' for Active; 'I' for Inactive)
REMARK    1  A    between atoms: C_1  and  C_2
REMARK    2  A    between atoms: C_3  and  C_17
REMARK    3  A    between atoms: C_5  and  C_7
REMARK    4  A    between atoms: C_10  and  C_13
REMARK    5  A    between atoms: N_19  and  C_20
REMARK    6  A    between atoms: C_20  and  C_21
REMARK    7  A    between atoms: C_24  and  O_25
REMARK    8  A    between atoms: O_25  and  C_26
REMARK    9  A    between atoms: C_26  and  C_27
REMARK   10  A    between atoms: C_26  and  C_28
REMARK   11  A    between atoms: C_26  and  C_29
REMARK   12  A    between atoms: C_29  and  O_30
REMARK                            x       y       z     vdW  Elec       q    Type
REMARK                         _______ _______ _______ _____ _____    ______ ____
ROOT
ATOM      1  C   UNL     1       9.612  -2.477  23.806  0.00  0.00    +0.253 C 
ATOM      2  N   UNL     1       9.396  -1.287  24.478  0.00  0.00    -0.307 N 
ATOM      3  H   UNL     1       8.557  -1.215  25.037  0.00  0.00    +0.149 HD
ATOM      4  O   UNL     1      10.528  -2.598  22.997  0.00  0.00    -0.270 OA
ENDROOT
BRANCH   1  10
ATOM      5  C   UNL     1       9.842  -4.857  26.068  0.00  0.00    +0.067 C 
ATOM      6  C   UNL     1       8.752  -4.554  25.099  0.00  0.00    +0.058 A 
ATOM      7  N   UNL     1       7.629  -5.384  25.157  0.00  0.00    -0.243 NA
ATOM      8  C   UNL     1       6.716  -5.011  24.283  0.00  0.00    +0.109 A 
ATOM      9  S   UNL     1       7.188  -3.683  23.309  0.00  0.00    -0.062 S 
ATOM     10  C   UNL     1       8.680  -3.543  24.146  0.00  0.00    +0.097 A 
BRANCH   8  11
ATOM     11  C   UNL     1       5.380  -5.622  24.140  0.00  0.00    +0.007 A 
ATOM     12  C   UNL     1       4.994  -6.663  25.002  0.00  0.00    +0.011 A 
ATOM     13  C   UNL     1       3.706  -7.210  24.937  0.00  0.00    +0.013 A 
ATOM     14  C   UNL     1       2.769  -6.731  24.014  0.00  0.00    +0.055 A 
ATOM     15  C   UNL     1       3.158  -5.723  23.127  0.00  0.00    +0.013 A 
ATOM     16  C   UNL     1       4.443  -5.179  23.191  0.00  0.00    +0.011 A 
BRANCH  14  17
ATOM     17  C   UNL     1       1.359  -7.271  23.989  0.00  0.00    +0.417 C 
ATOM     18  F   UNL     1       0.630  -6.769  22.955  0.00  0.00    -0.166 F 
ATOM     19  F   UNL     1       0.664  -6.978  25.121  0.00  0.00    -0.166 F 
ATOM     20  F   UNL     1       1.304  -8.627  23.858  0.00  0.00    -0.166 F 
ENDBRANCH  14  17
ENDBRANCH   8  11
ENDBRANCH   1  10
BRANCH   2  21
ATOM     21  C   UNL     1      10.167  -0.085  24.266  0.00  0.00    +0.139 C 
BRANCH  21  22
ATOM     22  C   UNL     1       9.297   1.015  23.706  0.00  0.00    -0.030 A 
ATOM     23  C   UNL     1       8.277   0.725  22.796  0.00  0.00    +0.009 A 
ATOM     24  C   UNL     1       7.433   1.736  22.305  0.00  0.00    +0.046 A 
ATOM     25  C   UNL     1       7.555   3.053  22.739  0.00  0.00    +0.122 A 
ATOM     26  C   UNL     1       8.578   3.346  23.648  0.00  0.00    +0.046 A 
ATOM     27  C   UNL     1       9.444   2.345  24.123  0.00  0.00    +0.009 A 
BRANCH  25  28
ATOM     28  O   UNL     1       6.732   4.098  22.422  0.00  0.00    -0.475 OA
BRANCH  28  29
ATOM     29  C   UNL     1       5.466   4.326  23.088  0.00  0.00    +0.200 C 
ATOM     30  C   UNL     1       5.506   4.046  24.597  0.00  0.00    +0.067 C 
ATOM     31  C   UNL     1       4.310   3.672  22.328  0.00  0.00    +0.067 C 
BRANCH  29  32
ATOM     32  C   UNL     1       5.199   5.852  23.006  0.00  0.00    +0.348 C 
ATOM     33  O   UNL     1       5.516   6.657  23.872  0.00  0.00    -0.247 OA
BRANCH  32  34
ATOM     34  O   UNL     1       4.585   6.237  21.861  0.00  0.00    -0.478 OA
ATOM     35  H   UNL     1       3.631   6.008  21.912  0.00  0.00    +0.295 HD
ENDBRANCH  32  34
ENDBRANCH  29  32
ENDBRANCH  28  29
ENDBRANCH  25  28
ENDBRANCH  21  22
ENDBRANCH   2  21
TORSDOF 9
ENDMDL
MODEL 7
REMARK VINA RESULT:      -6.5      3.017      4.382
REMARK  Name = 
REMARK  12 active torsions:
REMARK  status: ('A' for Active; 'I' for Inactive)
REMARK    1  A    between atoms: C_1  and  C_2
REMARK    2  A    between atoms: C_3  and  C_17
REMARK    3  A    between atoms: C_5  and  C_7
REMARK    4  A    between atoms: C_10  and  C_13
REMARK    5  A    between atoms: N_19  and  C_20
REMARK    6  A    between atoms: C_20  and  C_21
REMARK    7  A    between atoms: C_24  and  O_25
REMARK    8  A    between atoms: O_25  and  C_26
REMARK    9  A    between atoms: C_26  and  C_27
REMARK   10  A    between atoms: C_26  and  C_28
REMARK   11  A    between atoms: C_26  and  C_29
REMARK   12  A    between atoms: C_29  and  O_30
REMARK                            x       y       z     vdW  Elec       q    Type
REMARK                         _______ _______ _______ _____ _____    ______ ____
ROOT
ATOM      1  C   UNL     1       5.073   1.231  26.314  0.00  0.00    +0.253 C 
ATOM      2  N   UNL     1       5.746   0.341  27.132  0.00  0.00    -0.307 N 
ATOM      3  H   UNL     1       6.750   0.437  27.195  0.00  0.00    +0.149 HD
ATOM      4  O   UNL     1       3.877   1.098  26.071  0.00  0.00    -0.270 OA
ENDROOT
BRANCH   1  10
ATOM      5  C   UNL     1       4.538   4.480  26.287  0.00  0.00    +0.067 C 
ATOM      6  C   UNL     1       5.693   3.691  25.774  0.00  0.00    +0.058 A 
ATOM      7  N   UNL     1       6.738   4.427  25.207  0.00  0.00    -0.243 NA
ATOM      8  C   UNL     1       7.718   3.638  24.816  0.00  0.00    +0.109 A 
ATOM      9  S   UNL     1       7.405   1.971  25.053  0.00  0.00    -0.062 S 
ATOM     10  C   UNL     1       5.894   2.314  25.791  0.00  0.00    +0.097 A 
BRANCH   8  11
ATOM     11  C   UNL     1       9.002   4.099  24.253  0.00  0.00    +0.007 A 
ATOM     12  C   UNL     1       9.297   5.472  24.221  0.00  0.00    +0.011 A 
ATOM     13  C   UNL     1      10.538   5.930  23.761  0.00  0.00    +0.013 A 
ATOM     14  C   UNL     1      11.517   5.032  23.323  0.00  0.00    +0.055 A 
ATOM     15  C   UNL     1      11.217   3.667  23.315  0.00  0.00    +0.013 A 
ATOM     16  C   UNL     1       9.979   3.210  23.771  0.00  0.00    +0.011 A 
BRANCH  14  17
ATOM     17  C   UNL     1      12.880   5.519  22.892  0.00  0.00    +0.417 C 
ATOM     18  F   UNL     1      13.176   6.748  23.399  0.00  0.00    -0.166 F 
ATOM     19  F   UNL     1      12.997   5.628  21.541  0.00  0.00    -0.166 F 
ATOM     20  F   UNL     1      13.896   4.700  23.290  0.00  0.00    -0.166 F 
ENDBRANCH  14  17
ENDBRANCH   8  11
ENDBRANCH   1  10
BRANCH   2  21
ATOM     21  C   UNL     1       5.144  -0.830  27.723  0.00  0.00    +0.139 C 
BRANCH  21  22
ATOM     22  C   UNL     1       5.461  -2.062  26.908  0.00  0.00    -0.030 A 
ATOM     23  C   UNL     1       4.520  -3.085  26.767  0.00  0.00    +0.009 A 
ATOM     24  C   UNL     1       4.789  -4.214  25.973  0.00  0.00    +0.046 A 
ATOM     25  C   UNL     1       5.982  -4.331  25.266  0.00  0.00    +0.122 A 
ATOM     26  C   UNL     1       6.927  -3.308  25.408  0.00  0.00    +0.046 A 
ATOM     27  C   UNL     1       6.676  -2.190  26.222  0.00  0.00    +0.009 A 
BRANCH  25  28
ATOM     28  O   UNL     1       6.313  -5.320  24.380  0.00  0.00    -0.475 OA
BRANCH  28  29
ATOM     29  C   UNL     1       5.762  -5.388  23.042  0.00  0.00    +0.200 C 
ATOM     30  C   UNL     1       6.578  -6.266  22.084  0.00  0.00    +0.067 C 
ATOM     31  C   UNL     1       5.402  -3.997  22.517  0.00  0.00    +0.067 C 
BRANCH  29  32
ATOM     32  C   UNL     1       4.411  -6.141  23.166  0.00  0.00    +0.348 C 
ATOM     33  O   UNL     1       3.340  -5.714  22.753  0.00  0.00    -0.247 OA
BRANCH  32  34
ATOM     34  O   UNL     1       4.514  -7.350  23.768  0.00  0.00    -0.478 OA
ATOM     35  H   UNL     1       3.898  -7.981  23.336  0.00  0.00    +0.295 HD
ENDBRANCH  32  34
ENDBRANCH  29  32
ENDBRANCH  28  29
ENDBRANCH  25  28
ENDBRANCH  21  22
ENDBRANCH   2  21
TORSDOF 9
ENDMDL
MODEL 8
REMARK VINA RESULT:      -6.5      3.772      5.346
REMARK  Name = 
REMARK  12 active torsions:
REMARK  status: ('A' for Active; 'I' for Inactive)
REMARK    1  A    between atoms: C_1  and  C_2
REMARK    2  A    between atoms: C_3  and  C_17
REMARK    3  A    between atoms: C_5  and  C_7
REMARK    4  A    between atoms: C_10  and  C_13
REMARK    5  A    between atoms: N_19  and  C_20
REMARK    6  A    between atoms: C_20  and  C_21
REMARK    7  A    between atoms: C_24  and  O_25
REMARK    8  A    between atoms: O_25  and  C_26
REMARK    9  A    between atoms: C_26  and  C_27
REMARK   10  A    between atoms: C_26  and  C_28
REMARK   11  A    between atoms: C_26  and  C_29
REMARK   12  A    between atoms: C_29  and  O_30
REMARK                            x       y       z     vdW  Elec       q    Type
REMARK                         _______ _______ _______ _____ _____    ______ ____
ROOT
ATOM      1  C   UNL     1       9.837   0.499  24.115  0.00  0.00    +0.253 C 
ATOM      2  N   UNL     1       9.611  -0.528  23.217  0.00  0.00    -0.307 N 
ATOM      3  H   UNL     1       8.904  -0.379  22.510  0.00  0.00    +0.149 HD
ATOM      4  O   UNL     1      10.573   0.348  25.087  0.00  0.00    -0.270 OA
ENDROOT
BRANCH   1  10
ATOM      5  C   UNL     1      11.040   3.490  23.449  0.00  0.00    +0.067 C 
ATOM      6  C   UNL     1       9.630   3.013  23.513  0.00  0.00    +0.058 A 
ATOM      7  N   UNL     1       8.645   3.962  23.225  0.00  0.00    -0.243 NA
ATOM      8  C   UNL     1       7.441   3.430  23.278  0.00  0.00    +0.109 A 
ATOM      9  S   UNL     1       7.431   1.779  23.737  0.00  0.00    -0.062 S 
ATOM     10  C   UNL     1       9.145   1.742  23.803  0.00  0.00    +0.097 A 
BRANCH   8  11
ATOM     11  C   UNL     1       6.188   4.136  22.947  0.00  0.00    +0.007 A 
ATOM     12  C   UNL     1       5.028   3.398  22.655  0.00  0.00    +0.011 A 
ATOM     13  C   UNL     1       3.809   4.042  22.411  0.00  0.00    +0.013 A 
ATOM     14  C   UNL     1       3.712   5.437  22.455  0.00  0.00    +0.055 A 
ATOM     15  C   UNL     1       4.870   6.180  22.707  0.00  0.00    +0.013 A 
ATOM     16  C   UNL     1       6.086   5.538  22.947  0.00  0.00    +0.011 A 
BRANCH  14  17
ATOM     17  C   UNL     1       2.385   6.129  22.261  0.00  0.00    +0.417 C 
ATOM     18  F   UNL     1       2.397   6.988  21.205  0.00  0.00    -0.166 F 
ATOM     19  F   UNL     1       2.012   6.864  23.344  0.00  0.00    -0.166 F 
ATOM     20  F   UNL     1       1.356   5.265  22.024  0.00  0.00    -0.166 F 
ENDBRANCH  14  17
ENDBRANCH   8  11
ENDBRANCH   1  10
BRANCH   2  21
ATOM     21  C   UNL     1      10.156  -1.858  23.352  0.00  0.00    +0.139 C 
BRANCH  21  22
ATOM     22  C   UNL     1       9.050  -2.875  23.507  0.00  0.00    -0.030 A 
ATOM     23  C   UNL     1       8.015  -2.951  22.571  0.00  0.00    +0.009 A 
ATOM     24  C   UNL     1       7.007  -3.925  22.683  0.00  0.00    +0.046 A 
ATOM     25  C   UNL     1       7.027  -4.872  23.701  0.00  0.00    +0.122 A 
ATOM     26  C   UNL     1       8.062  -4.796  24.641  0.00  0.00    +0.046 A 
ATOM     27  C   UNL     1       9.059  -3.808  24.552  0.00  0.00    +0.009 A 
BRANCH  25  28
ATOM     28  O   UNL     1       6.172  -5.929  23.853  0.00  0.00    -0.475 OA
BRANCH  28  29
ATOM     29  C   UNL     1       4.980  -5.859  24.673  0.00  0.00    +0.200 C 
ATOM     30  C   UNL     1       4.252  -4.510  24.585  0.00  0.00    +0.067 C 
ATOM     31  C   UNL     1       5.246  -6.372  26.089  0.00  0.00    +0.067 C 
BRANCH  29  32
ATOM     32  C   UNL     1       3.968  -6.861  24.058  0.00  0.00    +0.348 C 
ATOM     33  O   UNL     1       3.588  -7.886  24.609  0.00  0.00    -0.247 OA
BRANCH  32  34
ATOM     34  O   UNL     1       3.512  -6.494  22.836  0.00  0.00    -0.478 OA
ATOM     35  H   UNL     1       3.501  -5.514  22.775  0.00  0.00    +0.295 HD
ENDBRANCH  32  34
ENDBRANCH  29  32
ENDBRANCH  28  29
ENDBRANCH  25  28
ENDBRANCH  21  22
ENDBRANCH   2  21
TORSDOF 9
ENDMDL
MODEL 9
REMARK VINA RESULT:      -6.5      2.077      2.805
REMARK  Name = 
REMARK  12 active torsions:
REMARK  status: ('A' for Active; 'I' for Inactive)
REMARK    1  A    between atoms: C_1  and  C_2
REMARK    2  A    between atoms: C_3  and  C_17
REMARK    3  A    between atoms: C_5  and  C_7
REMARK    4  A    between atoms: C_10  and  C_13
REMARK    5  A    between atoms: N_19  and  C_20
REMARK    6  A    between atoms: C_20  and  C_21
REMARK    7  A    between atoms: C_24  and  O_25
REMARK    8  A    between atoms: O_25  and  C_26
REMARK    9  A    between atoms: C_26  and  C_27
REMARK   10  A    between atoms: C_26  and  C_28
REMARK   11  A    between atoms: C_26  and  C_29
REMARK   12  A    between atoms: C_29  and  O_30
REMARK                            x       y       z     vdW  Elec       q    Type
REMARK                         _______ _______ _______ _____ _____    ______ ____
ROOT
ATOM      1  C   UNL     1       6.251  -1.035  26.412  0.00  0.00    +0.253 C 
ATOM      2  N   UNL     1       6.869  -2.166  25.909  0.00  0.00    -0.307 N 
ATOM      3  H   UNL     1       7.462  -2.049  25.099  0.00  0.00    +0.149 HD
ATOM      4  O   UNL     1       5.407  -1.109  27.302  0.00  0.00    -0.270 OA
ENDROOT
BRANCH   1  10
ATOM      5  C   UNL     1       4.574   1.730  25.795  0.00  0.00    +0.067 C 
ATOM      6  C   UNL     1       6.004   1.396  25.545  0.00  0.00    +0.058 A 
ATOM      7  N   UNL     1       6.783   2.411  24.980  0.00  0.00    -0.243 NA
ATOM      8  C   UNL     1       8.033   2.023  24.831  0.00  0.00    +0.109 A 
ATOM      9  S   UNL     1       8.320   0.402  25.304  0.00  0.00    -0.062 S 
ATOM     10  C   UNL     1       6.690   0.215  25.809  0.00  0.00    +0.097 A 
BRANCH   8  11
ATOM     11  C   UNL     1       9.132   2.878  24.341  0.00  0.00    +0.007 A 
ATOM     12  C   UNL     1       9.069   4.270  24.526  0.00  0.00    +0.011 A 
ATOM     13  C   UNL     1      10.132   5.096  24.138  0.00  0.00    +0.013 A 
ATOM     14  C   UNL     1      11.284   4.557  23.557  0.00  0.00    +0.055 A 
ATOM     15  C   UNL     1      11.338   3.178  23.332  0.00  0.00    +0.013 A 
ATOM     16  C   UNL     1      10.278   2.354  23.718  0.00  0.00    +0.011 A 
BRANCH  14  17
ATOM     17  C   UNL     1      12.458   5.437  23.201  0.00  0.00    +0.417 C 
ATOM     18  F   UNL     1      13.652   4.843  23.472  0.00  0.00    -0.166 F 
ATOM     19  F   UNL     1      12.457   6.615  23.880  0.00  0.00    -0.166 F 
ATOM     20  F   UNL     1      12.501   5.769  21.879  0.00  0.00    -0.166 F 
ENDBRANCH  14  17
ENDBRANCH   8  11
ENDBRANCH   1  10
BRANCH   2  21
ATOM     21  C   UNL     1       6.558  -3.513  26.326  0.00  0.00    +0.139 C 
BRANCH  21  22
ATOM     22  C   UNL     1       5.670  -4.194  25.310  0.00  0.00    -0.030 A 
ATOM     23  C   UNL     1       5.787  -5.565  25.066  0.00  0.00    +0.009 A 
ATOM     24  C   UNL     1       4.935  -6.215  24.157  0.00  0.00    +0.046 A 
ATOM     25  C   UNL     1       3.918  -5.527  23.502  0.00  0.00    +0.122 A 
ATOM     26  C   UNL     1       3.801  -4.153  23.743  0.00  0.00    +0.046 A 
ATOM     27  C   UNL     1       4.668  -3.490  24.629  0.00  0.00    +0.009 A 
BRANCH  25  28
ATOM     28  O   UNL     1       2.962  -6.065  22.684  0.00  0.00    -0.475 OA
BRANCH  28  29
ATOM     29  C   UNL     1       1.687  -6.541  23.180  0.00  0.00    +0.200 C 
ATOM     30  C   UNL     1       0.521  -6.300  22.211  0.00  0.00    +0.067 C 
ATOM     31  C   UNL     1       1.447  -6.091  24.623  0.00  0.00    +0.067 C 
BRANCH  29  32
ATOM     32  C   UNL     1       1.795  -8.086  23.246  0.00  0.00    +0.348 C 
ATOM     33  O   UNL     1       2.195  -8.711  24.220  0.00  0.00    -0.247 OA
BRANCH  32  34
ATOM     34  O   UNL     1       1.383  -8.710  22.116  0.00  0.00    -0.478 OA
ATOM     35  H   UNL     1       2.166  -9.038  21.623  0.00  0.00    +0.295 HD
ENDBRANCH  32  34
ENDBRANCH  29  32
ENDBRANCH  28  29
ENDBRANCH  25  28
ENDBRANCH  21  22
ENDBRANCH   2  21
TORSDOF 9
ENDMDL
