MODEL 1
REMARK VINA RESULT:      -8.5      0.000      0.000
REMARK  Name = 
REMARK  7 active torsions:
REMARK  status: ('A' for Active; 'I' for Inactive)
REMARK    1  A    between atoms: C_1  and  C_2
REMARK    2  A    between atoms: C_2  and  O_3
REMARK    3  A    between atoms: O_3  and  C_4
REMARK    4  A    between atoms: C_10  and  N_12
REMARK    5  A    between atoms: C_13  and  C_15
REMARK    6  A    between atoms: C_24  and  N_30
REMARK    7  A    between atoms: C_31  and  C_33
REMARK                            x       y       z     vdW  Elec       q    Type
REMARK                         _______ _______ _______ _____ _____    ______ ____
ROOT
ATOM      1  C   UNL     1       6.437  -2.284  25.110  0.00  0.00    +0.183 C 
ATOM      2  N   UNL     1       7.545  -1.697  24.364  0.00  0.00    -0.204 N 
ATOM      3  C   UNL     1       8.138  -0.503  24.754  0.00  0.00    +0.253 C 
ATOM      4  C   UNL     1       8.756   0.355  23.621  0.00  0.00    +0.161 C 
ATOM      5  C   UNL     1      10.067  -0.172  23.029  0.00  0.00    +0.041 C 
ATOM      6  C   UNL     1       9.882  -1.433  22.184  0.00  0.00    +0.100 C 
ATOM      7  C   UNL     1       9.390  -2.512  23.105  0.00  0.00    +0.232 C 
ATOM      8  O   UNL     1      10.143  -3.130  23.855  0.00  0.00    -0.274 OA
ATOM      9  O   UNL     1       8.067  -0.092  25.915  0.00  0.00    -0.272 OA
ATOM     10  N   UNL     1       8.026  -2.496  23.304  0.00  0.00    -0.217 N 
ATOM     11  C   UNL     1       7.029  -2.758  22.280  0.00  0.00    +0.131 C 
ATOM     12  C   UNL     1       5.822  -3.455  22.908  0.00  0.00    +0.023 C 
ATOM     13  C   UNL     1       5.312  -2.694  24.137  0.00  0.00    +0.035 C 
ENDROOT
BRANCH   1  16
ATOM     14  N   UNL     1       5.842  -4.319  26.417  0.00  0.00    -0.304 N 
ATOM     15  H   UNL     1       5.021  -4.400  25.815  0.00  0.00    +0.149 HD
ATOM     16  C   UNL     1       6.819  -3.403  26.090  0.00  0.00    +0.236 C 
ATOM     17  O   UNL     1       7.899  -3.380  26.682  0.00  0.00    -0.274 OA
BRANCH  14  19
ATOM     18  C   UNL     1       5.353  -6.715  27.097  0.00  0.00    +0.331 C 
ATOM     19  C   UNL     1       6.105  -5.404  27.353  0.00  0.00    +0.152 C 
ATOM     20  C   UNL     1       5.724  -5.057  28.779  0.00  0.00    +0.149 C 
ATOM     21  C   UNL     1       5.089  -6.304  29.289  0.00  0.00    +0.311 C 
ATOM     22  O   UNL     1       4.612  -6.436  30.407  0.00  0.00    -0.251 OA
ATOM     23  O   UNL     1       5.146  -7.300  28.372  0.00  0.00    -0.433 OA
BRANCH  18  24
ATOM     24  O   UNL     1       4.098  -6.493  26.444  0.00  0.00    -0.340 OA
BRANCH  24  26
ATOM     25  C   UNL     1       4.578  -6.771  24.110  0.00  0.00    +0.034 C 
ATOM     26  C   UNL     1       3.933  -7.384  25.337  0.00  0.00    +0.161 C 
ENDBRANCH  24  26
ENDBRANCH  18  24
ENDBRANCH  14  19
ENDBRANCH   1  16
BRANCH   4  27
ATOM     27  N   UNL     1       8.955   1.709  24.129  0.00  0.00    -0.299 N 
ATOM     28  H   UNL     1       9.298   1.847  25.081  0.00  0.00    +0.150 HD
ATOM     29  C   UNL     1       8.568   2.837  23.429  0.00  0.00    +0.264 C 
ATOM     30  O   UNL     1       8.056   2.751  22.319  0.00  0.00    -0.268 OA
BRANCH  29  31
ATOM     31  C   UNL     1       8.821   4.145  24.151  0.00  0.00    +0.133 A 
ATOM     32  C   UNL     1      10.074   4.811  24.126  0.00  0.00    +0.013 A 
ATOM     33  C   UNL     1      10.128   6.050  24.814  0.00  0.00    -0.014 A 
ATOM     34  C   UNL     1      11.318   6.800  24.834  0.00  0.00    +0.008 A 
ATOM     35  C   UNL     1      12.469   6.337  24.199  0.00  0.00    +0.001 A 
ATOM     36  C   UNL     1      12.446   5.120  23.536  0.00  0.00    +0.001 A 
ATOM     37  C   UNL     1       8.995   6.529  25.482  0.00  0.00    +0.028 A 
ATOM     38  C   UNL     1       7.834   5.780  25.461  0.00  0.00    +0.112 A 
ATOM     39  C   UNL     1      11.267   4.370  23.496  0.00  0.00    +0.011 A 
ATOM     40  N   UNL     1       7.714   4.606  24.813  0.00  0.00    -0.250 NA
ENDBRANCH  29  31
ENDBRANCH   4  27
TORSDOF 6
ENDMDL
MODEL 2
REMARK VINA RESULT:      -8.3      2.451      4.357
REMARK  Name = 
REMARK  7 active torsions:
REMARK  status: ('A' for Active; 'I' for Inactive)
REMARK    1  A    between atoms: C_1  and  C_2
REMARK    2  A    between atoms: C_2  and  O_3
REMARK    3  A    between atoms: O_3  and  C_4
REMARK    4  A    between atoms: C_10  and  N_12
REMARK    5  A    between atoms: C_13  and  C_15
REMARK    6  A    between atoms: C_24  and  N_30
REMARK    7  A    between atoms: C_31  and  C_33
REMARK                            x       y       z     vdW  Elec       q    Type
REMARK                         _______ _______ _______ _____ _____    ______ ____
ROOT
ATOM      1  C   UNL     1       5.522  -4.065  22.614  0.00  0.00    +0.183 C 
ATOM      2  N   UNL     1       6.675  -3.791  23.464  0.00  0.00    -0.204 N 
ATOM      3  C   UNL     1       7.015  -2.498  23.842  0.00  0.00    +0.253 C 
ATOM      4  C   UNL     1       8.519  -2.237  24.109  0.00  0.00    +0.161 C 
ATOM      5  C   UNL     1       9.075  -2.827  25.408  0.00  0.00    +0.041 C 
ATOM      6  C   UNL     1       9.185  -4.352  25.380  0.00  0.00    +0.100 C 
ATOM      7  C   UNL     1       7.790  -4.892  25.252  0.00  0.00    +0.232 C 
ATOM      8  O   UNL     1       7.025  -4.971  26.211  0.00  0.00    -0.274 OA
ATOM      9  O   UNL     1       6.187  -1.584  23.843  0.00  0.00    -0.272 OA
ATOM     10  N   UNL     1       7.328  -4.943  23.954  0.00  0.00    -0.217 N 
ATOM     11  C   UNL     1       7.873  -5.788  22.906  0.00  0.00    +0.131 C 
ATOM     12  C   UNL     1       6.750  -6.226  21.967  0.00  0.00    +0.023 C 
ATOM     13  C   UNL     1       5.927  -5.029  21.479  0.00  0.00    +0.035 C 
ENDROOT
BRANCH   1  16
ATOM     14  N   UNL     1       3.602  -5.630  22.876  0.00  0.00    -0.304 N 
ATOM     15  H   UNL     1       4.111  -6.271  22.266  0.00  0.00    +0.149 HD
ATOM     16  C   UNL     1       4.249  -4.508  23.349  0.00  0.00    +0.236 C 
ATOM     17  O   UNL     1       3.741  -3.794  24.215  0.00  0.00    -0.274 OA
BRANCH  14  19
ATOM     18  C   UNL     1       2.546  -6.902  24.801  0.00  0.00    +0.331 C 
ATOM     19  C   UNL     1       2.377  -6.115  23.497  0.00  0.00    +0.152 C 
ATOM     20  C   UNL     1       1.606  -7.074  22.609  0.00  0.00    +0.149 C 
ATOM     21  C   UNL     1       1.145  -8.133  23.549  0.00  0.00    +0.311 C 
ATOM     22  O   UNL     1       0.504  -9.122  23.223  0.00  0.00    -0.251 OA
ATOM     23  O   UNL     1       1.485  -7.843  24.828  0.00  0.00    -0.433 OA
BRANCH  18  24
ATOM     24  O   UNL     1       3.807  -7.578  24.859  0.00  0.00    -0.340 OA
BRANCH  24  26
ATOM     25  C   UNL     1       3.713  -6.222  26.836  0.00  0.00    +0.034 C 
ATOM     26  C   UNL     1       4.569  -7.142  25.989  0.00  0.00    +0.161 C 
ENDBRANCH  24  26
ENDBRANCH  18  24
ENDBRANCH  14  19
ENDBRANCH   1  16
BRANCH   4  27
ATOM     27  N   UNL     1       8.745  -0.795  24.087  0.00  0.00    -0.299 N 
ATOM     28  H   UNL     1       8.412  -0.219  24.863  0.00  0.00    +0.150 HD
ATOM     29  C   UNL     1       9.269  -0.135  22.991  0.00  0.00    +0.264 C 
ATOM     30  O   UNL     1       9.599  -0.744  21.981  0.00  0.00    -0.268 OA
BRANCH  29  31
ATOM     31  C   UNL     1       9.380   1.368  23.155  0.00  0.00    +0.133 A 
ATOM     32  C   UNL     1       8.290   2.251  22.943  0.00  0.00    +0.013 A 
ATOM     33  C   UNL     1       8.550   3.623  23.186  0.00  0.00    -0.014 A 
ATOM     34  C   UNL     1       7.530   4.579  23.024  0.00  0.00    +0.008 A 
ATOM     35  C   UNL     1       6.256   4.205  22.604  0.00  0.00    +0.001 A 
ATOM     36  C   UNL     1       5.982   2.871  22.342  0.00  0.00    +0.001 A 
ATOM     37  C   UNL     1       9.827   4.032  23.585  0.00  0.00    +0.028 A 
ATOM     38  C   UNL     1      10.822   3.085  23.735  0.00  0.00    +0.112 A 
ATOM     39  C   UNL     1       6.981   1.908  22.512  0.00  0.00    +0.011 A 
ATOM     40  N   UNL     1      10.634   1.767  23.535  0.00  0.00    -0.250 NA
ENDBRANCH  29  31
ENDBRANCH   4  27
TORSDOF 6
ENDMDL
MODEL 3
REMARK VINA RESULT:      -8.3      2.263      3.735
REMARK  Name = 
REMARK  7 active torsions:
REMARK  status: ('A' for Active; 'I' for Inactive)
REMARK    1  A    between atoms: C_1  and  C_2
REMARK    2  A    between atoms: C_2  and  O_3
REMARK    3  A    between atoms: O_3  and  C_4
REMARK    4  A    between atoms: C_10  and  N_12
REMARK    5  A    between atoms: C_13  and  C_15
REMARK    6  A    between atoms: C_24  and  N_30
REMARK    7  A    between atoms: C_31  and  C_33
REMARK                            x       y       z     vdW  Elec       q    Type
REMARK                         _______ _______ _______ _____ _____    ______ ____
ROOT
ATOM      1  C   UNL     1       5.351  -3.555  23.103  0.00  0.00    +0.183 C 
ATOM      2  N   UNL     1       6.348  -3.164  24.094  0.00  0.00    -0.204 N 
ATOM      3  C   UNL     1       6.448  -1.858  24.556  0.00  0.00    +0.253 C 
ATOM      4  C   UNL     1       7.858  -1.400  25.009  0.00  0.00    +0.161 C 
ATOM      5  C   UNL     1       8.344  -1.972  26.344  0.00  0.00    +0.041 C 
ATOM      6  C   UNL     1       8.681  -3.462  26.274  0.00  0.00    +0.100 C 
ATOM      7  C   UNL     1       7.404  -4.188  25.962  0.00  0.00    +0.232 C 
ATOM      8  O   UNL     1       6.556  -4.425  26.820  0.00  0.00    -0.274 OA
ATOM      9  O   UNL     1       5.500  -1.073  24.491  0.00  0.00    -0.272 OA
ATOM     10  N   UNL     1       7.104  -4.236  24.617  0.00  0.00    -0.217 N 
ATOM     11  C   UNL     1       7.883  -4.938  23.612  0.00  0.00    +0.131 C 
ATOM     12  C   UNL     1       6.949  -5.482  22.531  0.00  0.00    +0.023 C 
ATOM     13  C   UNL     1       6.019  -4.390  21.991  0.00  0.00    +0.035 C 
ENDROOT
BRANCH   1  16
ATOM     14  N   UNL     1       3.578  -5.300  22.984  0.00  0.00    -0.304 N 
ATOM     15  H   UNL     1       4.183  -5.794  22.327  0.00  0.00    +0.149 HD
ATOM     16  C   UNL     1       4.082  -4.213  23.666  0.00  0.00    +0.236 C 
ATOM     17  O   UNL     1       3.455  -3.685  24.585  0.00  0.00    -0.274 OA
BRANCH  14  19
ATOM     18  C   UNL     1       2.542  -6.994  24.565  0.00  0.00    +0.331 C 
ATOM     19  C   UNL     1       2.368  -5.977  23.431  0.00  0.00    +0.152 C 
ATOM     20  C   UNL     1       1.709  -6.790  22.333  0.00  0.00    +0.149 C 
ATOM     21  C   UNL     1       1.291  -8.042  23.023  0.00  0.00    +0.311 C 
ATOM     22  O   UNL     1       0.739  -8.988  22.477  0.00  0.00    -0.251 OA
ATOM     23  O   UNL     1       1.555  -7.989  24.351  0.00  0.00    -0.433 OA
BRANCH  18  24
ATOM     24  O   UNL     1       3.847  -7.583  24.560  0.00  0.00    -0.340 OA
BRANCH  24  26
ATOM     25  C   UNL     1       3.647  -6.617  26.746  0.00  0.00    +0.034 C 
ATOM     26  C   UNL     1       4.599  -7.171  25.706  0.00  0.00    +0.161 C 
ENDBRANCH  24  26
ENDBRANCH  18  24
ENDBRANCH  14  19
ENDBRANCH   1  16
BRANCH   4  27
ATOM     27  N   UNL     1       7.869   0.059  25.066  0.00  0.00    -0.299 N 
ATOM     28  H   UNL     1       7.341   0.540  25.795  0.00  0.00    +0.150 HD
ATOM     29  C   UNL     1       8.453   0.842  24.088  0.00  0.00    +0.264 C 
ATOM     30  O   UNL     1       9.020   0.339  23.125  0.00  0.00    -0.268 OA
BRANCH  29  31
ATOM     31  C   UNL     1       8.315   2.335  24.311  0.00  0.00    +0.133 A 
ATOM     32  C   UNL     1       9.359   3.256  24.040  0.00  0.00    +0.013 A 
ATOM     33  C   UNL     1       9.049   4.622  24.257  0.00  0.00    -0.014 A 
ATOM     34  C   UNL     1      10.009   5.618  24.001  0.00  0.00    +0.008 A 
ATOM     35  C   UNL     1      11.285   5.286  23.550  0.00  0.00    +0.001 A 
ATOM     36  C   UNL     1      11.617   3.956  23.348  0.00  0.00    +0.001 A 
ATOM     37  C   UNL     1       7.784   4.985  24.735  0.00  0.00    +0.028 A 
ATOM     38  C   UNL     1       6.852   3.998  24.989  0.00  0.00    +0.112 A 
ATOM     39  C   UNL     1      10.670   2.957  23.584  0.00  0.00    +0.011 A 
ATOM     40  N   UNL     1       7.079   2.686  24.788  0.00  0.00    -0.250 NA
ENDBRANCH  29  31
ENDBRANCH   4  27
TORSDOF 6
ENDMDL
MODEL 4
REMARK VINA RESULT:      -8.0      0.922      2.011
REMARK  Name = 
REMARK  7 active torsions:
REMARK  status: ('A' for Active; 'I' for Inactive)
REMARK    1  A    between atoms: C_1  and  C_2
REMARK    2  A    between atoms: C_2  and  O_3
REMARK    3  A    between atoms: O_3  and  C_4
REMARK    4  A    between atoms: C_10  and  N_12
REMARK    5  A    between atoms: C_13  and  C_15
REMARK    6  A    between atoms: C_24  and  N_30
REMARK    7  A    between atoms: C_31  and  C_33
REMARK                            x       y       z     vdW  Elec       q    Type
REMARK                         _______ _______ _______ _____ _____    ______ ____
ROOT
ATOM      1  C   UNL     1       6.636  -1.906  25.117  0.00  0.00    +0.183 C 
ATOM      2  N   UNL     1       7.755  -1.352  24.362  0.00  0.00    -0.204 N 
ATOM      3  C   UNL     1       8.408  -0.194  24.764  0.00  0.00    +0.253 C 
ATOM      4  C   UNL     1       9.042   0.659  23.636  0.00  0.00    +0.161 C 
ATOM      5  C   UNL     1      10.317   0.088  23.009  0.00  0.00    +0.041 C 
ATOM      6  C   UNL     1      10.062  -1.146  22.143  0.00  0.00    +0.100 C 
ATOM      7  C   UNL     1       9.539  -2.221  23.052  0.00  0.00    +0.232 C 
ATOM      8  O   UNL     1      10.277  -2.888  23.775  0.00  0.00    -0.274 OA
ATOM      9  O   UNL     1       8.376   0.195  25.934  0.00  0.00    -0.272 OA
ATOM     10  N   UNL     1       8.181  -2.150  23.277  0.00  0.00    -0.217 N 
ATOM     11  C   UNL     1       7.155  -2.346  22.268  0.00  0.00    +0.131 C 
ATOM     12  C   UNL     1       5.930  -3.002  22.904  0.00  0.00    +0.023 C 
ATOM     13  C   UNL     1       5.476  -2.246  24.158  0.00  0.00    +0.035 C 
ENDROOT
BRANCH   1  16
ATOM     14  N   UNL     1       5.995  -3.980  26.338  0.00  0.00    -0.304 N 
ATOM     15  H   UNL     1       5.189  -4.034  25.714  0.00  0.00    +0.149 HD
ATOM     16  C   UNL     1       6.986  -3.060  26.067  0.00  0.00    +0.236 C 
ATOM     17  O   UNL     1       8.051  -3.065  26.686  0.00  0.00    -0.274 OA
BRANCH  14  19
ATOM     18  C   UNL     1       5.581  -6.431  26.849  0.00  0.00    +0.331 C 
ATOM     19  C   UNL     1       6.228  -5.098  27.242  0.00  0.00    +0.152 C 
ATOM     20  C   UNL     1       5.690  -4.848  28.639  0.00  0.00    +0.149 C 
ATOM     21  C   UNL     1       5.081  -6.152  29.021  0.00  0.00    +0.311 C 
ATOM     22  O   UNL     1       4.505  -6.368  30.078  0.00  0.00    -0.251 OA
ATOM     23  O   UNL     1       5.283  -7.093  28.068  0.00  0.00    -0.433 OA
BRANCH  18  24
ATOM     24  O   UNL     1       4.384  -6.240  26.086  0.00  0.00    -0.340 OA
BRANCH  24  26
ATOM     25  C   UNL     1       4.859  -6.395  23.740  0.00  0.00    +0.034 C 
ATOM     26  C   UNL     1       4.348  -7.127  24.963  0.00  0.00    +0.161 C 
ENDBRANCH  24  26
ENDBRANCH  18  24
ENDBRANCH  14  19
ENDBRANCH   1  16
BRANCH   4  27
ATOM     27  N   UNL     1       9.310   1.993  24.167  0.00  0.00    -0.299 N 
ATOM     28  H   UNL     1       9.761   2.093  25.078  0.00  0.00    +0.150 HD
ATOM     29  C   UNL     1       8.855   3.147  23.558  0.00  0.00    +0.264 C 
ATOM     30  O   UNL     1       8.218   3.105  22.512  0.00  0.00    -0.268 OA
BRANCH  29  31
ATOM     31  C   UNL     1       9.201   4.426  24.294  0.00  0.00    +0.133 A 
ATOM     32  C   UNL     1       8.465   4.899  25.410  0.00  0.00    +0.013 A 
ATOM     33  C   UNL     1       8.951   6.086  26.013  0.00  0.00    -0.014 A 
ATOM     34  C   UNL     1       8.303   6.628  27.139  0.00  0.00    +0.008 A 
ATOM     35  C   UNL     1       7.166   6.025  27.671  0.00  0.00    +0.001 A 
ATOM     36  C   UNL     1       6.660   4.874  27.088  0.00  0.00    +0.001 A 
ATOM     37  C   UNL     1      10.077   6.728  25.485  0.00  0.00    +0.028 A 
ATOM     38  C   UNL     1      10.700   6.190  24.376  0.00  0.00    +0.112 A 
ATOM     39  C   UNL     1       7.301   4.316  25.978  0.00  0.00    +0.011 A 
ATOM     40  N   UNL     1      10.298   5.058  23.768  0.00  0.00    -0.250 NA
ENDBRANCH  29  31
ENDBRANCH   4  27
TORSDOF 6
ENDMDL
MODEL 5
REMARK VINA RESULT:      -8.0      2.333      3.916
REMARK  Name = 
REMARK  7 active torsions:
REMARK  status: ('A' for Active; 'I' for Inactive)
REMARK    1  A    between atoms: C_1  and  C_2
REMARK    2  A    between atoms: C_2  and  O_3
REMARK    3  A    between atoms: O_3  and  C_4
REMARK    4  A    between atoms: C_10  and  N_12
REMARK    5  A    between atoms: C_13  and  C_15
REMARK    6  A    between atoms: C_24  and  N_30
REMARK    7  A    between atoms: C_31  and  C_33
REMARK                            x       y       z     vdW  Elec       q    Type
REMARK                         _______ _______ _______ _____ _____    ______ ____
ROOT
ATOM      1  C   UNL     1       5.438  -4.003  22.664  0.00  0.00    +0.183 C 
ATOM      2  N   UNL     1       6.683  -3.793  23.394  0.00  0.00    -0.204 N 
ATOM      3  C   UNL     1       7.089  -2.527  23.798  0.00  0.00    +0.253 C 
ATOM      4  C   UNL     1       8.619  -2.304  23.910  0.00  0.00    +0.161 C 
ATOM      5  C   UNL     1       9.301  -2.970  25.108  0.00  0.00    +0.041 C 
ATOM      6  C   UNL     1       9.376  -4.493  24.989  0.00  0.00    +0.100 C 
ATOM      7  C   UNL     1       7.964  -5.004  24.989  0.00  0.00    +0.232 C 
ATOM      8  O   UNL     1       7.307  -5.123  26.021  0.00  0.00    -0.274 OA
ATOM      9  O   UNL     1       6.286  -1.602  23.938  0.00  0.00    -0.272 OA
ATOM     10  N   UNL     1       7.362  -4.979  23.749  0.00  0.00    -0.217 N 
ATOM     11  C   UNL     1       7.771  -5.774  22.605  0.00  0.00    +0.131 C 
ATOM     12  C   UNL     1       6.542  -6.145  21.774  0.00  0.00    +0.023 C 
ATOM     13  C   UNL     1       5.696  -4.911  21.443  0.00  0.00    +0.035 C 
ENDROOT
BRANCH   1  16
ATOM     14  N   UNL     1       4.390  -4.430  24.882  0.00  0.00    -0.304 N 
ATOM     15  H   UNL     1       5.134  -3.858  25.284  0.00  0.00    +0.149 HD
ATOM     16  C   UNL     1       4.244  -4.466  23.512  0.00  0.00    +0.236 C 
ATOM     17  O   UNL     1       3.268  -5.003  22.985  0.00  0.00    -0.274 OA
BRANCH  14  19
ATOM     18  C   UNL     1       3.133  -4.057  27.056  0.00  0.00    +0.331 C 
ATOM     19  C   UNL     1       3.319  -4.867  25.768  0.00  0.00    +0.152 C 
ATOM     20  C   UNL     1       3.515  -6.284  26.274  0.00  0.00    +0.149 C 
ATOM     21  C   UNL     1       3.116  -6.206  27.706  0.00  0.00    +0.311 C 
ATOM     22  O   UNL     1       3.155  -7.142  28.493  0.00  0.00    -0.251 OA
ATOM     23  O   UNL     1       2.655  -4.973  28.027  0.00  0.00    -0.433 OA
BRANCH  18  24
ATOM     24  O   UNL     1       4.360  -3.464  27.497  0.00  0.00    -0.340 OA
BRANCH  24  26
ATOM     25  C   UNL     1       4.185  -1.192  26.747  0.00  0.00    +0.034 C 
ATOM     26  C   UNL     1       4.147  -2.121  27.943  0.00  0.00    +0.161 C 
ENDBRANCH  24  26
ENDBRANCH  18  24
ENDBRANCH  14  19
ENDBRANCH   1  16
BRANCH   4  27
ATOM     27  N   UNL     1       8.871  -0.866  23.938  0.00  0.00    -0.299 N 
ATOM     28  H   UNL     1       8.626  -0.326  24.770  0.00  0.00    +0.150 HD
ATOM     29  C   UNL     1       9.301  -0.159  22.831  0.00  0.00    +0.264 C 
ATOM     30  O   UNL     1       9.520  -0.720  21.764  0.00  0.00    -0.268 OA
BRANCH  29  31
ATOM     31  C   UNL     1       9.458   1.332  23.057  0.00  0.00    +0.133 A 
ATOM     32  C   UNL     1       8.402   2.259  22.859  0.00  0.00    +0.013 A 
ATOM     33  C   UNL     1       8.702   3.610  23.162  0.00  0.00    -0.014 A 
ATOM     34  C   UNL     1       7.718   4.606  23.017  0.00  0.00    +0.008 A 
ATOM     35  C   UNL     1       6.442   4.292  22.556  0.00  0.00    +0.001 A 
ATOM     36  C   UNL     1       6.131   2.980  22.235  0.00  0.00    +0.001 A 
ATOM     37  C   UNL     1       9.984   3.960  23.603  0.00  0.00    +0.028 A 
ATOM     38  C   UNL     1      10.943   2.975  23.735  0.00  0.00    +0.112 A 
ATOM     39  C   UNL     1       7.092   1.978  22.387  0.00  0.00    +0.011 A 
ATOM     40  N   UNL     1      10.716   1.673  23.479  0.00  0.00    -0.250 NA
ENDBRANCH  29  31
ENDBRANCH   4  27
TORSDOF 6
ENDMDL
MODEL 6
REMARK VINA RESULT:      -7.7      2.111      2.931
REMARK  Name = 
REMARK  7 active torsions:
REMARK  status: ('A' for Active; 'I' for Inactive)
REMARK    1  A    between atoms: C_1  and  C_2
REMARK    2  A    between atoms: C_2  and  O_3
REMARK    3  A    between atoms: O_3  and  C_4
REMARK    4  A    between atoms: C_10  and  N_12
REMARK    5  A    between atoms: C_13  and  C_15
REMARK    6  A    between atoms: C_24  and  N_30
REMARK    7  A    between atoms: C_31  and  C_33
REMARK                            x       y       z     vdW  Elec       q    Type
REMARK                         _______ _______ _______ _____ _____    ______ ____
ROOT
ATOM      1  C   UNL     1       5.221  -3.848  23.558  0.00  0.00    +0.183 C 
ATOM      2  N   UNL     1       6.523  -3.227  23.777  0.00  0.00    -0.204 N 
ATOM      3  C   UNL     1       6.653  -1.868  24.030  0.00  0.00    +0.253 C 
ATOM      4  C   UNL     1       7.979  -1.211  23.569  0.00  0.00    +0.161 C 
ATOM      5  C   UNL     1       9.213  -1.545  24.412  0.00  0.00    +0.041 C 
ATOM      6  C   UNL     1       9.688  -2.989  24.238  0.00  0.00    +0.100 C 
ATOM      7  C   UNL     1       8.592  -3.877  24.752  0.00  0.00    +0.232 C 
ATOM      8  O   UNL     1       8.420  -4.083  25.952  0.00  0.00    -0.274 OA
ATOM      9  O   UNL     1       5.719  -1.200  24.480  0.00  0.00    -0.272 OA
ATOM     10  N   UNL     1       7.603  -4.136  23.826  0.00  0.00    -0.217 N 
ATOM     11  C   UNL     1       7.786  -4.882  22.594  0.00  0.00    +0.131 C 
ATOM     12  C   UNL     1       6.510  -5.659  22.273  0.00  0.00    +0.023 C 
ATOM     13  C   UNL     1       5.276  -4.751  22.308  0.00  0.00    +0.035 C 
ENDROOT
BRANCH   1  16
ATOM     14  N   UNL     1       5.285  -4.442  25.976  0.00  0.00    -0.304 N 
ATOM     15  H   UNL     1       5.979  -3.700  26.085  0.00  0.00    +0.149 HD
ATOM     16  C   UNL     1       4.610  -4.551  24.779  0.00  0.00    +0.236 C 
ATOM     17  O   UNL     1       3.653  -5.316  24.651  0.00  0.00    -0.274 OA
BRANCH  14  19
ATOM     18  C   UNL     1       3.941  -4.225  28.117  0.00  0.00    +0.331 C 
ATOM     19  C   UNL     1       4.793  -5.091  27.184  0.00  0.00    +0.152 C 
ATOM     20  C   UNL     1       5.910  -5.581  28.086  0.00  0.00    +0.149 C 
ATOM     21  C   UNL     1       5.436  -5.235  29.455  0.00  0.00    +0.311 C 
ATOM     22  O   UNL     1       6.066  -5.438  30.483  0.00  0.00    -0.251 OA
ATOM     23  O   UNL     1       4.189  -4.705  29.429  0.00  0.00    -0.433 OA
BRANCH  18  24
ATOM     24  O   UNL     1       4.286  -2.838  28.025  0.00  0.00    -0.340 OA
BRANCH  24  26
ATOM     25  C   UNL     1       2.323  -1.714  28.822  0.00  0.00    +0.034 C 
ATOM     26  C   UNL     1       3.161  -2.058  27.608  0.00  0.00    +0.161 C 
ENDBRANCH  24  26
ENDBRANCH  18  24
ENDBRANCH  14  19
ENDBRANCH   1  16
BRANCH   4  27
ATOM     27  N   UNL     1       7.785   0.236  23.534  0.00  0.00    -0.299 N 
ATOM     28  H   UNL     1       7.262   0.694  24.282  0.00  0.00    +0.150 HD
ATOM     29  C   UNL     1       8.157   1.016  22.455  0.00  0.00    +0.264 C 
ATOM     30  O   UNL     1       8.700   0.525  21.473  0.00  0.00    -0.268 OA
BRANCH  29  31
ATOM     31  C   UNL     1       7.826   2.488  22.599  0.00  0.00    +0.133 A 
ATOM     32  C   UNL     1       8.781   3.460  22.997  0.00  0.00    +0.013 A 
ATOM     33  C   UNL     1       8.320   4.800  23.034  0.00  0.00    -0.014 A 
ATOM     34  C   UNL     1       9.193   5.841  23.398  0.00  0.00    +0.008 A 
ATOM     35  C   UNL     1      10.516   5.580  23.747  0.00  0.00    +0.001 A 
ATOM     36  C   UNL     1      10.985   4.275  23.736  0.00  0.00    +0.001 A 
ATOM     37  C   UNL     1       6.989   5.090  22.713  0.00  0.00    +0.028 A 
ATOM     38  C   UNL     1       6.139   4.058  22.364  0.00  0.00    +0.112 A 
ATOM     39  C   UNL     1      10.134   3.232  23.364  0.00  0.00    +0.011 A 
ATOM     40  N   UNL     1       6.520   2.769  22.294  0.00  0.00    -0.250 NA
ENDBRANCH  29  31
ENDBRANCH   4  27
TORSDOF 6
ENDMDL
MODEL 7
REMARK VINA RESULT:      -7.7      2.475     10.098
REMARK  Name = 
REMARK  7 active torsions:
REMARK  status: ('A' for Active; 'I' for Inactive)
REMARK    1  A    between atoms: C_1  and  C_2
REMARK    2  A    between atoms: C_2  and  O_3
REMARK    3  A    between atoms: O_3  and  C_4
REMARK    4  A    between atoms: C_10  and  N_12
REMARK    5  A    between atoms: C_13  and  C_15
REMARK    6  A    between atoms: C_24  and  N_30
REMARK    7  A    between atoms: C_31  and  C_33
REMARK                            x       y       z     vdW  Elec       q    Type
REMARK                         _______ _______ _______ _____ _____    ______ ____
ROOT
ATOM      1  C   UNL     1       7.892   2.001  24.180  0.00  0.00    +0.183 C 
ATOM      2  N   UNL     1       8.348   0.691  23.728  0.00  0.00    -0.204 N 
ATOM      3  C   UNL     1       7.627  -0.467  23.994  0.00  0.00    +0.253 C 
ATOM      4  C   UNL     1       8.452  -1.773  24.113  0.00  0.00    +0.161 C 
ATOM      5  C   UNL     1       8.991  -2.340  22.797  0.00  0.00    +0.041 C 
ATOM      6  C   UNL     1      10.119  -1.500  22.195  0.00  0.00    +0.100 C 
ATOM      7  C   UNL     1       9.534  -0.160  21.851  0.00  0.00    +0.232 C 
ATOM      8  O   UNL     1       8.863   0.024  20.838  0.00  0.00    -0.274 OA
ATOM      9  O   UNL     1       6.420  -0.436  24.243  0.00  0.00    -0.272 OA
ATOM     10  N   UNL     1       9.499   0.721  22.911  0.00  0.00    -0.217 N 
ATOM     11  C   UNL     1      10.665   1.274  23.577  0.00  0.00    +0.131 C 
ATOM     12  C   UNL     1      10.361   2.697  24.044  0.00  0.00    +0.023 C 
ATOM     13  C   UNL     1       9.059   2.757  24.850  0.00  0.00    +0.035 C 
ENDROOT
BRANCH   1  16
ATOM     14  N   UNL     1       6.295   3.818  23.587  0.00  0.00    -0.304 N 
ATOM     15  H   UNL     1       6.377   4.133  24.555  0.00  0.00    +0.149 HD
ATOM     16  C   UNL     1       7.158   2.845  23.128  0.00  0.00    +0.236 C 
ATOM     17  O   UNL     1       7.212   2.548  21.934  0.00  0.00    -0.274 OA
BRANCH  14  19
ATOM     18  C   UNL     1       6.146   6.026  22.345  0.00  0.00    +0.331 C 
ATOM     19  C   UNL     1       5.539   4.655  22.664  0.00  0.00    +0.152 C 
ATOM     20  C   UNL     1       4.154   4.997  23.180  0.00  0.00    +0.149 C 
ATOM     21  C   UNL     1       3.988   6.432  22.816  0.00  0.00    +0.311 C 
ATOM     22  O   UNL     1       3.004   7.108  23.082  0.00  0.00    -0.251 OA
ATOM     23  O   UNL     1       5.047   6.891  22.107  0.00  0.00    -0.433 OA
BRANCH  18  24
ATOM     24  O   UNL     1       6.942   6.524  23.426  0.00  0.00    -0.340 OA
BRANCH  24  26
ATOM     25  C   UNL     1       9.225   6.403  24.152  0.00  0.00    +0.034 C 
ATOM     26  C   UNL     1       8.293   6.741  23.007  0.00  0.00    +0.161 C 
ENDBRANCH  24  26
ENDBRANCH  18  24
ENDBRANCH  14  19
ENDBRANCH   1  16
BRANCH   4  27
ATOM     27  N   UNL     1       7.628  -2.776  24.780  0.00  0.00    -0.299 N 
ATOM     28  H   UNL     1       6.629  -2.605  24.910  0.00  0.00    +0.150 HD
ATOM     29  C   UNL     1       8.157  -3.904  25.379  0.00  0.00    +0.264 C 
ATOM     30  O   UNL     1       9.361  -4.131  25.354  0.00  0.00    -0.268 OA
BRANCH  29  31
ATOM     31  C   UNL     1       7.136  -4.796  26.057  0.00  0.00    +0.133 A 
ATOM     32  C   UNL     1       6.110  -5.474  25.348  0.00  0.00    +0.013 A 
ATOM     33  C   UNL     1       5.268  -6.306  26.126  0.00  0.00    -0.014 A 
ATOM     34  C   UNL     1       4.232  -7.038  25.517  0.00  0.00    +0.008 A 
ATOM     35  C   UNL     1       3.999  -6.946  24.147  0.00  0.00    +0.001 A 
ATOM     36  C   UNL     1       4.797  -6.123  23.367  0.00  0.00    +0.001 A 
ATOM     37  C   UNL     1       5.462  -6.400  27.510  0.00  0.00    +0.028 A 
ATOM     38  C   UNL     1       6.479  -5.672  28.098  0.00  0.00    +0.112 A 
ATOM     39  C   UNL     1       5.839  -5.402  23.956  0.00  0.00    +0.011 A 
ATOM     40  N   UNL     1       7.322  -4.877  27.411  0.00  0.00    -0.250 NA
ENDBRANCH  29  31
ENDBRANCH   4  27
TORSDOF 6
ENDMDL
MODEL 8
REMARK VINA RESULT:      -7.5      2.153     10.181
REMARK  Name = 
REMARK  7 active torsions:
REMARK  status: ('A' for Active; 'I' for Inactive)
REMARK    1  A    between atoms: C_1  and  C_2
REMARK    2  A    between atoms: C_2  and  O_3
REMARK    3  A    between atoms: O_3  and  C_4
REMARK    4  A    between atoms: C_10  and  N_12
REMARK    5  A    between atoms: C_13  and  C_15
REMARK    6  A    between atoms: C_24  and  N_30
REMARK    7  A    between atoms: C_31  and  C_33
REMARK                            x       y       z     vdW  Elec       q    Type
REMARK                         _______ _______ _______ _____ _____    ______ ____
ROOT
ATOM      1  C   UNL     1       8.325  -0.068  25.511  0.00  0.00    +0.183 C 
ATOM      2  N   UNL     1       7.843  -1.341  24.985  0.00  0.00    -0.204 N 
ATOM      3  C   UNL     1       6.872  -2.084  25.644  0.00  0.00    +0.253 C 
ATOM      4  C   UNL     1       6.931  -3.619  25.440  0.00  0.00    +0.161 C 
ATOM      5  C   UNL     1       6.471  -4.125  24.069  0.00  0.00    +0.041 C 
ATOM      6  C   UNL     1       7.447  -3.781  22.942  0.00  0.00    +0.100 C 
ATOM      7  C   UNL     1       7.484  -2.285  22.833  0.00  0.00    +0.232 C 
ATOM      8  O   UNL     1       6.605  -1.645  22.259  0.00  0.00    -0.274 OA
ATOM      9  O   UNL     1       6.088  -1.565  26.443  0.00  0.00    -0.272 OA
ATOM     10  N   UNL     1       8.356  -1.682  23.715  0.00  0.00    -0.217 N 
ATOM     11  C   UNL     1       9.800  -1.832  23.696  0.00  0.00    +0.131 C 
ATOM     12  C   UNL     1      10.456  -0.530  24.154  0.00  0.00    +0.023 C 
ATOM     13  C   UNL     1       9.867  -0.042  25.482  0.00  0.00    +0.035 C 
ENDROOT
BRANCH   1  16
ATOM     14  N   UNL     1       8.354   2.382  25.066  0.00  0.00    -0.304 N 
ATOM     15  H   UNL     1       9.337   2.366  25.339  0.00  0.00    +0.149 HD
ATOM     16  C   UNL     1       7.692   1.185  24.889  0.00  0.00    +0.236 C 
ATOM     17  O   UNL     1       6.561   1.144  24.402  0.00  0.00    -0.274 OA
BRANCH  14  19
ATOM     18  C   UNL     1       7.724   3.718  23.001  0.00  0.00    +0.331 C 
ATOM     19  C   UNL     1       7.821   3.627  24.529  0.00  0.00    +0.152 C 
ATOM     20  C   UNL     1       8.661   4.835  24.897  0.00  0.00    +0.149 C 
ATOM     21  C   UNL     1       8.688   5.641  23.646  0.00  0.00    +0.311 C 
ATOM     22  O   UNL     1       9.293   6.696  23.510  0.00  0.00    -0.251 OA
ATOM     23  O   UNL     1       7.917   5.086  22.680  0.00  0.00    -0.433 OA
BRANCH  18  24
ATOM     24  O   UNL     1       8.717   2.914  22.354  0.00  0.00    -0.340 OA
BRANCH  24  26
ATOM     25  C   UNL     1       9.037   0.782  21.302  0.00  0.00    +0.034 C 
ATOM     26  C   UNL     1       8.110   1.968  21.468  0.00  0.00    +0.161 C 
ENDBRANCH  24  26
ENDBRANCH  18  24
ENDBRANCH  14  19
ENDBRANCH   1  16
BRANCH   4  27
ATOM     27  N   UNL     1       6.136  -4.252  26.488  0.00  0.00    -0.299 N 
ATOM     28  H   UNL     1       5.323  -3.765  26.870  0.00  0.00    +0.150 HD
ATOM     29  C   UNL     1       6.508  -5.434  27.101  0.00  0.00    +0.264 C 
ATOM     30  O   UNL     1       7.526  -6.029  26.769  0.00  0.00    -0.268 OA
BRANCH  29  31
ATOM     31  C   UNL     1       5.569  -5.898  28.197  0.00  0.00    +0.133 A 
ATOM     32  C   UNL     1       4.269  -6.403  27.939  0.00  0.00    +0.013 A 
ATOM     33  C   UNL     1       3.539  -6.839  29.072  0.00  0.00    -0.014 A 
ATOM     34  C   UNL     1       2.246  -7.374  28.922  0.00  0.00    +0.008 A 
ATOM     35  C   UNL     1       1.650  -7.469  27.667  0.00  0.00    +0.001 A 
ATOM     36  C   UNL     1       2.337  -7.032  26.545  0.00  0.00    +0.001 A 
ATOM     37  C   UNL     1       4.102  -6.733  30.350  0.00  0.00    +0.028 A 
ATOM     38  C   UNL     1       5.369  -6.200  30.485  0.00  0.00    +0.112 A 
ATOM     39  C   UNL     1       3.626  -6.511  26.677  0.00  0.00    +0.011 A 
ATOM     40  N   UNL     1       6.119  -5.783  29.447  0.00  0.00    -0.250 NA
ENDBRANCH  29  31
ENDBRANCH   4  27
TORSDOF 6
ENDMDL
MODEL 9
REMARK VINA RESULT:      -7.5      2.416      3.466
REMARK  Name = 
REMARK  7 active torsions:
REMARK  status: ('A' for Active; 'I' for Inactive)
REMARK    1  A    between atoms: C_1  and  C_2
REMARK    2  A    between atoms: C_2  and  O_3
REMARK    3  A    between atoms: O_3  and  C_4
REMARK    4  A    between atoms: C_10  and  N_12
REMARK    5  A    between atoms: C_13  and  C_15
REMARK    6  A    between atoms: C_24  and  N_30
REMARK    7  A    between atoms: C_31  and  C_33
REMARK                            x       y       z     vdW  Elec       q    Type
REMARK                         _______ _______ _______ _____ _____    ______ ____
ROOT
ATOM      1  C   UNL     1       5.318  -4.165  22.741  0.00  0.00    +0.183 C 
ATOM      2  N   UNL     1       6.400  -3.800  23.648  0.00  0.00    -0.204 N 
ATOM      3  C   UNL     1       6.498  -2.527  24.196  0.00  0.00    +0.253 C 
ATOM      4  C   UNL     1       7.929  -2.036  24.532  0.00  0.00    +0.161 C 
ATOM      5  C   UNL     1       8.580  -2.678  25.760  0.00  0.00    +0.041 C 
ATOM      6  C   UNL     1       8.967  -4.141  25.540  0.00  0.00    +0.100 C 
ATOM      7  C   UNL     1       7.694  -4.904  25.309  0.00  0.00    +0.232 C 
ATOM      8  O   UNL     1       6.954  -5.243  26.231  0.00  0.00    -0.274 OA
ATOM      9  O   UNL     1       5.517  -1.785  24.292  0.00  0.00    -0.272 OA
ATOM     10  N   UNL     1       7.252  -4.868  24.004  0.00  0.00    -0.217 N 
ATOM     11  C   UNL     1       7.943  -5.458  22.871  0.00  0.00    +0.131 C 
ATOM     12  C   UNL     1       6.921  -5.966  21.856  0.00  0.00    +0.023 C 
ATOM     13  C   UNL     1       5.894  -4.884  21.503  0.00  0.00    +0.035 C 
ENDROOT
BRANCH   1  16
ATOM     14  N   UNL     1       3.979  -4.796  24.744  0.00  0.00    -0.304 N 
ATOM     15  H   UNL     1       4.434  -4.019  25.226  0.00  0.00    +0.149 HD
ATOM     16  C   UNL     1       4.146  -4.922  23.381  0.00  0.00    +0.236 C 
ATOM     17  O   UNL     1       3.491  -5.737  22.729  0.00  0.00    -0.274 OA
BRANCH  14  19
ATOM     18  C   UNL     1       2.039  -4.637  26.372  0.00  0.00    +0.331 C 
ATOM     19  C   UNL     1       2.907  -5.492  25.443  0.00  0.00    +0.152 C 
ATOM     20  C   UNL     1       3.417  -6.591  26.356  0.00  0.00    +0.149 C 
ATOM     21  C   UNL     1       2.573  -6.455  27.576  0.00  0.00    +0.311 C 
ATOM     22  O   UNL     1       2.684  -7.146  28.580  0.00  0.00    -0.251 OA
ATOM     23  O   UNL     1       1.628  -5.497  27.422  0.00  0.00    -0.433 OA
BRANCH  18  24
ATOM     24  O   UNL     1       2.761  -3.520  26.902  0.00  0.00    -0.340 OA
BRANCH  24  26
ATOM     25  C   UNL     1       0.908  -2.045  26.523  0.00  0.00    +0.034 C 
ATOM     26  C   UNL     1       1.877  -2.599  27.547  0.00  0.00    +0.161 C 
ENDBRANCH  24  26
ENDBRANCH  18  24
ENDBRANCH  14  19
ENDBRANCH   1  16
BRANCH   4  27
ATOM     27  N   UNL     1       7.888  -0.586  24.699  0.00  0.00    -0.299 N 
ATOM     28  H   UNL     1       7.588  -0.188  25.591  0.00  0.00    +0.150 HD
ATOM     29  C   UNL     1       8.102   0.296  23.656  0.00  0.00    +0.264 C 
ATOM     30  O   UNL     1       8.367  -0.106  22.530  0.00  0.00    -0.268 OA
BRANCH  29  31
ATOM     31  C   UNL     1       7.969   1.759  24.030  0.00  0.00    +0.133 A 
ATOM     32  C   UNL     1       9.030   2.690  23.895  0.00  0.00    +0.013 A 
ATOM     33  C   UNL     1       8.725   4.030  24.244  0.00  0.00    -0.014 A 
ATOM     34  C   UNL     1       9.702   5.035  24.129  0.00  0.00    +0.008 A 
ATOM     35  C   UNL     1      10.990   4.736  23.690  0.00  0.00    +0.001 A 
ATOM     36  C   UNL     1      11.319   3.430  23.362  0.00  0.00    +0.001 A 
ATOM     37  C   UNL     1       7.446   4.356  24.711  0.00  0.00    +0.028 A 
ATOM     38  C   UNL     1       6.496   3.359  24.827  0.00  0.00    +0.112 A 
ATOM     39  C   UNL     1      10.355   2.423  23.458  0.00  0.00    +0.011 A 
ATOM     40  N   UNL     1       6.720   2.073  24.497  0.00  0.00    -0.250 NA
ENDBRANCH  29  31
ENDBRANCH   4  27
TORSDOF 6
ENDMDL
