MODEL 1
REMARK VINA RESULT:      -6.8      0.000      0.000
REMARK  Name = 
REMARK  8 active torsions:
REMARK  status: ('A' for Active; 'I' for Inactive)
REMARK    1  A    between atoms: CA_2  and  N_3
REMARK    2  A    between atoms: CA_2  and  C_4
REMARK    3  A    between atoms: CA_2  and  C_23
REMARK    4  A    between atoms: C_4  and  C_5
REMARK    5  A    between atoms: C_12  and  N_13
REMARK    6  A    between atoms: N_13  and  N_14
REMARK    7  A    between atoms: N_14  and  C_15
REMARK    8  A    between atoms: C_21  and  O_22
REMARK                            x       y       z     vdW  Elec       q    Type
REMARK                         _______ _______ _______ _____ _____    ______ ____
ROOT
ATOM      1  C   UNL     1       8.424  -2.899  23.737  0.00  0.00    -0.020 A 
ATOM      2  C   UNL     1       8.859  -1.669  23.145  0.00  0.00    +0.007 A 
ATOM      3  C   UNL     1       8.942  -1.187  21.823  0.00  0.00    +0.012 A 
ATOM      4  C   UNL     1       9.422   0.107  21.586  0.00  0.00    +0.029 A 
ATOM      5  C   UNL     1       9.831   0.932  22.636  0.00  0.00    +0.088 A 
ATOM      6  C   UNL     1       9.719   0.472  23.959  0.00  0.00    +0.163 A 
ATOM      7  C   UNL     1       9.252  -0.824  24.182  0.00  0.00    +0.091 A 
ATOM      8  N   UNL     1       9.055  -1.502  25.360  0.00  0.00    -0.358 N 
ATOM      9  H   UNL     1       9.244  -1.105  26.272  0.00  0.00    +0.165 HD
ATOM     10  C   UNL     1       8.569  -2.756  25.106  0.00  0.00    +0.087 A 
ENDROOT
BRANCH   6  11
ATOM     11  O   UNL     1      10.019   1.292  25.016  0.00  0.00    -0.503 OA
ATOM     12  H   UNL     1      10.999   1.236  25.080  0.00  0.00    +0.292 HD
ENDBRANCH   6  11
BRANCH   5  13
ATOM     13  N   UNL     1      10.227   2.262  22.319  0.00  0.00    -0.263 N 
ATOM     14  H   UNL     1      10.222   2.330  21.293  0.00  0.00    +0.170 HD
BRANCH  13  15
ATOM     15  N   UNL     1       9.630   3.363  22.908  0.00  0.00    -0.266 N 
ATOM     16  H   UNL     1       9.013   3.064  23.680  0.00  0.00    +0.170 HD
BRANCH  15  17
ATOM     17  C   UNL     1      10.468   4.372  23.462  0.00  0.00    +0.044 A 
ATOM     18  C   UNL     1       9.947   5.459  24.176  0.00  0.00    +0.024 A 
ATOM     19  C   UNL     1      10.791   6.455  24.674  0.00  0.00    +0.002 A 
ATOM     20  C   UNL     1      12.163   6.378  24.447  0.00  0.00    +0.000 A 
ATOM     21  C   UNL     1      12.688   5.322  23.705  0.00  0.00    +0.002 A 
ATOM     22  C   UNL     1      11.842   4.332  23.199  0.00  0.00    +0.024 A 
ENDBRANCH  15  17
ENDBRANCH  13  15
ENDBRANCH   5  13
BRANCH   1  23
ATOM     23  C   UNL     1       7.889  -4.108  23.026  0.00  0.00    +0.063 C 
BRANCH  23  24
ATOM     24  CA  UNL     1       6.409  -4.397  23.314  0.00  0.00    +0.119 C 
BRANCH  24  25
ATOM     25  N   UNL     1       6.091  -5.815  23.026  0.00  0.00    -0.321 NA
ATOM     26  H1  UNL     1       5.725  -5.863  22.071  0.00  0.00    +0.119 HD
ATOM     27  H2  UNL     1       6.973  -6.331  22.961  0.00  0.00    +0.119 HD
ENDBRANCH  24  25
BRANCH  24  28
ATOM     28  C   UNL     1       5.517  -3.487  22.471  0.00  0.00    +0.242 C 
ATOM     29  O   UNL     1       5.545  -3.447  21.242  0.00  0.00    -0.299 OA
ENDBRANCH  24  28
ENDBRANCH  23  24
ENDBRANCH   1  23
TORSDOF 8
ENDMDL
MODEL 2
REMARK VINA RESULT:      -6.7      3.018      4.421
REMARK  Name = 
REMARK  8 active torsions:
REMARK  status: ('A' for Active; 'I' for Inactive)
REMARK    1  A    between atoms: CA_2  and  N_3
REMARK    2  A    between atoms: CA_2  and  C_4
REMARK    3  A    between atoms: CA_2  and  C_23
REMARK    4  A    between atoms: C_4  and  C_5
REMARK    5  A    between atoms: C_12  and  N_13
REMARK    6  A    between atoms: N_13  and  N_14
REMARK    7  A    between atoms: N_14  and  C_15
REMARK    8  A    between atoms: C_21  and  O_22
REMARK                            x       y       z     vdW  Elec       q    Type
REMARK                         _______ _______ _______ _____ _____    ______ ____
ROOT
ATOM      1  C   UNL     1       6.347  -4.697  26.304  0.00  0.00    -0.020 A 
ATOM      2  C   UNL     1       6.727  -4.007  25.108  0.00  0.00    +0.007 A 
ATOM      3  C   UNL     1       6.019  -3.348  24.083  0.00  0.00    +0.012 A 
ATOM      4  C   UNL     1       6.721  -2.754  23.027  0.00  0.00    +0.029 A 
ATOM      5  C   UNL     1       8.115  -2.808  22.961  0.00  0.00    +0.088 A 
ATOM      6  C   UNL     1       8.829  -3.434  23.996  0.00  0.00    +0.163 A 
ATOM      7  C   UNL     1       8.119  -4.034  25.037  0.00  0.00    +0.091 A 
ATOM      8  N   UNL     1       8.574  -4.700  26.149  0.00  0.00    -0.358 N 
ATOM      9  H   UNL     1       9.555  -4.844  26.352  0.00  0.00    +0.165 HD
ATOM     10  C   UNL     1       7.516  -5.115  26.913  0.00  0.00    +0.087 A 
ENDROOT
BRANCH   6  11
ATOM     11  O   UNL     1      10.200  -3.419  24.012  0.00  0.00    -0.503 OA
ATOM     12  H   UNL     1      10.418  -3.203  24.946  0.00  0.00    +0.292 HD
ENDBRANCH   6  11
BRANCH   5  13
ATOM     13  N   UNL     1       8.757  -2.109  21.901  0.00  0.00    -0.263 N 
ATOM     14  H   UNL     1       8.065  -1.445  21.529  0.00  0.00    +0.170 HD
BRANCH  13  15
ATOM     15  N   UNL     1       9.998  -1.517  22.061  0.00  0.00    -0.266 N 
ATOM     16  H   UNL     1      10.501  -1.494  21.159  0.00  0.00    +0.170 HD
BRANCH  15  17
ATOM     17  C   UNL     1      10.053  -0.185  22.559  0.00  0.00    +0.044 A 
ATOM     18  C   UNL     1       9.727   0.920  21.760  0.00  0.00    +0.024 A 
ATOM     19  C   UNL     1       9.829   2.218  22.265  0.00  0.00    +0.002 A 
ATOM     20  C   UNL     1      10.274   2.422  23.569  0.00  0.00    +0.000 A 
ATOM     21  C   UNL     1      10.637   1.333  24.360  0.00  0.00    +0.002 A 
ATOM     22  C   UNL     1      10.544   0.036  23.851  0.00  0.00    +0.024 A 
ENDBRANCH  15  17
ENDBRANCH  13  15
ENDBRANCH   5  13
BRANCH   1  23
ATOM     23  C   UNL     1       4.954  -4.910  26.823  0.00  0.00    +0.063 C 
BRANCH  23  24
ATOM     24  CA  UNL     1       4.419  -6.333  26.608  0.00  0.00    +0.119 C 
BRANCH  24  25
ATOM     25  N   UNL     1       5.047  -7.275  27.564  0.00  0.00    -0.321 NA
ATOM     26  H1  UNL     1       4.431  -8.089  27.648  0.00  0.00    +0.119 HD
ATOM     27  H2  UNL     1       5.884  -7.664  27.121  0.00  0.00    +0.119 HD
ENDBRANCH  24  25
BRANCH  24  28
ATOM     28  C   UNL     1       4.692  -6.792  25.177  0.00  0.00    +0.242 C 
ATOM     29  O   UNL     1       4.014  -7.630  24.584  0.00  0.00    -0.299 OA
ENDBRANCH  24  28
ENDBRANCH  23  24
ENDBRANCH   1  23
TORSDOF 8
ENDMDL
MODEL 3
REMARK VINA RESULT:      -6.7      2.788      3.808
REMARK  Name = 
REMARK  8 active torsions:
REMARK  status: ('A' for Active; 'I' for Inactive)
REMARK    1  A    between atoms: CA_2  and  N_3
REMARK    2  A    between atoms: CA_2  and  C_4
REMARK    3  A    between atoms: CA_2  and  C_23
REMARK    4  A    between atoms: C_4  and  C_5
REMARK    5  A    between atoms: C_12  and  N_13
REMARK    6  A    between atoms: N_13  and  N_14
REMARK    7  A    between atoms: N_14  and  C_15
REMARK    8  A    between atoms: C_21  and  O_22
REMARK                            x       y       z     vdW  Elec       q    Type
REMARK                         _______ _______ _______ _____ _____    ______ ____
ROOT
ATOM      1  C   UNL     1       7.612  -3.419  24.435  0.00  0.00    -0.020 A 
ATOM      2  C   UNL     1       8.332  -2.198  24.229  0.00  0.00    +0.007 A 
ATOM      3  C   UNL     1       8.891  -1.228  25.085  0.00  0.00    +0.012 A 
ATOM      4  C   UNL     1       9.555  -0.123  24.539  0.00  0.00    +0.029 A 
ATOM      5  C   UNL     1       9.668   0.046  23.158  0.00  0.00    +0.088 A 
ATOM      6  C   UNL     1       9.143  -0.934  22.299  0.00  0.00    +0.163 A 
ATOM      7  C   UNL     1       8.472  -2.025  22.853  0.00  0.00    +0.091 A 
ATOM      8  N   UNL     1       7.875  -3.100  22.241  0.00  0.00    -0.358 N 
ATOM      9  H   UNL     1       7.853  -3.230  21.237  0.00  0.00    +0.165 HD
ATOM     10  C   UNL     1       7.343  -3.941  23.181  0.00  0.00    +0.087 A 
ENDROOT
BRANCH   6  11
ATOM     11  O   UNL     1       9.323  -0.848  20.942  0.00  0.00    -0.503 OA
ATOM     12  H   UNL     1      10.282  -0.654  20.848  0.00  0.00    +0.292 HD
ENDBRANCH   6  11
BRANCH   5  13
ATOM     13  N   UNL     1      10.430   1.151  22.684  0.00  0.00    -0.263 N 
ATOM     14  H   UNL     1      11.267   0.757  22.234  0.00  0.00    +0.170 HD
BRANCH  13  15
ATOM     15  N   UNL     1       9.863   2.155  21.918  0.00  0.00    -0.266 N 
ATOM     16  H   UNL     1       9.630   1.797  20.978  0.00  0.00    +0.170 HD
BRANCH  15  17
ATOM     17  C   UNL     1       8.673   2.778  22.392  0.00  0.00    +0.044 A 
ATOM     18  C   UNL     1       7.430   2.562  21.782  0.00  0.00    +0.024 A 
ATOM     19  C   UNL     1       6.287   3.218  22.245  0.00  0.00    +0.002 A 
ATOM     20  C   UNL     1       6.382   4.109  23.311  0.00  0.00    +0.000 A 
ATOM     21  C   UNL     1       7.620   4.360  23.900  0.00  0.00    +0.002 A 
ATOM     22  C   UNL     1       8.765   3.711  23.431  0.00  0.00    +0.024 A 
ENDBRANCH  15  17
ENDBRANCH  13  15
ENDBRANCH   5  13
BRANCH   1  23
ATOM     23  C   UNL     1       7.238  -4.040  25.750  0.00  0.00    +0.063 C 
BRANCH  23  24
ATOM     24  CA  UNL     1       8.085  -5.264  26.125  0.00  0.00    +0.119 C 
BRANCH  24  25
ATOM     25  N   UNL     1       7.706  -5.766  27.468  0.00  0.00    -0.321 NA
ATOM     26  H1  UNL     1       6.718  -5.542  27.615  0.00  0.00    +0.119 HD
ATOM     27  H2  UNL     1       7.708  -6.789  27.435  0.00  0.00    +0.119 HD
ENDBRANCH  24  25
BRANCH  24  28
ATOM     28  C   UNL     1       9.570  -4.907  26.109  0.00  0.00    +0.242 C 
ATOM     29  O   UNL     1      10.330  -5.176  25.179  0.00  0.00    -0.299 OA
ENDBRANCH  24  28
ENDBRANCH  23  24
ENDBRANCH   1  23
TORSDOF 8
ENDMDL
MODEL 4
REMARK VINA RESULT:      -6.7      2.205      2.627
REMARK  Name = 
REMARK  8 active torsions:
REMARK  status: ('A' for Active; 'I' for Inactive)
REMARK    1  A    between atoms: CA_2  and  N_3
REMARK    2  A    between atoms: CA_2  and  C_4
REMARK    3  A    between atoms: CA_2  and  C_23
REMARK    4  A    between atoms: C_4  and  C_5
REMARK    5  A    between atoms: C_12  and  N_13
REMARK    6  A    between atoms: N_13  and  N_14
REMARK    7  A    between atoms: N_14  and  C_15
REMARK    8  A    between atoms: C_21  and  O_22
REMARK                            x       y       z     vdW  Elec       q    Type
REMARK                         _______ _______ _______ _____ _____    ______ ____
ROOT
ATOM      1  C   UNL     1       7.738  -2.868  23.555  0.00  0.00    -0.020 A 
ATOM      2  C   UNL     1       8.486  -1.712  23.159  0.00  0.00    +0.007 A 
ATOM      3  C   UNL     1       9.851  -1.456  22.922  0.00  0.00    +0.012 A 
ATOM      4  C   UNL     1      10.257  -0.175  22.528  0.00  0.00    +0.029 A 
ATOM      5  C   UNL     1       9.335   0.862  22.372  0.00  0.00    +0.088 A 
ATOM      6  C   UNL     1       7.969   0.606  22.574  0.00  0.00    +0.163 A 
ATOM      7  C   UNL     1       7.577  -0.671  22.979  0.00  0.00    +0.091 A 
ATOM      8  N   UNL     1       6.324  -1.169  23.241  0.00  0.00    -0.358 N 
ATOM      9  H   UNL     1       5.477  -0.620  23.165  0.00  0.00    +0.165 HD
ATOM     10  C   UNL     1       6.408  -2.487  23.601  0.00  0.00    +0.087 A 
ENDROOT
BRANCH   6  11
ATOM     11  O   UNL     1       7.029   1.576  22.335  0.00  0.00    -0.503 OA
ATOM     12  H   UNL     1       6.370   1.439  23.051  0.00  0.00    +0.292 HD
ENDBRANCH   6  11
BRANCH   5  13
ATOM     13  N   UNL     1       9.817   2.111  21.889  0.00  0.00    -0.263 N 
ATOM     14  H   UNL     1       9.007   2.744  21.860  0.00  0.00    +0.170 HD
BRANCH  13  15
ATOM     15  N   UNL     1      10.928   2.729  22.438  0.00  0.00    -0.266 N 
ATOM     16  H   UNL     1      11.591   2.998  21.693  0.00  0.00    +0.170 HD
BRANCH  15  17
ATOM     17  C   UNL     1      10.733   3.905  23.215  0.00  0.00    +0.044 A 
ATOM     18  C   UNL     1       9.483   4.240  23.754  0.00  0.00    +0.024 A 
ATOM     19  C   UNL     1       9.313   5.422  24.479  0.00  0.00    +0.002 A 
ATOM     20  C   UNL     1      10.391   6.286  24.657  0.00  0.00    +0.000 A 
ATOM     21  C   UNL     1      11.628   5.983  24.094  0.00  0.00    +0.002 A 
ATOM     22  C   UNL     1      11.795   4.805  23.360  0.00  0.00    +0.024 A 
ENDBRANCH  15  17
ENDBRANCH  13  15
ENDBRANCH   5  13
BRANCH   1  23
ATOM     23  C   UNL     1       8.275  -4.240  23.843  0.00  0.00    +0.063 C 
BRANCH  23  24
ATOM     24  CA  UNL     1       9.176  -4.310  25.083  0.00  0.00    +0.119 C 
BRANCH  24  25
ATOM     25  N   UNL     1       9.818  -5.642  25.186  0.00  0.00    -0.321 NA
ATOM     26  H1  UNL     1      10.799  -5.535  24.911  0.00  0.00    +0.119 HD
ATOM     27  H2  UNL     1       9.882  -5.887  26.178  0.00  0.00    +0.119 HD
ENDBRANCH  24  25
BRANCH  24  28
ATOM     28  C   UNL     1       8.364  -4.030  26.346  0.00  0.00    +0.242 C 
ATOM     29  O   UNL     1       7.960  -4.906  27.110  0.00  0.00    -0.299 OA
ENDBRANCH  24  28
ENDBRANCH  23  24
ENDBRANCH   1  23
TORSDOF 8
ENDMDL
MODEL 5
REMARK VINA RESULT:      -6.7      2.196      2.969
REMARK  Name = 
REMARK  8 active torsions:
REMARK  status: ('A' for Active; 'I' for Inactive)
REMARK    1  A    between atoms: CA_2  and  N_3
REMARK    2  A    between atoms: CA_2  and  C_4
REMARK    3  A    between atoms: CA_2  and  C_23
REMARK    4  A    between atoms: C_4  and  C_5
REMARK    5  A    between atoms: C_12  and  N_13
REMARK    6  A    between atoms: N_13  and  N_14
REMARK    7  A    between atoms: N_14  and  C_15
REMARK    8  A    between atoms: C_21  and  O_22
REMARK                            x       y       z     vdW  Elec       q    Type
REMARK                         _______ _______ _______ _____ _____    ______ ____
ROOT
ATOM      1  C   UNL     1       8.980  -2.399  23.967  0.00  0.00    -0.020 A 
ATOM      2  C   UNL     1       9.446  -1.046  23.894  0.00  0.00    +0.007 A 
ATOM      3  C   UNL     1      10.192  -0.213  24.751  0.00  0.00    +0.012 A 
ATOM      4  C   UNL     1      10.487   1.098  24.359  0.00  0.00    +0.029 A 
ATOM      5  C   UNL     1      10.047   1.605  23.135  0.00  0.00    +0.088 A 
ATOM      6  C   UNL     1       9.332   0.771  22.260  0.00  0.00    +0.163 A 
ATOM      7  C   UNL     1       9.032  -0.531  22.667  0.00  0.00    +0.091 A 
ATOM      8  N   UNL     1       8.354  -1.528  22.010  0.00  0.00    -0.358 N 
ATOM      9  H   UNL     1       7.963  -1.421  21.082  0.00  0.00    +0.165 HD
ATOM     10  C   UNL     1       8.306  -2.654  22.787  0.00  0.00    +0.087 A 
ENDROOT
BRANCH   6  11
ATOM     11  O   UNL     1       8.971   1.206  21.011  0.00  0.00    -0.503 OA
ATOM     12  H   UNL     1       8.249   1.849  21.190  0.00  0.00    +0.292 HD
ENDBRANCH   6  11
BRANCH   5  13
ATOM     13  N   UNL     1      10.460   2.919  22.774  0.00  0.00    -0.263 N 
ATOM     14  H   UNL     1      10.697   2.885  21.774  0.00  0.00    +0.170 HD
BRANCH  13  15
ATOM     15  N   UNL     1       9.699   4.034  23.081  0.00  0.00    -0.266 N 
ATOM     16  H   UNL     1       8.856   3.756  23.609  0.00  0.00    +0.170 HD
BRANCH  15  17
ATOM     17  C   UNL     1      10.300   5.074  23.846  0.00  0.00    +0.044 A 
ATOM     18  C   UNL     1      11.662   5.384  23.734  0.00  0.00    +0.024 A 
ATOM     19  C   UNL     1      12.232   6.383  24.527  0.00  0.00    +0.002 A 
ATOM     20  C   UNL     1      11.446   7.068  25.450  0.00  0.00    +0.000 A 
ATOM     21  C   UNL     1      10.099   6.741  25.597  0.00  0.00    +0.002 A 
ATOM     22  C   UNL     1       9.532   5.736  24.810  0.00  0.00    +0.024 A 
ENDBRANCH  15  17
ENDBRANCH  13  15
ENDBRANCH   5  13
BRANCH   1  23
ATOM     23  C   UNL     1       9.198  -3.373  25.090  0.00  0.00    +0.063 C 
BRANCH  23  24
ATOM     24  CA  UNL     1       7.909  -3.801  25.803  0.00  0.00    +0.119 C 
BRANCH  24  25
ATOM     25  N   UNL     1       7.360  -2.680  26.603  0.00  0.00    -0.321 NA
ATOM     26  H1  UNL     1       8.146  -2.220  27.072  0.00  0.00    +0.119 HD
ATOM     27  H2  UNL     1       7.027  -1.961  25.954  0.00  0.00    +0.119 HD
ENDBRANCH  24  25
BRANCH  24  28
ATOM     28  C   UNL     1       8.178  -4.998  26.712  0.00  0.00    +0.242 C 
ATOM     29  O   UNL     1       7.405  -5.948  26.843  0.00  0.00    -0.299 OA
ENDBRANCH  24  28
ENDBRANCH  23  24
ENDBRANCH   1  23
TORSDOF 8
ENDMDL
MODEL 6
REMARK VINA RESULT:      -6.7      3.442      4.843
REMARK  Name = 
REMARK  8 active torsions:
REMARK  status: ('A' for Active; 'I' for Inactive)
REMARK    1  A    between atoms: CA_2  and  N_3
REMARK    2  A    between atoms: CA_2  and  C_4
REMARK    3  A    between atoms: CA_2  and  C_23
REMARK    4  A    between atoms: C_4  and  C_5
REMARK    5  A    between atoms: C_12  and  N_13
REMARK    6  A    between atoms: N_13  and  N_14
REMARK    7  A    between atoms: N_14  and  C_15
REMARK    8  A    between atoms: C_21  and  O_22
REMARK                            x       y       z     vdW  Elec       q    Type
REMARK                         _______ _______ _______ _____ _____    ______ ____
ROOT
ATOM      1  C   UNL     1       5.515  -4.060  25.960  0.00  0.00    -0.020 A 
ATOM      2  C   UNL     1       6.417  -3.725  24.898  0.00  0.00    +0.007 A 
ATOM      3  C   UNL     1       7.472  -4.399  24.252  0.00  0.00    +0.012 A 
ATOM      4  C   UNL     1       8.167  -3.765  23.215  0.00  0.00    +0.029 A 
ATOM      5  C   UNL     1       7.840  -2.470  22.808  0.00  0.00    +0.088 A 
ATOM      6  C   UNL     1       6.767  -1.804  23.424  0.00  0.00    +0.163 A 
ATOM      7  C   UNL     1       6.091  -2.440  24.467  0.00  0.00    +0.091 A 
ATOM      8  N   UNL     1       5.027  -2.010  25.222  0.00  0.00    -0.358 N 
ATOM      9  H   UNL     1       4.580  -1.110  25.097  0.00  0.00    +0.165 HD
ATOM     10  C   UNL     1       4.678  -2.971  26.132  0.00  0.00    +0.087 A 
ENDROOT
BRANCH   6  11
ATOM     11  O   UNL     1       6.359  -0.571  22.984  0.00  0.00    -0.503 OA
ATOM     12  H   UNL     1       5.420  -0.523  23.271  0.00  0.00    +0.292 HD
ENDBRANCH   6  11
BRANCH   5  13
ATOM     13  N   UNL     1       8.538  -1.928  21.692  0.00  0.00    -0.263 N 
ATOM     14  H   UNL     1       7.909  -1.237  21.263  0.00  0.00    +0.170 HD
BRANCH  13  15
ATOM     15  N   UNL     1       9.830  -1.445  21.801  0.00  0.00    -0.266 N 
ATOM     16  H   UNL     1      10.246  -1.323  20.864  0.00  0.00    +0.170 HD
BRANCH  15  17
ATOM     17  C   UNL     1      10.034  -0.204  22.470  0.00  0.00    +0.044 A 
ATOM     18  C   UNL     1       9.819   1.026  21.833  0.00  0.00    +0.024 A 
ATOM     19  C   UNL     1      10.066   2.226  22.502  0.00  0.00    +0.002 A 
ATOM     20  C   UNL     1      10.546   2.206  23.810  0.00  0.00    +0.000 A 
ATOM     21  C   UNL     1      10.799   0.989  24.440  0.00  0.00    +0.002 A 
ATOM     22  C   UNL     1      10.561  -0.212  23.766  0.00  0.00    +0.024 A 
ENDBRANCH  15  17
ENDBRANCH  13  15
ENDBRANCH   5  13
BRANCH   1  23
ATOM     23  C   UNL     1       5.459  -5.349  26.728  0.00  0.00    +0.063 C 
BRANCH  23  24
ATOM     24  CA  UNL     1       6.427  -5.409  27.917  0.00  0.00    +0.119 C 
BRANCH  24  25
ATOM     25  N   UNL     1       7.773  -5.840  27.470  0.00  0.00    -0.321 NA
ATOM     26  H1  UNL     1       8.461  -5.240  27.937  0.00  0.00    +0.119 HD
ATOM     27  H2  UNL     1       7.961  -6.762  27.874  0.00  0.00    +0.119 HD
ENDBRANCH  24  25
BRANCH  24  28
ATOM     28  C   UNL     1       5.904  -6.373  28.980  0.00  0.00    +0.242 C 
ATOM     29  O   UNL     1       6.322  -7.521  29.130  0.00  0.00    -0.299 OA
ENDBRANCH  24  28
ENDBRANCH  23  24
ENDBRANCH   1  23
TORSDOF 8
ENDMDL
MODEL 7
REMARK VINA RESULT:      -6.7      2.933      4.005
REMARK  Name = 
REMARK  8 active torsions:
REMARK  status: ('A' for Active; 'I' for Inactive)
REMARK    1  A    between atoms: CA_2  and  N_3
REMARK    2  A    between atoms: CA_2  and  C_4
REMARK    3  A    between atoms: CA_2  and  C_23
REMARK    4  A    between atoms: C_4  and  C_5
REMARK    5  A    between atoms: C_12  and  N_13
REMARK    6  A    between atoms: N_13  and  N_14
REMARK    7  A    between atoms: N_14  and  C_15
REMARK    8  A    between atoms: C_21  and  O_22
REMARK                            x       y       z     vdW  Elec       q    Type
REMARK                         _______ _______ _______ _____ _____    ______ ____
ROOT
ATOM      1  C   UNL     1       7.052  -4.101  24.598  0.00  0.00    -0.020 A 
ATOM      2  C   UNL     1       7.876  -2.931  24.527  0.00  0.00    +0.007 A 
ATOM      3  C   UNL     1       8.282  -1.954  25.458  0.00  0.00    +0.012 A 
ATOM      4  C   UNL     1       9.122  -0.912  25.047  0.00  0.00    +0.029 A 
ATOM      5  C   UNL     1       9.563  -0.814  23.726  0.00  0.00    +0.088 A 
ATOM      6  C   UNL     1       9.190  -1.802  22.800  0.00  0.00    +0.163 A 
ATOM      7  C   UNL     1       8.341  -2.829  23.217  0.00  0.00    +0.091 A 
ATOM      8  N   UNL     1       7.835  -3.897  22.518  0.00  0.00    -0.358 N 
ATOM      9  H   UNL     1       8.037  -4.072  21.541  0.00  0.00    +0.165 HD
ATOM     10  C   UNL     1       7.048  -4.664  23.334  0.00  0.00    +0.087 A 
ENDROOT
BRANCH   6  11
ATOM     11  O   UNL     1       9.683  -1.789  21.520  0.00  0.00    -0.503 OA
ATOM     12  H   UNL     1      10.256  -0.991  21.502  0.00  0.00    +0.292 HD
ENDBRANCH   6  11
BRANCH   5  13
ATOM     13  N   UNL     1      10.481   0.226  23.408  0.00  0.00    -0.263 N 
ATOM     14  H   UNL     1      11.411  -0.212  23.362  0.00  0.00    +0.170 HD
BRANCH  13  15
ATOM     15  N   UNL     1      10.270   1.089  22.346  0.00  0.00    -0.266 N 
ATOM     16  H   UNL     1       9.920   0.567  21.527  0.00  0.00    +0.170 HD
BRANCH  15  17
ATOM     17  C   UNL     1       9.360   2.170  22.524  0.00  0.00    +0.044 A 
ATOM     18  C   UNL     1       9.583   3.179  23.471  0.00  0.00    +0.024 A 
ATOM     19  C   UNL     1       8.652   4.205  23.651  0.00  0.00    +0.002 A 
ATOM     20  C   UNL     1       7.482   4.220  22.895  0.00  0.00    +0.000 A 
ATOM     21  C   UNL     1       7.232   3.201  21.978  0.00  0.00    +0.002 A 
ATOM     22  C   UNL     1       8.159   2.169  21.806  0.00  0.00    +0.024 A 
ENDBRANCH  15  17
ENDBRANCH  13  15
ENDBRANCH   5  13
BRANCH   1  23
ATOM     23  C   UNL     1       6.345  -4.639  25.809  0.00  0.00    +0.063 C 
BRANCH  23  24
ATOM     24  CA  UNL     1       7.278  -4.956  26.986  0.00  0.00    +0.119 C 
BRANCH  24  25
ATOM     25  N   UNL     1       8.392  -5.828  26.547  0.00  0.00    -0.321 NA
ATOM     26  H1  UNL     1       8.064  -6.798  26.594  0.00  0.00    +0.119 HD
ATOM     27  H2  UNL     1       8.533  -5.682  25.543  0.00  0.00    +0.119 HD
ENDBRANCH  24  25
BRANCH  24  28
ATOM     28  C   UNL     1       6.501  -5.639  28.110  0.00  0.00    +0.242 C 
ATOM     29  O   UNL     1       6.948  -6.560  28.791  0.00  0.00    -0.299 OA
ENDBRANCH  24  28
ENDBRANCH  23  24
ENDBRANCH   1  23
TORSDOF 8
ENDMDL
MODEL 8
REMARK VINA RESULT:      -6.6      3.070      4.862
REMARK  Name = 
REMARK  8 active torsions:
REMARK  status: ('A' for Active; 'I' for Inactive)
REMARK    1  A    between atoms: CA_2  and  N_3
REMARK    2  A    between atoms: CA_2  and  C_4
REMARK    3  A    between atoms: CA_2  and  C_23
REMARK    4  A    between atoms: C_4  and  C_5
REMARK    5  A    between atoms: C_12  and  N_13
REMARK    6  A    between atoms: N_13  and  N_14
REMARK    7  A    between atoms: N_14  and  C_15
REMARK    8  A    between atoms: C_21  and  O_22
REMARK                            x       y       z     vdW  Elec       q    Type
REMARK                         _______ _______ _______ _____ _____    ______ ____
ROOT
ATOM      1  C   UNL     1       5.177  -5.881  24.367  0.00  0.00    -0.020 A 
ATOM      2  C   UNL     1       6.295  -5.033  24.081  0.00  0.00    +0.007 A 
ATOM      3  C   UNL     1       6.691  -4.267  22.966  0.00  0.00    +0.012 A 
ATOM      4  C   UNL     1       7.877  -3.525  23.021  0.00  0.00    +0.029 A 
ATOM      5  C   UNL     1       8.686  -3.534  24.159  0.00  0.00    +0.088 A 
ATOM      6  C   UNL     1       8.281  -4.268  25.287  0.00  0.00    +0.163 A 
ATOM      7  C   UNL     1       7.104  -5.014  25.216  0.00  0.00    +0.091 A 
ATOM      8  N   UNL     1       6.501  -5.805  26.163  0.00  0.00    -0.358 N 
ATOM      9  H   UNL     1       6.874  -5.948  27.093  0.00  0.00    +0.165 HD
ATOM     10  C   UNL     1       5.346  -6.342  25.660  0.00  0.00    +0.087 A 
ENDROOT
BRANCH   6  11
ATOM     11  O   UNL     1       9.001  -4.219  26.453  0.00  0.00    -0.503 OA
ATOM     12  H   UNL     1       9.609  -3.458  26.317  0.00  0.00    +0.292 HD
ENDBRANCH   6  11
BRANCH   5  13
ATOM     13  N   UNL     1       9.831  -2.688  24.167  0.00  0.00    -0.263 N 
ATOM     14  H   UNL     1      10.595  -3.236  24.583  0.00  0.00    +0.170 HD
BRANCH  13  15
ATOM     15  N   UNL     1      10.247  -2.011  23.033  0.00  0.00    -0.266 N 
ATOM     16  H   UNL     1       9.691  -2.309  22.215  0.00  0.00    +0.170 HD
BRANCH  15  17
ATOM     17  C   UNL     1      10.186  -0.588  23.034  0.00  0.00    +0.044 A 
ATOM     18  C   UNL     1       9.847   0.140  21.886  0.00  0.00    +0.024 A 
ATOM     19  C   UNL     1       9.835   1.537  21.906  0.00  0.00    +0.002 A 
ATOM     20  C   UNL     1      10.176   2.216  23.074  0.00  0.00    +0.000 A 
ATOM     21  C   UNL     1      10.551   1.502  24.210  0.00  0.00    +0.002 A 
ATOM     22  C   UNL     1      10.573   0.106  24.186  0.00  0.00    +0.024 A 
ENDBRANCH  15  17
ENDBRANCH  13  15
ENDBRANCH   5  13
BRANCH   1  23
ATOM     23  C   UNL     1       4.022  -6.195  23.460  0.00  0.00    +0.063 C 
BRANCH  23  24
ATOM     24  CA  UNL     1       2.804  -6.787  24.182  0.00  0.00    +0.119 C 
BRANCH  24  25
ATOM     25  N   UNL     1       2.789  -8.264  24.050  0.00  0.00    -0.321 NA
ATOM     26  H1  UNL     1       2.697  -8.485  23.054  0.00  0.00    +0.119 HD
ATOM     27  H2  UNL     1       3.725  -8.612  24.278  0.00  0.00    +0.119 HD
ENDBRANCH  24  25
BRANCH  24  28
ATOM     28  C   UNL     1       1.513  -6.206  23.610  0.00  0.00    +0.242 C 
ATOM     29  O   UNL     1       1.470  -5.462  22.631  0.00  0.00    -0.299 OA
ENDBRANCH  24  28
ENDBRANCH  23  24
ENDBRANCH   1  23
TORSDOF 8
ENDMDL
MODEL 9
REMARK VINA RESULT:      -6.6      2.336      8.486
REMARK  Name = 
REMARK  8 active torsions:
REMARK  status: ('A' for Active; 'I' for Inactive)
REMARK    1  A    between atoms: CA_2  and  N_3
REMARK    2  A    between atoms: CA_2  and  C_4
REMARK    3  A    between atoms: CA_2  and  C_23
REMARK    4  A    between atoms: C_4  and  C_5
REMARK    5  A    between atoms: C_12  and  N_13
REMARK    6  A    between atoms: N_13  and  N_14
REMARK    7  A    between atoms: N_14  and  C_15
REMARK    8  A    between atoms: C_21  and  O_22
REMARK                            x       y       z     vdW  Elec       q    Type
REMARK                         _______ _______ _______ _____ _____    ______ ____
ROOT
ATOM      1  C   UNL     1       9.755   4.576  24.006  0.00  0.00    -0.020 A 
ATOM      2  C   UNL     1       9.649   3.215  23.570  0.00  0.00    +0.007 A 
ATOM      3  C   UNL     1      10.287   2.446  22.576  0.00  0.00    +0.012 A 
ATOM      4  C   UNL     1       9.941   1.099  22.414  0.00  0.00    +0.029 A 
ATOM      5  C   UNL     1       8.968   0.499  23.215  0.00  0.00    +0.088 A 
ATOM      6  C   UNL     1       8.352   1.249  24.231  0.00  0.00    +0.163 A 
ATOM      7  C   UNL     1       8.695   2.594  24.375  0.00  0.00    +0.091 A 
ATOM      8  N   UNL     1       8.243   3.530  25.273  0.00  0.00    -0.358 N 
ATOM      9  H   UNL     1       7.554   3.332  25.988  0.00  0.00    +0.165 HD
ATOM     10  C   UNL     1       8.865   4.730  25.054  0.00  0.00    +0.087 A 
ENDROOT
BRANCH   6  11
ATOM     11  O   UNL     1       7.465   0.664  25.097  0.00  0.00    -0.503 OA
ATOM     12  H   UNL     1       6.899   0.114  24.511  0.00  0.00    +0.292 HD
ENDBRANCH   6  11
BRANCH   5  13
ATOM     13  N   UNL     1       8.735  -0.895  23.044  0.00  0.00    -0.263 N 
ATOM     14  H   UNL     1       9.336  -1.377  23.725  0.00  0.00    +0.170 HD
BRANCH  13  15
ATOM     15  N   UNL     1       7.456  -1.426  23.025  0.00  0.00    -0.266 N 
ATOM     16  H   UNL     1       6.891  -0.968  22.292  0.00  0.00    +0.170 HD
BRANCH  15  17
ATOM     17  C   UNL     1       7.307  -2.824  22.801  0.00  0.00    +0.044 A 
ATOM     18  C   UNL     1       6.412  -3.331  21.848  0.00  0.00    +0.024 A 
ATOM     19  C   UNL     1       6.258  -4.709  21.679  0.00  0.00    +0.002 A 
ATOM     20  C   UNL     1       6.987  -5.591  22.473  0.00  0.00    +0.000 A 
ATOM     21  C   UNL     1       7.851  -5.098  23.449  0.00  0.00    +0.002 A 
ATOM     22  C   UNL     1       7.997  -3.720  23.625  0.00  0.00    +0.024 A 
ENDBRANCH  15  17
ENDBRANCH  13  15
ENDBRANCH   5  13
BRANCH   1  23
ATOM     23  C   UNL     1      10.669   5.634  23.458  0.00  0.00    +0.063 C 
BRANCH  23  24
ATOM     24  CA  UNL     1      12.161   5.323  23.637  0.00  0.00    +0.119 C 
BRANCH  24  25
ATOM     25  N   UNL     1      12.802   6.335  24.509  0.00  0.00    -0.321 NA
ATOM     26  H1  UNL     1      12.077   6.999  24.798  0.00  0.00    +0.119 HD
ATOM     27  H2  UNL     1      13.059   5.878  25.389  0.00  0.00    +0.119 HD
ENDBRANCH  24  25
BRANCH  24  28
ATOM     28  C   UNL     1      12.863   5.292  22.281  0.00  0.00    +0.242 C 
ATOM     29  O   UNL     1      13.933   5.853  22.050  0.00  0.00    -0.299 OA
ENDBRANCH  24  28
ENDBRANCH  23  24
ENDBRANCH   1  23
TORSDOF 8
ENDMDL
