MODEL 1
REMARK VINA RESULT:      -7.8      0.000      0.000
REMARK  Name = 
REMARK  11 active torsions:
REMARK  status: ('A' for Active; 'I' for Inactive)
REMARK    1  A    between atoms: C_2  and  C_3
REMARK    2  A    between atoms: C_2  and  C_5
REMARK    3  A    between atoms: C_2  and  N_27
REMARK    4  A    between atoms: C_3  and  O_4
REMARK    5  A    between atoms: C_5  and  C_6
REMARK    6  A    between atoms: C_6  and  N_7
REMARK    7  A    between atoms: C_13  and  N_14
REMARK    8  A    between atoms: C_15  and  C_17
REMARK    9  A    between atoms: C_17  and  C_18
REMARK   10  A    between atoms: C_18  and  C_19
REMARK   11  A    between atoms: C_30  and  C_32
REMARK                            x       y       z     vdW  Elec       q    Type
REMARK                         _______ _______ _______ _____ _____    ______ ____
ROOT
ATOM      1  N   UNL     1       9.116  -1.544  24.581  0.00  0.00    -0.347 N 
ATOM      2  C   UNL     1       9.079  -0.408  23.797  0.00  0.00    +0.051 A 
ATOM      3  C   UNL     1       8.522   0.859  24.035  0.00  0.00    +0.049 A 
ATOM      4  C   UNL     1       8.570   1.830  23.029  0.00  0.00    +0.035 A 
ATOM      5  C   UNL     1       9.232   1.546  21.834  0.00  0.00    +0.024 A 
ATOM      6  C   UNL     1       9.806   0.283  21.606  0.00  0.00    +0.012 A 
ATOM      7  C   UNL     1       9.722  -0.713  22.598  0.00  0.00    -0.000 A 
ATOM      8  C   UNL     1      10.174  -2.058  22.696  0.00  0.00    +0.027 A 
ATOM      9  C   UNL     1       9.798  -2.541  23.929  0.00  0.00    +0.087 A 
ENDROOT
BRANCH   4  10
ATOM     10  N   UNL     1       7.977   3.109  23.189  0.00  0.00    -0.285 N 
ATOM     11  H   UNL     1       7.417   3.449  22.419  0.00  0.00    +0.155 HD
ATOM     12  C   UNL     1       7.985   3.854  24.360  0.00  0.00    +0.218 C 
ATOM     13  O   UNL     1       8.384   3.449  25.450  0.00  0.00    -0.275 OA
BRANCH  12  14
ATOM     14  C   UNL     1       7.383   5.239  24.217  0.00  0.00    +0.101 C 
BRANCH  14  15
ATOM     15  C   UNL     1       8.350   6.119  23.418  0.00  0.00    +0.044 C 
BRANCH  15  16
ATOM     16  C   UNL     1       9.703   6.278  24.059  0.00  0.00    -0.047 A 
ATOM     17  C   UNL     1       9.841   6.931  25.290  0.00  0.00    +0.003 A 
ATOM     18  C   UNL     1      11.105   7.108  25.857  0.00  0.00    +0.000 A 
ATOM     19  C   UNL     1      12.239   6.631  25.202  0.00  0.00    +0.000 A 
ATOM     20  C   UNL     1      12.112   5.979  23.977  0.00  0.00    +0.000 A 
ATOM     21  C   UNL     1      10.850   5.802  23.409  0.00  0.00    +0.003 A 
ENDBRANCH  15  16
ENDBRANCH  14  15
ENDBRANCH  12  14
ENDBRANCH   4  10
BRANCH   1  22
ATOM     22  C   UNL     1       8.503  -1.690  25.893  0.00  0.00    +0.124 C 
BRANCH  22  23
ATOM     23  C   UNL     1       8.349  -3.144  26.363  0.00  0.00    +0.049 C 
BRANCH  23  24
ATOM     24  C   UNL     1       6.892  -3.634  26.423  0.00  0.00    +0.115 C 
BRANCH  24  25
ATOM     25  N   UNL     1       6.333  -3.811  25.087  0.00  0.00    -0.331 N 
ATOM     26  C   UNL     1       6.720  -4.735  24.159  0.00  0.00    +0.120 A 
ATOM     27  C   UNL     1       5.888  -4.547  23.075  0.00  0.00    +0.143 A 
ATOM     28  N   UNL     1       5.000  -3.513  23.340  0.00  0.00    -0.231 NA
ATOM     29  C   UNL     1       5.293  -3.099  24.553  0.00  0.00    +0.200 A 
BRANCH  27  30
ATOM     30  C   UNL     1       5.911  -5.307  21.830  0.00  0.00    +0.261 C 
ATOM     31  O   UNL     1       5.909  -4.800  20.714  0.00  0.00    -0.269 OA
ATOM     32  N   UNL     1       5.942  -6.658  22.008  0.00  0.00    -0.324 N 
ATOM     33  H   UNL     1       5.984  -7.260  21.201  0.00  0.00    +0.145 HD
ATOM     34  H   UNL     1       5.962  -7.033  22.947  0.00  0.00    +0.145 HD
ENDBRANCH  27  30
ENDBRANCH  24  25
BRANCH  24  35
ATOM     35  C   UNL     1       6.784  -4.939  27.233  0.00  0.00    +0.181 C 
BRANCH  35  36
ATOM     36  O   UNL     1       8.046  -5.602  27.312  0.00  0.00    -0.393 OA
ATOM     37  H   UNL     1       7.948  -6.369  27.907  0.00  0.00    +0.209 HD
ENDBRANCH  35  36
ENDBRANCH  24  35
ENDBRANCH  23  24
ENDBRANCH  22  23
ENDBRANCH   1  22
TORSDOF 11
ENDMDL
MODEL 2
REMARK VINA RESULT:      -7.7      2.738      5.023
REMARK  Name = 
REMARK  11 active torsions:
REMARK  status: ('A' for Active; 'I' for Inactive)
REMARK    1  A    between atoms: C_2  and  C_3
REMARK    2  A    between atoms: C_2  and  C_5
REMARK    3  A    between atoms: C_2  and  N_27
REMARK    4  A    between atoms: C_3  and  O_4
REMARK    5  A    between atoms: C_5  and  C_6
REMARK    6  A    between atoms: C_6  and  N_7
REMARK    7  A    between atoms: C_13  and  N_14
REMARK    8  A    between atoms: C_15  and  C_17
REMARK    9  A    between atoms: C_17  and  C_18
REMARK   10  A    between atoms: C_18  and  C_19
REMARK   11  A    between atoms: C_30  and  C_32
REMARK                            x       y       z     vdW  Elec       q    Type
REMARK                         _______ _______ _______ _____ _____    ______ ____
ROOT
ATOM      1  N   UNL     1       6.181  -3.714  26.972  0.00  0.00    -0.347 N 
ATOM      2  C   UNL     1       7.363  -3.786  26.261  0.00  0.00    +0.051 A 
ATOM      3  C   UNL     1       7.969  -2.870  25.385  0.00  0.00    +0.049 A 
ATOM      4  C   UNL     1       9.157  -3.223  24.735  0.00  0.00    +0.035 A 
ATOM      5  C   UNL     1       9.756  -4.449  25.025  0.00  0.00    +0.024 A 
ATOM      6  C   UNL     1       9.158  -5.356  25.917  0.00  0.00    +0.012 A 
ATOM      7  C   UNL     1       7.939  -5.024  26.539  0.00  0.00    -0.000 A 
ATOM      8  C   UNL     1       7.083  -5.685  27.463  0.00  0.00    +0.027 A 
ATOM      9  C   UNL     1       6.017  -4.853  27.721  0.00  0.00    +0.087 A 
ENDROOT
BRANCH   4  10
ATOM     10  N   UNL     1       9.786  -2.363  23.799  0.00  0.00    -0.285 N 
ATOM     11  H   UNL     1      10.762  -2.149  23.964  0.00  0.00    +0.155 HD
ATOM     12  C   UNL     1       9.220  -1.920  22.613  0.00  0.00    +0.218 C 
ATOM     13  O   UNL     1       8.155  -2.319  22.148  0.00  0.00    -0.275 OA
BRANCH  12  14
ATOM     14  C   UNL     1      10.069  -0.912  21.860  0.00  0.00    +0.101 C 
BRANCH  14  15
ATOM     15  C   UNL     1       9.148   0.138  21.230  0.00  0.00    +0.044 C 
BRANCH  15  16
ATOM     16  C   UNL     1       9.060   1.421  22.013  0.00  0.00    -0.047 A 
ATOM     17  C   UNL     1       7.935   2.248  21.910  0.00  0.00    +0.003 A 
ATOM     18  C   UNL     1       7.879   3.456  22.609  0.00  0.00    +0.000 A 
ATOM     19  C   UNL     1       8.946   3.845  23.419  0.00  0.00    +0.000 A 
ATOM     20  C   UNL     1      10.070   3.029  23.528  0.00  0.00    +0.000 A 
ATOM     21  C   UNL     1      10.126   1.822  22.830  0.00  0.00    +0.003 A 
ENDBRANCH  15  16
ENDBRANCH  14  15
ENDBRANCH  12  14
ENDBRANCH   4  10
BRANCH   1  22
ATOM     22  C   UNL     1       5.227  -2.618  26.924  0.00  0.00    +0.124 C 
BRANCH  22  23
ATOM     23  C   UNL     1       3.759  -3.058  26.821  0.00  0.00    +0.049 C 
BRANCH  23  24
ATOM     24  C   UNL     1       3.218  -3.108  25.381  0.00  0.00    +0.115 C 
BRANCH  24  25
ATOM     25  N   UNL     1       3.933  -4.093  24.577  0.00  0.00    -0.331 N 
ATOM     26  C   UNL     1       4.774  -3.835  23.533  0.00  0.00    +0.120 A 
ATOM     27  C   UNL     1       5.237  -5.066  23.114  0.00  0.00    +0.143 A 
ATOM     28  N   UNL     1       4.681  -6.068  23.899  0.00  0.00    -0.231 NA
ATOM     29  C   UNL     1       3.909  -5.449  24.764  0.00  0.00    +0.200 A 
BRANCH  27  30
ATOM     30  C   UNL     1       6.174  -5.307  22.021  0.00  0.00    +0.261 C 
ATOM     31  O   UNL     1       5.843  -5.439  20.848  0.00  0.00    -0.269 OA
ATOM     32  N   UNL     1       7.477  -5.370  22.415  0.00  0.00    -0.324 N 
ATOM     33  H   UNL     1       8.194  -5.510  21.721  0.00  0.00    +0.145 HD
ATOM     34  H   UNL     1       7.707  -5.236  23.391  0.00  0.00    +0.145 HD
ENDBRANCH  27  30
ENDBRANCH  24  25
BRANCH  24  35
ATOM     35  C   UNL     1       1.706  -3.395  25.373  0.00  0.00    +0.181 C 
BRANCH  35  36
ATOM     36  O   UNL     1       0.954  -2.209  25.629  0.00  0.00    -0.393 OA
ATOM     37  H   UNL     1       0.671  -1.840  24.772  0.00  0.00    +0.209 HD
ENDBRANCH  35  36
ENDBRANCH  24  35
ENDBRANCH  23  24
ENDBRANCH  22  23
ENDBRANCH   1  22
TORSDOF 11
ENDMDL
MODEL 3
REMARK VINA RESULT:      -7.5      2.939      5.500
REMARK  Name = 
REMARK  11 active torsions:
REMARK  status: ('A' for Active; 'I' for Inactive)
REMARK    1  A    between atoms: C_2  and  C_3
REMARK    2  A    between atoms: C_2  and  C_5
REMARK    3  A    between atoms: C_2  and  N_27
REMARK    4  A    between atoms: C_3  and  O_4
REMARK    5  A    between atoms: C_5  and  C_6
REMARK    6  A    between atoms: C_6  and  N_7
REMARK    7  A    between atoms: C_13  and  N_14
REMARK    8  A    between atoms: C_15  and  C_17
REMARK    9  A    between atoms: C_17  and  C_18
REMARK   10  A    between atoms: C_18  and  C_19
REMARK   11  A    between atoms: C_30  and  C_32
REMARK                            x       y       z     vdW  Elec       q    Type
REMARK                         _______ _______ _______ _____ _____    ______ ____
ROOT
ATOM      1  N   UNL     1       3.954  -4.464  24.749  0.00  0.00    -0.347 N 
ATOM      2  C   UNL     1       4.931  -4.420  23.775  0.00  0.00    +0.051 A 
ATOM      3  C   UNL     1       5.771  -3.375  23.357  0.00  0.00    +0.049 A 
ATOM      4  C   UNL     1       6.646  -3.581  22.285  0.00  0.00    +0.035 A 
ATOM      5  C   UNL     1       6.720  -4.844  21.697  0.00  0.00    +0.024 A 
ATOM      6  C   UNL     1       5.892  -5.895  22.129  0.00  0.00    +0.012 A 
ATOM      7  C   UNL     1       4.978  -5.679  23.179  0.00  0.00    -0.000 A 
ATOM      8  C   UNL     1       4.019  -6.493  23.844  0.00  0.00    +0.027 A 
ATOM      9  C   UNL     1       3.413  -5.724  24.812  0.00  0.00    +0.087 A 
ENDROOT
BRANCH   4  10
ATOM     10  N   UNL     1       7.478  -2.548  21.783  0.00  0.00    -0.285 N 
ATOM     11  H   UNL     1       7.146  -2.056  20.964  0.00  0.00    +0.155 HD
ATOM     12  C   UNL     1       8.622  -2.069  22.404  0.00  0.00    +0.218 C 
ATOM     13  O   UNL     1       8.991  -2.378  23.535  0.00  0.00    -0.275 OA
BRANCH  12  14
ATOM     14  C   UNL     1       9.388  -1.045  21.587  0.00  0.00    +0.101 C 
BRANCH  14  15
ATOM     15  C   UNL     1      10.205  -0.164  22.537  0.00  0.00    +0.044 C 
BRANCH  15  16
ATOM     16  C   UNL     1       9.541   1.143  22.881  0.00  0.00    -0.047 A 
ATOM     17  C   UNL     1       9.709   1.724  24.144  0.00  0.00    +0.003 A 
ATOM     18  C   UNL     1       9.058   2.916  24.466  0.00  0.00    +0.000 A 
ATOM     19  C   UNL     1       8.236   3.539  23.528  0.00  0.00    +0.000 A 
ATOM     20  C   UNL     1       8.062   2.970  22.269  0.00  0.00    +0.000 A 
ATOM     21  C   UNL     1       8.712   1.778  21.945  0.00  0.00    +0.003 A 
ENDBRANCH  15  16
ENDBRANCH  14  15
ENDBRANCH  12  14
ENDBRANCH   4  10
BRANCH   1  22
ATOM     22  C   UNL     1       3.527  -3.344  25.574  0.00  0.00    +0.124 C 
BRANCH  22  23
ATOM     23  C   UNL     1       3.803  -3.521  27.075  0.00  0.00    +0.049 C 
BRANCH  23  24
ATOM     24  C   UNL     1       5.214  -3.085  27.509  0.00  0.00    +0.115 C 
BRANCH  24  25
ATOM     25  N   UNL     1       6.219  -4.068  27.121  0.00  0.00    -0.331 N 
ATOM     26  C   UNL     1       7.220  -3.892  26.210  0.00  0.00    +0.120 A 
ATOM     27  C   UNL     1       7.934  -5.074  26.208  0.00  0.00    +0.143 A 
ATOM     28  N   UNL     1       7.370  -5.964  27.111  0.00  0.00    -0.231 NA
ATOM     29  C   UNL     1       6.349  -5.328  27.641  0.00  0.00    +0.200 A 
BRANCH  27  30
ATOM     30  C   UNL     1       9.109  -5.367  25.394  0.00  0.00    +0.261 C 
ATOM     31  O   UNL     1       9.070  -5.630  24.198  0.00  0.00    -0.269 OA
ATOM     32  N   UNL     1      10.284  -5.319  26.084  0.00  0.00    -0.324 N 
ATOM     33  H   UNL     1      11.149  -5.486  25.594  0.00  0.00    +0.145 HD
ATOM     34  H   UNL     1      10.272  -5.079  27.067  0.00  0.00    +0.145 HD
ENDBRANCH  27  30
ENDBRANCH  24  25
BRANCH  24  35
ATOM     35  C   UNL     1       5.561  -1.699  26.934  0.00  0.00    +0.181 C 
BRANCH  35  36
ATOM     36  O   UNL     1       5.256  -0.663  27.868  0.00  0.00    -0.393 OA
ATOM     37  H   UNL     1       5.049   0.147  27.365  0.00  0.00    +0.209 HD
ENDBRANCH  35  36
ENDBRANCH  24  35
ENDBRANCH  23  24
ENDBRANCH  22  23
ENDBRANCH   1  22
TORSDOF 11
ENDMDL
MODEL 4
REMARK VINA RESULT:      -7.5      3.129      7.803
REMARK  Name = 
REMARK  11 active torsions:
REMARK  status: ('A' for Active; 'I' for Inactive)
REMARK    1  A    between atoms: C_2  and  C_3
REMARK    2  A    between atoms: C_2  and  C_5
REMARK    3  A    between atoms: C_2  and  N_27
REMARK    4  A    between atoms: C_3  and  O_4
REMARK    5  A    between atoms: C_5  and  C_6
REMARK    6  A    between atoms: C_6  and  N_7
REMARK    7  A    between atoms: C_13  and  N_14
REMARK    8  A    between atoms: C_15  and  C_17
REMARK    9  A    between atoms: C_17  and  C_18
REMARK   10  A    between atoms: C_18  and  C_19
REMARK   11  A    between atoms: C_30  and  C_32
REMARK                            x       y       z     vdW  Elec       q    Type
REMARK                         _______ _______ _______ _____ _____    ______ ____
ROOT
ATOM      1  N   UNL     1       7.293   1.240  24.063  0.00  0.00    -0.347 N 
ATOM      2  C   UNL     1       7.802   0.179  23.340  0.00  0.00    +0.051 A 
ATOM      3  C   UNL     1       7.270  -1.093  23.071  0.00  0.00    +0.049 A 
ATOM      4  C   UNL     1       8.033  -2.020  22.353  0.00  0.00    +0.035 A 
ATOM      5  C   UNL     1       9.280  -1.639  21.856  0.00  0.00    +0.024 A 
ATOM      6  C   UNL     1       9.803  -0.359  22.110  0.00  0.00    +0.012 A 
ATOM      7  C   UNL     1       9.056   0.563  22.871  0.00  0.00    -0.000 A 
ATOM      8  C   UNL     1       9.276   1.898  23.307  0.00  0.00    +0.027 A 
ATOM      9  C   UNL     1       8.171   2.294  24.027  0.00  0.00    +0.087 A 
ENDROOT
BRANCH   4  10
ATOM     10  N   UNL     1       7.573  -3.337  22.097  0.00  0.00    -0.285 N 
ATOM     11  H   UNL     1       7.082  -3.484  21.224  0.00  0.00    +0.155 HD
ATOM     12  C   UNL     1       7.867  -4.452  22.867  0.00  0.00    +0.218 C 
ATOM     13  O   UNL     1       8.675  -4.474  23.794  0.00  0.00    -0.275 OA
BRANCH  12  14
ATOM     14  C   UNL     1       7.144  -5.713  22.434  0.00  0.00    +0.101 C 
BRANCH  14  15
ATOM     15  C   UNL     1       5.681  -5.368  22.138  0.00  0.00    +0.044 C 
BRANCH  15  16
ATOM     16  C   UNL     1       4.769  -5.498  23.329  0.00  0.00    -0.047 A 
ATOM     17  C   UNL     1       3.836  -4.498  23.631  0.00  0.00    +0.003 A 
ATOM     18  C   UNL     1       3.022  -4.610  24.760  0.00  0.00    +0.000 A 
ATOM     19  C   UNL     1       3.131  -5.722  25.593  0.00  0.00    +0.000 A 
ATOM     20  C   UNL     1       4.056  -6.723  25.301  0.00  0.00    +0.000 A 
ATOM     21  C   UNL     1       4.870  -6.613  24.173  0.00  0.00    +0.003 A 
ENDBRANCH  15  16
ENDBRANCH  14  15
ENDBRANCH  12  14
ENDBRANCH   4  10
BRANCH   1  22
ATOM     22  C   UNL     1       6.030   1.247  24.785  0.00  0.00    +0.124 C 
BRANCH  22  23
ATOM     23  C   UNL     1       6.072   0.534  26.144  0.00  0.00    +0.049 C 
BRANCH  23  24
ATOM     24  C   UNL     1       5.359  -0.830  26.160  0.00  0.00    +0.115 C 
BRANCH  24  25
ATOM     25  N   UNL     1       6.292  -1.917  26.433  0.00  0.00    -0.331 N 
ATOM     26  C   UNL     1       5.977  -3.234  26.609  0.00  0.00    +0.120 A 
ATOM     27  C   UNL     1       7.180  -3.882  26.801  0.00  0.00    +0.143 A 
ATOM     28  N   UNL     1       8.221  -2.965  26.742  0.00  0.00    -0.231 NA
ATOM     29  C   UNL     1       7.653  -1.801  26.517  0.00  0.00    +0.200 A 
BRANCH  27  30
ATOM     30  C   UNL     1       7.360  -5.312  27.027  0.00  0.00    +0.261 C 
ATOM     31  O   UNL     1       6.573  -6.015  27.650  0.00  0.00    -0.269 OA
ATOM     32  N   UNL     1       8.498  -5.820  26.473  0.00  0.00    -0.324 N 
ATOM     33  H   UNL     1       8.690  -6.805  26.561  0.00  0.00    +0.145 HD
ATOM     34  H   UNL     1       9.110  -5.207  25.951  0.00  0.00    +0.145 HD
ENDBRANCH  27  30
ENDBRANCH  24  25
BRANCH  24  35
ATOM     35  C   UNL     1       4.207  -0.834  27.182  0.00  0.00    +0.181 C 
BRANCH  35  36
ATOM     36  O   UNL     1       2.982  -1.248  26.577  0.00  0.00    -0.393 OA
ATOM     37  H   UNL     1       2.971  -2.224  26.553  0.00  0.00    +0.209 HD
ENDBRANCH  35  36
ENDBRANCH  24  35
ENDBRANCH  23  24
ENDBRANCH  22  23
ENDBRANCH   1  22
TORSDOF 11
ENDMDL
MODEL 5
REMARK VINA RESULT:      -7.4      2.830      5.747
REMARK  Name = 
REMARK  11 active torsions:
REMARK  status: ('A' for Active; 'I' for Inactive)
REMARK    1  A    between atoms: C_2  and  C_3
REMARK    2  A    between atoms: C_2  and  C_5
REMARK    3  A    between atoms: C_2  and  N_27
REMARK    4  A    between atoms: C_3  and  O_4
REMARK    5  A    between atoms: C_5  and  C_6
REMARK    6  A    between atoms: C_6  and  N_7
REMARK    7  A    between atoms: C_13  and  N_14
REMARK    8  A    between atoms: C_15  and  C_17
REMARK    9  A    between atoms: C_17  and  C_18
REMARK   10  A    between atoms: C_18  and  C_19
REMARK   11  A    between atoms: C_30  and  C_32
REMARK                            x       y       z     vdW  Elec       q    Type
REMARK                         _______ _______ _______ _____ _____    ______ ____
ROOT
ATOM      1  N   UNL     1       4.073  -4.369  24.409  0.00  0.00    -0.347 N 
ATOM      2  C   UNL     1       5.219  -4.336  23.638  0.00  0.00    +0.051 A 
ATOM      3  C   UNL     1       6.152  -3.309  23.417  0.00  0.00    +0.049 A 
ATOM      4  C   UNL     1       7.207  -3.521  22.523  0.00  0.00    +0.035 A 
ATOM      5  C   UNL     1       7.356  -4.772  21.924  0.00  0.00    +0.024 A 
ATOM      6  C   UNL     1       6.432  -5.805  22.162  0.00  0.00    +0.012 A 
ATOM      7  C   UNL     1       5.341  -5.582  23.026  0.00  0.00    -0.000 A 
ATOM      8  C   UNL     1       4.252  -6.378  23.475  0.00  0.00    +0.027 A 
ATOM      9  C   UNL     1       3.495  -5.611  24.332  0.00  0.00    +0.087 A 
ENDROOT
BRANCH   4  10
ATOM     10  N   UNL     1       8.149  -2.505  22.217  0.00  0.00    -0.285 N 
ATOM     11  H   UNL     1       7.836  -1.770  21.596  0.00  0.00    +0.155 HD
ATOM     12  C   UNL     1       9.395  -2.363  22.810  0.00  0.00    +0.218 C 
ATOM     13  O   UNL     1       9.794  -3.013  23.774  0.00  0.00    -0.275 OA
BRANCH  12  14
ATOM     14  C   UNL     1      10.246  -1.262  22.206  0.00  0.00    +0.101 C 
BRANCH  14  15
ATOM     15  C   UNL     1       9.350  -0.347  21.367  0.00  0.00    +0.044 C 
BRANCH  15  16
ATOM     16  C   UNL     1       9.145   1.021  21.961  0.00  0.00    -0.047 A 
ATOM     17  C   UNL     1      10.086   1.569  22.842  0.00  0.00    +0.003 A 
ATOM     18  C   UNL     1       9.869   2.822  23.418  0.00  0.00    +0.000 A 
ATOM     19  C   UNL     1       8.712   3.539  23.118  0.00  0.00    +0.000 A 
ATOM     20  C   UNL     1       7.769   3.003  22.242  0.00  0.00    +0.000 A 
ATOM     21  C   UNL     1       7.986   1.751  21.665  0.00  0.00    +0.003 A 
ENDBRANCH  15  16
ENDBRANCH  14  15
ENDBRANCH  12  14
ENDBRANCH   4  10
BRANCH   1  22
ATOM     22  C   UNL     1       3.530  -3.255  25.170  0.00  0.00    +0.124 C 
BRANCH  22  23
ATOM     23  C   UNL     1       3.764  -3.348  26.685  0.00  0.00    +0.049 C 
BRANCH  23  24
ATOM     24  C   UNL     1       4.946  -4.249  27.083  0.00  0.00    +0.115 C 
BRANCH  24  25
ATOM     25  N   UNL     1       6.224  -3.579  26.869  0.00  0.00    -0.331 N 
ATOM     26  C   UNL     1       6.428  -2.233  26.760  0.00  0.00    +0.120 A 
ATOM     27  C   UNL     1       7.791  -2.075  26.605  0.00  0.00    +0.143 A 
ATOM     28  N   UNL     1       8.411  -3.317  26.617  0.00  0.00    -0.231 NA
ATOM     29  C   UNL     1       7.444  -4.192  26.780  0.00  0.00    +0.200 A 
BRANCH  27  30
ATOM     30  C   UNL     1       8.497  -0.807  26.453  0.00  0.00    +0.261 C 
ATOM     31  O   UNL     1       8.464  -0.117  25.441  0.00  0.00    -0.269 OA
ATOM     32  N   UNL     1       9.211  -0.439  27.555  0.00  0.00    -0.324 N 
ATOM     33  H   UNL     1       9.712   0.436  27.546  0.00  0.00    +0.145 HD
ATOM     34  H   UNL     1       9.196  -1.030  28.375  0.00  0.00    +0.145 HD
ENDBRANCH  27  30
ENDBRANCH  24  25
BRANCH  24  35
ATOM     35  C   UNL     1       4.814  -4.712  28.545  0.00  0.00    +0.181 C 
BRANCH  35  36
ATOM     36  O   UNL     1       4.354  -3.652  29.383  0.00  0.00    -0.393 OA
ATOM     37  H   UNL     1       4.161  -2.881  28.817  0.00  0.00    +0.209 HD
ENDBRANCH  35  36
ENDBRANCH  24  35
ENDBRANCH  23  24
ENDBRANCH  22  23
ENDBRANCH   1  22
TORSDOF 11
ENDMDL
MODEL 6
REMARK VINA RESULT:      -7.2      2.402      9.981
REMARK  Name = 
REMARK  11 active torsions:
REMARK  status: ('A' for Active; 'I' for Inactive)
REMARK    1  A    between atoms: C_2  and  C_3
REMARK    2  A    between atoms: C_2  and  C_5
REMARK    3  A    between atoms: C_2  and  N_27
REMARK    4  A    between atoms: C_3  and  O_4
REMARK    5  A    between atoms: C_5  and  C_6
REMARK    6  A    between atoms: C_6  and  N_7
REMARK    7  A    between atoms: C_13  and  N_14
REMARK    8  A    between atoms: C_15  and  C_17
REMARK    9  A    between atoms: C_17  and  C_18
REMARK   10  A    between atoms: C_18  and  C_19
REMARK   11  A    between atoms: C_30  and  C_32
REMARK                            x       y       z     vdW  Elec       q    Type
REMARK                         _______ _______ _______ _____ _____    ______ ____
ROOT
ATOM      1  N   UNL     1       7.889   1.683  22.563  0.00  0.00    -0.347 N 
ATOM      2  C   UNL     1       7.859   0.304  22.626  0.00  0.00    +0.051 A 
ATOM      3  C   UNL     1       6.842  -0.579  23.025  0.00  0.00    +0.049 A 
ATOM      4  C   UNL     1       7.098  -1.954  23.053  0.00  0.00    +0.035 A 
ATOM      5  C   UNL     1       8.334  -2.429  22.616  0.00  0.00    +0.024 A 
ATOM      6  C   UNL     1       9.344  -1.545  22.198  0.00  0.00    +0.012 A 
ATOM      7  C   UNL     1       9.107  -0.156  22.210  0.00  0.00    -0.000 A 
ATOM      8  C   UNL     1       9.881   0.986  21.867  0.00  0.00    +0.027 A 
ATOM      9  C   UNL     1       9.104   2.102  22.082  0.00  0.00    +0.087 A 
ENDROOT
BRANCH   4  10
ATOM     10  N   UNL     1       6.129  -2.890  23.499  0.00  0.00    -0.285 N 
ATOM     11  H   UNL     1       5.873  -2.846  24.477  0.00  0.00    +0.155 HD
ATOM     12  C   UNL     1       5.410  -3.749  22.681  0.00  0.00    +0.218 C 
ATOM     13  O   UNL     1       5.413  -3.719  21.452  0.00  0.00    -0.275 OA
BRANCH  12  14
ATOM     14  C   UNL     1       4.530  -4.729  23.434  0.00  0.00    +0.101 C 
BRANCH  14  15
ATOM     15  C   UNL     1       5.386  -5.915  23.889  0.00  0.00    +0.044 C 
BRANCH  15  16
ATOM     16  C   UNL     1       5.677  -5.926  25.367  0.00  0.00    -0.047 A 
ATOM     17  C   UNL     1       6.844  -5.339  25.872  0.00  0.00    +0.003 A 
ATOM     18  C   UNL     1       7.124  -5.389  27.239  0.00  0.00    +0.000 A 
ATOM     19  C   UNL     1       6.241  -6.023  28.112  0.00  0.00    +0.000 A 
ATOM     20  C   UNL     1       5.078  -6.610  27.618  0.00  0.00    +0.000 A 
ATOM     21  C   UNL     1       4.796  -6.560  26.253  0.00  0.00    +0.003 A 
ENDBRANCH  15  16
ENDBRANCH  14  15
ENDBRANCH  12  14
ENDBRANCH   4  10
BRANCH   1  22
ATOM     22  C   UNL     1       6.814   2.575  22.971  0.00  0.00    +0.124 C 
BRANCH  22  23
ATOM     23  C   UNL     1       7.184   3.534  24.112  0.00  0.00    +0.049 C 
BRANCH  23  24
ATOM     24  C   UNL     1       7.237   5.015  23.695  0.00  0.00    +0.115 C 
BRANCH  24  25
ATOM     25  N   UNL     1       8.510   5.626  24.060  0.00  0.00    -0.331 N 
ATOM     26  C   UNL     1       9.755   5.157  23.755  0.00  0.00    +0.120 A 
ATOM     27  C   UNL     1      10.639   6.082  24.272  0.00  0.00    +0.143 A 
ATOM     28  N   UNL     1       9.936   7.108  24.889  0.00  0.00    -0.231 NA
ATOM     29  C   UNL     1       8.666   6.804  24.740  0.00  0.00    +0.200 A 
BRANCH  27  30
ATOM     30  C   UNL     1      12.095   6.019  24.192  0.00  0.00    +0.261 C 
ATOM     31  O   UNL     1      12.711   5.252  23.462  0.00  0.00    -0.269 OA
ATOM     32  N   UNL     1      12.731   6.906  25.008  0.00  0.00    -0.324 N 
ATOM     33  H   UNL     1      13.738   6.947  25.000  0.00  0.00    +0.145 HD
ATOM     34  H   UNL     1      12.182   7.534  25.581  0.00  0.00    +0.145 HD
ENDBRANCH  27  30
ENDBRANCH  24  25
BRANCH  24  35
ATOM     35  C   UNL     1       6.973   5.169  22.186  0.00  0.00    +0.181 C 
BRANCH  35  36
ATOM     36  O   UNL     1       6.187   6.330  21.916  0.00  0.00    -0.393 OA
ATOM     37  H   UNL     1       6.710   7.115  22.165  0.00  0.00    +0.209 HD
ENDBRANCH  35  36
ENDBRANCH  24  35
ENDBRANCH  23  24
ENDBRANCH  22  23
ENDBRANCH   1  22
TORSDOF 11
ENDMDL
MODEL 7
REMARK VINA RESULT:      -7.2      2.740      5.250
REMARK  Name = 
REMARK  11 active torsions:
REMARK  status: ('A' for Active; 'I' for Inactive)
REMARK    1  A    between atoms: C_2  and  C_3
REMARK    2  A    between atoms: C_2  and  C_5
REMARK    3  A    between atoms: C_2  and  N_27
REMARK    4  A    between atoms: C_3  and  O_4
REMARK    5  A    between atoms: C_5  and  C_6
REMARK    6  A    between atoms: C_6  and  N_7
REMARK    7  A    between atoms: C_13  and  N_14
REMARK    8  A    between atoms: C_15  and  C_17
REMARK    9  A    between atoms: C_17  and  C_18
REMARK   10  A    between atoms: C_18  and  C_19
REMARK   11  A    between atoms: C_30  and  C_32
REMARK                            x       y       z     vdW  Elec       q    Type
REMARK                         _______ _______ _______ _____ _____    ______ ____
ROOT
ATOM      1  N   UNL     1       3.844  -2.757  26.373  0.00  0.00    -0.347 N 
ATOM      2  C   UNL     1       4.928  -1.988  25.999  0.00  0.00    +0.051 A 
ATOM      3  C   UNL     1       5.563  -1.832  24.756  0.00  0.00    +0.049 A 
ATOM      4  C   UNL     1       6.701  -1.024  24.663  0.00  0.00    +0.035 A 
ATOM      5  C   UNL     1       7.142  -0.330  25.790  0.00  0.00    +0.024 A 
ATOM      6  C   UNL     1       6.493  -0.472  27.029  0.00  0.00    +0.012 A 
ATOM      7  C   UNL     1       5.373  -1.320  27.139  0.00  0.00    -0.000 A 
ATOM      8  C   UNL     1       4.506  -1.687  28.205  0.00  0.00    +0.027 A 
ATOM      9  C   UNL     1       3.569  -2.562  27.704  0.00  0.00    +0.087 A 
ENDROOT
BRANCH   4  10
ATOM     10  N   UNL     1       7.418  -0.871  23.448  0.00  0.00    -0.285 N 
ATOM     11  H   UNL     1       7.037  -0.217  22.776  0.00  0.00    +0.155 HD
ATOM     12  C   UNL     1       8.659  -1.427  23.175  0.00  0.00    +0.218 C 
ATOM     13  O   UNL     1       9.365  -2.011  23.995  0.00  0.00    -0.275 OA
BRANCH  12  14
ATOM     14  C   UNL     1       9.139  -1.204  21.754  0.00  0.00    +0.101 C 
BRANCH  14  15
ATOM     15  C   UNL     1      10.069   0.013  21.731  0.00  0.00    +0.044 C 
BRANCH  15  16
ATOM     16  C   UNL     1       9.453   1.264  22.300  0.00  0.00    -0.047 A 
ATOM     17  C   UNL     1       8.379   1.891  21.657  0.00  0.00    +0.003 A 
ATOM     18  C   UNL     1       7.840   3.072  22.171  0.00  0.00    +0.000 A 
ATOM     19  C   UNL     1       8.367   3.634  23.333  0.00  0.00    +0.000 A 
ATOM     20  C   UNL     1       9.436   3.017  23.980  0.00  0.00    +0.000 A 
ATOM     21  C   UNL     1       9.976   1.837  23.468  0.00  0.00    +0.003 A 
ENDBRANCH  15  16
ENDBRANCH  14  15
ENDBRANCH  12  14
ENDBRANCH   4  10
BRANCH   1  22
ATOM     22  C   UNL     1       3.110  -3.668  25.507  0.00  0.00    +0.124 C 
BRANCH  22  23
ATOM     23  C   UNL     1       3.509  -5.143  25.655  0.00  0.00    +0.049 C 
BRANCH  23  24
ATOM     24  C   UNL     1       4.238  -5.722  24.430  0.00  0.00    +0.115 C 
BRANCH  24  25
ATOM     25  N   UNL     1       5.666  -5.427  24.472  0.00  0.00    -0.331 N 
ATOM     26  C   UNL     1       6.455  -5.377  25.585  0.00  0.00    +0.120 A 
ATOM     27  C   UNL     1       7.728  -5.104  25.129  0.00  0.00    +0.143 A 
ATOM     28  N   UNL     1       7.715  -4.986  23.746  0.00  0.00    -0.231 NA
ATOM     29  C   UNL     1       6.467  -5.189  23.387  0.00  0.00    +0.200 A 
BRANCH  27  30
ATOM     30  C   UNL     1       8.924  -4.960  25.952  0.00  0.00    +0.261 C 
ATOM     31  O   UNL     1       8.983  -4.277  26.968  0.00  0.00    -0.269 OA
ATOM     32  N   UNL     1       9.997  -5.666  25.495  0.00  0.00    -0.324 N 
ATOM     33  H   UNL     1      10.859  -5.643  26.016  0.00  0.00    +0.145 HD
ATOM     34  H   UNL     1       9.899  -6.232  24.662  0.00  0.00    +0.145 HD
ENDBRANCH  27  30
ENDBRANCH  24  25
BRANCH  24  35
ATOM     35  C   UNL     1       4.000  -7.238  24.315  0.00  0.00    +0.181 C 
BRANCH  35  36
ATOM     36  O   UNL     1       3.755  -7.820  25.595  0.00  0.00    -0.393 OA
ATOM     37  H   UNL     1       4.061  -8.746  25.571  0.00  0.00    +0.209 HD
ENDBRANCH  35  36
ENDBRANCH  24  35
ENDBRANCH  23  24
ENDBRANCH  22  23
ENDBRANCH   1  22
TORSDOF 11
ENDMDL
MODEL 8
REMARK VINA RESULT:      -7.1      3.054      5.664
REMARK  Name = 
REMARK  11 active torsions:
REMARK  status: ('A' for Active; 'I' for Inactive)
REMARK    1  A    between atoms: C_2  and  C_3
REMARK    2  A    between atoms: C_2  and  C_5
REMARK    3  A    between atoms: C_2  and  N_27
REMARK    4  A    between atoms: C_3  and  O_4
REMARK    5  A    between atoms: C_5  and  C_6
REMARK    6  A    between atoms: C_6  and  N_7
REMARK    7  A    between atoms: C_13  and  N_14
REMARK    8  A    between atoms: C_15  and  C_17
REMARK    9  A    between atoms: C_17  and  C_18
REMARK   10  A    between atoms: C_18  and  C_19
REMARK   11  A    between atoms: C_30  and  C_32
REMARK                            x       y       z     vdW  Elec       q    Type
REMARK                         _______ _______ _______ _____ _____    ______ ____
ROOT
ATOM      1  N   UNL     1       4.175  -4.178  27.379  0.00  0.00    -0.347 N 
ATOM      2  C   UNL     1       5.085  -3.305  26.815  0.00  0.00    +0.051 A 
ATOM      3  C   UNL     1       5.958  -3.459  25.726  0.00  0.00    +0.049 A 
ATOM      4  C   UNL     1       6.836  -2.420  25.396  0.00  0.00    +0.035 A 
ATOM      5  C   UNL     1       6.776  -1.222  26.109  0.00  0.00    +0.024 A 
ATOM      6  C   UNL     1       5.887  -1.063  27.187  0.00  0.00    +0.012 A 
ATOM      7  C   UNL     1       5.033  -2.123  27.551  0.00  0.00    -0.000 A 
ATOM      8  C   UNL     1       4.044  -2.299  28.558  0.00  0.00    +0.027 A 
ATOM      9  C   UNL     1       3.525  -3.567  28.421  0.00  0.00    +0.087 A 
ENDROOT
BRANCH   4  10
ATOM     10  N   UNL     1       7.778  -2.537  24.343  0.00  0.00    -0.285 N 
ATOM     11  H   UNL     1       8.609  -3.082  24.537  0.00  0.00    +0.155 HD
ATOM     12  C   UNL     1       7.585  -2.096  23.043  0.00  0.00    +0.218 C 
ATOM     13  O   UNL     1       6.523  -1.669  22.594  0.00  0.00    -0.275 OA
BRANCH  12  14
ATOM     14  C   UNL     1       8.805  -2.239  22.152  0.00  0.00    +0.101 C 
BRANCH  14  15
ATOM     15  C   UNL     1      10.040  -1.766  22.924  0.00  0.00    +0.044 C 
BRANCH  15  16
ATOM     16  C   UNL     1      10.184  -0.268  22.990  0.00  0.00    -0.047 A 
ATOM     17  C   UNL     1      10.600   0.361  24.169  0.00  0.00    +0.003 A 
ATOM     18  C   UNL     1      10.692   1.753  24.232  0.00  0.00    +0.000 A 
ATOM     19  C   UNL     1      10.372   2.527  23.117  0.00  0.00    +0.000 A 
ATOM     20  C   UNL     1       9.957   1.909  21.939  0.00  0.00    +0.000 A 
ATOM     21  C   UNL     1       9.865   0.519  21.875  0.00  0.00    +0.003 A 
ENDBRANCH  15  16
ENDBRANCH  14  15
ENDBRANCH  12  14
ENDBRANCH   4  10
BRANCH   1  22
ATOM     22  C   UNL     1       3.949  -5.554  26.962  0.00  0.00    +0.124 C 
BRANCH  22  23
ATOM     23  C   UNL     1       2.553  -5.819  26.382  0.00  0.00    +0.049 C 
BRANCH  23  24
ATOM     24  C   UNL     1       2.566  -6.480  24.992  0.00  0.00    +0.115 C 
BRANCH  24  25
ATOM     25  N   UNL     1       3.582  -5.886  24.129  0.00  0.00    -0.331 N 
ATOM     26  C   UNL     1       4.833  -6.376  23.889  0.00  0.00    +0.120 A 
ATOM     27  C   UNL     1       5.409  -5.504  22.988  0.00  0.00    +0.143 A 
ATOM     28  N   UNL     1       4.514  -4.488  22.682  0.00  0.00    -0.231 NA
ATOM     29  C   UNL     1       3.431  -4.751  23.379  0.00  0.00    +0.200 A 
BRANCH  27  30
ATOM     30  C   UNL     1       6.750  -5.612  22.424  0.00  0.00    +0.261 C 
ATOM     31  O   UNL     1       7.782  -5.527  23.080  0.00  0.00    -0.269 OA
ATOM     32  N   UNL     1       6.767  -5.824  21.077  0.00  0.00    -0.324 N 
ATOM     33  H   UNL     1       7.652  -5.935  20.608  0.00  0.00    +0.145 HD
ATOM     34  H   UNL     1       5.891  -5.906  20.578  0.00  0.00    +0.145 HD
ENDBRANCH  27  30
ENDBRANCH  24  25
BRANCH  24  35
ATOM     35  C   UNL     1       2.775  -8.001  25.109  0.00  0.00    +0.181 C 
BRANCH  35  36
ATOM     36  O   UNL     1       2.364  -8.671  23.918  0.00  0.00    -0.393 OA
ATOM     37  H   UNL     1       2.309  -9.626  24.111  0.00  0.00    +0.209 HD
ENDBRANCH  35  36
ENDBRANCH  24  35
ENDBRANCH  23  24
ENDBRANCH  22  23
ENDBRANCH   1  22
TORSDOF 11
ENDMDL
MODEL 9
REMARK VINA RESULT:      -7.1      2.780      5.424
REMARK  Name = 
REMARK  11 active torsions:
REMARK  status: ('A' for Active; 'I' for Inactive)
REMARK    1  A    between atoms: C_2  and  C_3
REMARK    2  A    between atoms: C_2  and  C_5
REMARK    3  A    between atoms: C_2  and  N_27
REMARK    4  A    between atoms: C_3  and  O_4
REMARK    5  A    between atoms: C_5  and  C_6
REMARK    6  A    between atoms: C_6  and  N_7
REMARK    7  A    between atoms: C_13  and  N_14
REMARK    8  A    between atoms: C_15  and  C_17
REMARK    9  A    between atoms: C_17  and  C_18
REMARK   10  A    between atoms: C_18  and  C_19
REMARK   11  A    between atoms: C_30  and  C_32
REMARK                            x       y       z     vdW  Elec       q    Type
REMARK                         _______ _______ _______ _____ _____    ______ ____
ROOT
ATOM      1  N   UNL     1       5.299  -5.280  27.079  0.00  0.00    -0.347 N 
ATOM      2  C   UNL     1       6.386  -4.751  26.411  0.00  0.00    +0.051 A 
ATOM      3  C   UNL     1       6.459  -3.911  25.288  0.00  0.00    +0.049 A 
ATOM      4  C   UNL     1       7.710  -3.568  24.766  0.00  0.00    +0.035 A 
ATOM      5  C   UNL     1       8.865  -4.009  25.413  0.00  0.00    +0.024 A 
ATOM      6  C   UNL     1       8.790  -4.834  26.548  0.00  0.00    +0.012 A 
ATOM      7  C   UNL     1       7.532  -5.219  27.052  0.00  0.00    -0.000 A 
ATOM      8  C   UNL     1       7.103  -6.021  28.145  0.00  0.00    +0.027 A 
ATOM      9  C   UNL     1       5.726  -6.032  28.144  0.00  0.00    +0.087 A 
ENDROOT
BRANCH   4  10
ATOM     10  N   UNL     1       7.847  -2.769  23.602  0.00  0.00    -0.285 N 
ATOM     11  H   UNL     1       6.999  -2.569  23.087  0.00  0.00    +0.155 HD
ATOM     12  C   UNL     1       9.010  -2.126  23.204  0.00  0.00    +0.218 C 
ATOM     13  O   UNL     1      10.037  -2.050  23.875  0.00  0.00    -0.275 OA
BRANCH  12  14
ATOM     14  C   UNL     1       8.907  -1.438  21.856  0.00  0.00    +0.101 C 
BRANCH  14  15
ATOM     15  C   UNL     1       9.954  -0.322  21.788  0.00  0.00    +0.044 C 
BRANCH  15  16
ATOM     16  C   UNL     1       9.449   1.019  22.252  0.00  0.00    -0.047 A 
ATOM     17  C   UNL     1       8.270   1.562  21.726  0.00  0.00    +0.003 A 
ATOM     18  C   UNL     1       7.831   2.823  22.133  0.00  0.00    +0.000 A 
ATOM     19  C   UNL     1       8.563   3.550  23.070  0.00  0.00    +0.000 A 
ATOM     20  C   UNL     1       9.737   3.018  23.600  0.00  0.00    +0.000 A 
ATOM     21  C   UNL     1      10.177   1.758  23.194  0.00  0.00    +0.003 A 
ENDBRANCH  15  16
ENDBRANCH  14  15
ENDBRANCH  12  14
ENDBRANCH   4  10
BRANCH   1  22
ATOM     22  C   UNL     1       3.904  -5.102  26.705  0.00  0.00    +0.124 C 
BRANCH  22  23
ATOM     23  C   UNL     1       3.170  -6.405  26.355  0.00  0.00    +0.049 C 
BRANCH  23  24
ATOM     24  C   UNL     1       2.548  -6.417  24.947  0.00  0.00    +0.115 C 
BRANCH  24  25
ATOM     25  N   UNL     1       3.455  -5.842  23.959  0.00  0.00    -0.331 N 
ATOM     26  C   UNL     1       4.478  -6.485  23.323  0.00  0.00    +0.120 A 
ATOM     27  C   UNL     1       5.022  -5.555  22.460  0.00  0.00    +0.143 A 
ATOM     28  N   UNL     1       4.335  -4.354  22.571  0.00  0.00    -0.231 NA
ATOM     29  C   UNL     1       3.403  -4.563  23.474  0.00  0.00    +0.200 A 
BRANCH  27  30
ATOM     30  C   UNL     1       6.144  -5.777  21.554  0.00  0.00    +0.261 C 
ATOM     31  O   UNL     1       6.068  -5.703  20.333  0.00  0.00    -0.269 OA
ATOM     32  N   UNL     1       7.314  -6.074  22.187  0.00  0.00    -0.324 N 
ATOM     33  H   UNL     1       8.147  -6.219  21.639  0.00  0.00    +0.145 HD
ATOM     34  H   UNL     1       7.336  -6.107  23.198  0.00  0.00    +0.145 HD
ENDBRANCH  27  30
ENDBRANCH  24  25
BRANCH  24  35
ATOM     35  C   UNL     1       2.137  -7.844  24.541  0.00  0.00    +0.181 C 
BRANCH  35  36
ATOM     36  O   UNL     1       2.827  -8.821  25.321  0.00  0.00    -0.393 OA
ATOM     37  H   UNL     1       3.785  -8.669  25.218  0.00  0.00    +0.209 HD
ENDBRANCH  35  36
ENDBRANCH  24  35
ENDBRANCH  23  24
ENDBRANCH  22  23
ENDBRANCH   1  22
TORSDOF 11
ENDMDL
