MODEL 1
REMARK VINA RESULT:      -5.3      0.000      0.000
REMARK  Name = 
REMARK  12 active torsions:
REMARK  status: ('A' for Active; 'I' for Inactive)
REMARK    1  A    between atoms: C_2  and  N_3
REMARK    2  A    between atoms: C_4  and  O_6
REMARK    3  A    between atoms: C_7  and  C_9
REMARK    4  A    between atoms: C_9  and  O_10
REMARK    5  A    between atoms: C_12  and  O_14
REMARK    6  A    between atoms: O_14  and  C_15
REMARK    7  A    between atoms: C_15  and  C_16
REMARK    8  A    between atoms: C_16  and  C_17
REMARK    9  A    between atoms: C_17  and  C_18
REMARK   10  A    between atoms: C_18  and  C_19
REMARK   11  A    between atoms: C_19  and  C_20
REMARK   12  A    between atoms: C_21  and  O_23
REMARK                            x       y       z     vdW  Elec       q    Type
REMARK                         _______ _______ _______ _____ _____    ______ ____
ROOT
ATOM      1  C   UNL     1       5.323  -4.705  24.089  0.00  0.00    +0.116 C 
ATOM      2  C   UNL     1       6.748  -4.478  24.611  0.00  0.00    +0.189 C 
ATOM      3  C   UNL     1       7.791  -4.500  23.483  0.00  0.00    +0.281 C 
ATOM      4  O   UNL     1       7.745  -5.725  22.750  0.00  0.00    -0.341 OA
ATOM      5  C   UNL     1       6.462  -6.171  22.264  0.00  0.00    +0.177 C 
ATOM      6  C   UNL     1       5.272  -5.979  23.227  0.00  0.00    +0.165 C 
ENDROOT
BRANCH   1   7
ATOM      7  N   UNL     1       4.719  -3.557  23.378  0.00  0.00    -0.323 NA
ATOM      8  H   UNL     1       5.052  -2.694  23.816  0.00  0.00    +0.119 HD
ATOM      9  H   UNL     1       5.098  -3.517  22.423  0.00  0.00    +0.119 HD
ENDBRANCH   1   7
BRANCH   2  10
ATOM     10  O   UNL     1       7.054  -5.504  25.577  0.00  0.00    -0.385 OA
ATOM     11  H   UNL     1       6.887  -6.372  25.156  0.00  0.00    +0.210 HD
ENDBRANCH   2  10
BRANCH   6  12
ATOM     12  O   UNL     1       4.015  -6.060  22.547  0.00  0.00    -0.388 OA
ATOM     13  H   UNL     1       3.668  -6.956  22.750  0.00  0.00    +0.210 HD
ENDBRANCH   6  12
BRANCH   3  14
ATOM     14  O   UNL     1       7.727  -3.329  22.662  0.00  0.00    -0.349 OA
BRANCH  14  15
ATOM     15  C   UNL     1       8.136  -2.166  23.394  0.00  0.00    +0.163 C 
BRANCH  15  16
ATOM     16  C   UNL     1       9.654  -2.132  23.609  0.00  0.00    +0.028 C 
BRANCH  16  17
ATOM     17  C   UNL     1      10.407  -1.476  22.439  0.00  0.00    +0.002 C 
BRANCH  17  18
ATOM     18  C   UNL     1       9.481  -0.577  21.609  0.00  0.00    -0.000 C 
BRANCH  18  19
ATOM     19  C   UNL     1       9.762   0.908  21.854  0.00  0.00    -0.003 C 
ATOM     20  C   UNL     1       8.511   1.758  21.699  0.00  0.00    +0.004 C 
ENDBRANCH  18  19
ENDBRANCH  17  18
ENDBRANCH  16  17
ENDBRANCH  15  16
ENDBRANCH  14  15
ENDBRANCH   3  14
BRANCH   5  21
ATOM     21  C   UNL     1       6.227  -5.722  20.816  0.00  0.00    +0.190 C 
BRANCH  21  22
ATOM     22  O   UNL     1       5.750  -4.371  20.793  0.00  0.00    -0.392 OA
ATOM     23  H   UNL     1       6.532  -3.808  20.644  0.00  0.00    +0.210 HD
ENDBRANCH  21  22
ENDBRANCH   5  21
TORSDOF 11
ENDMDL
MODEL 2
REMARK VINA RESULT:      -5.2      5.046      7.086
REMARK  Name = 
REMARK  12 active torsions:
REMARK  status: ('A' for Active; 'I' for Inactive)
REMARK    1  A    between atoms: C_2  and  N_3
REMARK    2  A    between atoms: C_4  and  O_6
REMARK    3  A    between atoms: C_7  and  C_9
REMARK    4  A    between atoms: C_9  and  O_10
REMARK    5  A    between atoms: C_12  and  O_14
REMARK    6  A    between atoms: O_14  and  C_15
REMARK    7  A    between atoms: C_15  and  C_16
REMARK    8  A    between atoms: C_16  and  C_17
REMARK    9  A    between atoms: C_17  and  C_18
REMARK   10  A    between atoms: C_18  and  C_19
REMARK   11  A    between atoms: C_19  and  C_20
REMARK   12  A    between atoms: C_21  and  O_23
REMARK                            x       y       z     vdW  Elec       q    Type
REMARK                         _______ _______ _______ _____ _____    ______ ____
ROOT
ATOM      1  C   UNL     1       8.646   1.452  21.731  0.00  0.00    +0.116 C 
ATOM      2  C   UNL     1       7.645   2.173  22.643  0.00  0.00    +0.189 C 
ATOM      3  C   UNL     1       7.965   1.972  24.132  0.00  0.00    +0.281 C 
ATOM      4  O   UNL     1       8.006   0.586  24.477  0.00  0.00    -0.341 OA
ATOM      5  C   UNL     1       8.814  -0.286  23.662  0.00  0.00    +0.177 C 
ATOM      6  C   UNL     1       8.765  -0.027  22.141  0.00  0.00    +0.165 C 
ENDROOT
BRANCH   1   7
ATOM      7  N   UNL     1       9.979   2.085  21.629  0.00  0.00    -0.323 NA
ATOM      8  H   UNL     1      10.584   1.683  22.349  0.00  0.00    +0.119 HD
ATOM      9  H   UNL     1      10.419   1.800  20.744  0.00  0.00    +0.119 HD
ENDBRANCH   1   7
BRANCH   2  10
ATOM     10  O   UNL     1       6.321   1.677  22.357  0.00  0.00    -0.385 OA
ATOM     11  H   UNL     1       6.072   1.057  23.073  0.00  0.00    +0.210 HD
ENDBRANCH   2  10
BRANCH   6  12
ATOM     12  O   UNL     1       9.867  -0.637  21.459  0.00  0.00    -0.388 OA
ATOM     13  H   UNL     1      10.667  -0.339  21.942  0.00  0.00    +0.210 HD
ENDBRANCH   6  12
BRANCH   3  14
ATOM     14  O   UNL     1       9.122   2.708  24.542  0.00  0.00    -0.349 OA
BRANCH  14  15
ATOM     15  C   UNL     1       8.814   4.099  24.709  0.00  0.00    +0.163 C 
BRANCH  15  16
ATOM     16  C   UNL     1       9.604   4.979  23.733  0.00  0.00    +0.028 C 
BRANCH  16  17
ATOM     17  C   UNL     1      10.268   6.184  24.422  0.00  0.00    +0.002 C 
BRANCH  17  18
ATOM     18  C   UNL     1      11.798   6.119  24.316  0.00  0.00    -0.000 C 
BRANCH  18  19
ATOM     19  C   UNL     1      12.253   5.018  23.353  0.00  0.00    -0.003 C 
ATOM     20  C   UNL     1      13.137   5.563  22.242  0.00  0.00    +0.004 C 
ENDBRANCH  18  19
ENDBRANCH  17  18
ENDBRANCH  16  17
ENDBRANCH  15  16
ENDBRANCH  14  15
ENDBRANCH   3  14
BRANCH   5  21
ATOM     21  C   UNL     1      10.214  -0.472  24.262  0.00  0.00    +0.190 C 
BRANCH  21  22
ATOM     22  O   UNL     1      11.027   0.673  23.973  0.00  0.00    -0.392 OA
ATOM     23  H   UNL     1      11.733   0.363  23.376  0.00  0.00    +0.210 HD
ENDBRANCH  21  22
ENDBRANCH   5  21
TORSDOF 11
ENDMDL
MODEL 3
REMARK VINA RESULT:      -5.1      2.308      2.887
REMARK  Name = 
REMARK  12 active torsions:
REMARK  status: ('A' for Active; 'I' for Inactive)
REMARK    1  A    between atoms: C_2  and  N_3
REMARK    2  A    between atoms: C_4  and  O_6
REMARK    3  A    between atoms: C_7  and  C_9
REMARK    4  A    between atoms: C_9  and  O_10
REMARK    5  A    between atoms: C_12  and  O_14
REMARK    6  A    between atoms: O_14  and  C_15
REMARK    7  A    between atoms: C_15  and  C_16
REMARK    8  A    between atoms: C_16  and  C_17
REMARK    9  A    between atoms: C_17  and  C_18
REMARK   10  A    between atoms: C_18  and  C_19
REMARK   11  A    between atoms: C_19  and  C_20
REMARK   12  A    between atoms: C_21  and  O_23
REMARK                            x       y       z     vdW  Elec       q    Type
REMARK                         _______ _______ _______ _____ _____    ______ ____
ROOT
ATOM      1  C   UNL     1       7.845  -5.032  26.074  0.00  0.00    +0.116 C 
ATOM      2  C   UNL     1       9.304  -4.732  25.706  0.00  0.00    +0.189 C 
ATOM      3  C   UNL     1       9.421  -3.621  24.651  0.00  0.00    +0.281 C 
ATOM      4  O   UNL     1       8.690  -3.944  23.466  0.00  0.00    -0.341 OA
ATOM      5  C   UNL     1       7.318  -4.360  23.614  0.00  0.00    +0.177 C 
ATOM      6  C   UNL     1       7.023  -5.302  24.800  0.00  0.00    +0.165 C 
ENDROOT
BRANCH   1   7
ATOM      7  N   UNL     1       7.187  -4.021  26.928  0.00  0.00    -0.323 NA
ATOM      8  H   UNL     1       6.212  -3.930  26.630  0.00  0.00    +0.119 HD
ATOM      9  H   UNL     1       7.123  -4.383  27.888  0.00  0.00    +0.119 HD
ENDBRANCH   1   7
BRANCH   2  10
ATOM     10  O   UNL     1       9.912  -5.942  25.208  0.00  0.00    -0.385 OA
ATOM     11  H   UNL     1       9.193  -6.552  24.943  0.00  0.00    +0.210 HD
ENDBRANCH   2  10
BRANCH   6  12
ATOM     12  O   UNL     1       5.627  -5.341  25.118  0.00  0.00    -0.388 OA
ATOM     13  H   UNL     1       5.169  -5.021  24.310  0.00  0.00    +0.210 HD
ENDBRANCH   6  12
BRANCH   3  14
ATOM     14  O   UNL     1       9.117  -2.330  25.188  0.00  0.00    -0.349 OA
BRANCH  14  15
ATOM     15  C   UNL     1       9.575  -1.290  24.313  0.00  0.00    +0.163 C 
BRANCH  15  16
ATOM     16  C   UNL     1       9.898  -0.001  25.080  0.00  0.00    +0.028 C 
BRANCH  16  17
ATOM     17  C   UNL     1      10.913   0.892  24.344  0.00  0.00    +0.002 C 
BRANCH  17  18
ATOM     18  C   UNL     1      10.212   2.015  23.567  0.00  0.00    -0.000 C 
BRANCH  18  19
ATOM     19  C   UNL     1      10.075   1.676  22.080  0.00  0.00    -0.003 C 
ATOM     20  C   UNL     1       8.622   1.494  21.670  0.00  0.00    +0.004 C 
ENDBRANCH  18  19
ENDBRANCH  17  18
ENDBRANCH  16  17
ENDBRANCH  15  16
ENDBRANCH  14  15
ENDBRANCH   3  14
BRANCH   5  21
ATOM     21  C   UNL     1       6.355  -3.178  23.446  0.00  0.00    +0.190 C 
BRANCH  21  22
ATOM     22  O   UNL     1       6.199  -2.491  24.694  0.00  0.00    -0.392 OA
ATOM     23  H   UNL     1       6.905  -1.820  24.727  0.00  0.00    +0.210 HD
ENDBRANCH  21  22
ENDBRANCH   5  21
TORSDOF 11
ENDMDL
MODEL 4
REMARK VINA RESULT:      -5.0      3.257      6.740
REMARK  Name = 
REMARK  12 active torsions:
REMARK  status: ('A' for Active; 'I' for Inactive)
REMARK    1  A    between atoms: C_2  and  N_3
REMARK    2  A    between atoms: C_4  and  O_6
REMARK    3  A    between atoms: C_7  and  C_9
REMARK    4  A    between atoms: C_9  and  O_10
REMARK    5  A    between atoms: C_12  and  O_14
REMARK    6  A    between atoms: O_14  and  C_15
REMARK    7  A    between atoms: C_15  and  C_16
REMARK    8  A    between atoms: C_16  and  C_17
REMARK    9  A    between atoms: C_17  and  C_18
REMARK   10  A    between atoms: C_18  and  C_19
REMARK   11  A    between atoms: C_19  and  C_20
REMARK   12  A    between atoms: C_21  and  O_23
REMARK                            x       y       z     vdW  Elec       q    Type
REMARK                         _______ _______ _______ _____ _____    ______ ____
ROOT
ATOM      1  C   UNL     1       9.569   0.654  21.532  0.00  0.00    +0.116 C 
ATOM      2  C   UNL     1       9.236  -0.824  21.770  0.00  0.00    +0.189 C 
ATOM      3  C   UNL     1       8.462  -1.043  23.079  0.00  0.00    +0.281 C 
ATOM      4  O   UNL     1       9.181  -0.532  24.204  0.00  0.00    -0.341 OA
ATOM      5  C   UNL     1       9.679   0.819  24.128  0.00  0.00    +0.177 C 
ATOM      6  C   UNL     1      10.272   1.244  22.768  0.00  0.00    +0.165 C 
ENDROOT
BRANCH   1   7
ATOM      7  N   UNL     1       8.431   1.500  21.112  0.00  0.00    -0.323 NA
ATOM      8  H   UNL     1       7.834   0.953  20.488  0.00  0.00    +0.119 HD
ATOM      9  H   UNL     1       7.835   1.689  21.929  0.00  0.00    +0.119 HD
ENDBRANCH   1   7
BRANCH   2  10
ATOM     10  O   UNL     1      10.467  -1.576  21.800  0.00  0.00    -0.385 OA
ATOM     11  H   UNL     1      10.241  -2.524  21.716  0.00  0.00    +0.210 HD
ENDBRANCH   2  10
BRANCH   6  12
ATOM     12  O   UNL     1      10.365   2.668  22.646  0.00  0.00    -0.388 OA
ATOM     13  H   UNL     1       9.625   2.925  22.055  0.00  0.00    +0.210 HD
ENDBRANCH   6  12
BRANCH   3  14
ATOM     14  O   UNL     1       7.111  -0.579  22.995  0.00  0.00    -0.349 OA
BRANCH  14  15
ATOM     15  C   UNL     1       6.257  -1.322  23.876  0.00  0.00    +0.163 C 
BRANCH  15  16
ATOM     16  C   UNL     1       6.378  -2.834  23.646  0.00  0.00    +0.028 C 
BRANCH  16  17
ATOM     17  C   UNL     1       5.425  -3.348  22.553  0.00  0.00    +0.002 C 
BRANCH  17  18
ATOM     18  C   UNL     1       4.811  -4.702  22.937  0.00  0.00    -0.000 C 
BRANCH  18  19
ATOM     19  C   UNL     1       5.690  -5.872  22.485  0.00  0.00    -0.003 C 
ATOM     20  C   UNL     1       6.260  -5.651  21.093  0.00  0.00    +0.004 C 
ENDBRANCH  18  19
ENDBRANCH  17  18
ENDBRANCH  16  17
ENDBRANCH  15  16
ENDBRANCH  14  15
ENDBRANCH   3  14
BRANCH   5  21
ATOM     21  C   UNL     1       8.699   1.812  24.767  0.00  0.00    +0.190 C 
BRANCH  21  22
ATOM     22  O   UNL     1       7.702   2.199  23.814  0.00  0.00    -0.392 OA
ATOM     23  H   UNL     1       7.548   1.420  23.248  0.00  0.00    +0.210 HD
ENDBRANCH  21  22
ENDBRANCH   5  21
TORSDOF 11
ENDMDL
MODEL 5
REMARK VINA RESULT:      -5.0      3.748      7.038
REMARK  Name = 
REMARK  12 active torsions:
REMARK  status: ('A' for Active; 'I' for Inactive)
REMARK    1  A    between atoms: C_2  and  N_3
REMARK    2  A    between atoms: C_4  and  O_6
REMARK    3  A    between atoms: C_7  and  C_9
REMARK    4  A    between atoms: C_9  and  O_10
REMARK    5  A    between atoms: C_12  and  O_14
REMARK    6  A    between atoms: O_14  and  C_15
REMARK    7  A    between atoms: C_15  and  C_16
REMARK    8  A    between atoms: C_16  and  C_17
REMARK    9  A    between atoms: C_17  and  C_18
REMARK   10  A    between atoms: C_18  and  C_19
REMARK   11  A    between atoms: C_19  and  C_20
REMARK   12  A    between atoms: C_21  and  O_23
REMARK                            x       y       z     vdW  Elec       q    Type
REMARK                         _______ _______ _______ _____ _____    ______ ____
ROOT
ATOM      1  C   UNL     1      10.211   2.031  23.191  0.00  0.00    +0.116 C 
ATOM      2  C   UNL     1      10.128   0.632  23.815  0.00  0.00    +0.189 C 
ATOM      3  C   UNL     1       8.701   0.064  23.782  0.00  0.00    +0.281 C 
ATOM      4  O   UNL     1       7.776   0.932  24.441  0.00  0.00    -0.341 OA
ATOM      5  C   UNL     1       7.777   2.324  24.067  0.00  0.00    +0.177 C 
ATOM      6  C   UNL     1       9.164   2.959  23.833  0.00  0.00    +0.165 C 
ENDROOT
BRANCH   1   7
ATOM      7  N   UNL     1      10.126   2.072  21.715  0.00  0.00    -0.323 NA
ATOM      8  H   UNL     1      10.327   1.136  21.354  0.00  0.00    +0.119 HD
ATOM      9  H   UNL     1       9.150   2.244  21.440  0.00  0.00    +0.119 HD
ENDBRANCH   1   7
BRANCH   2  10
ATOM     10  O   UNL     1      10.591   0.707  25.180  0.00  0.00    -0.385 OA
ATOM     11  H   UNL     1      10.016   0.132  25.724  0.00  0.00    +0.210 HD
ENDBRANCH   2  10
BRANCH   6  12
ATOM     12  O   UNL     1       9.074   4.182  23.092  0.00  0.00    -0.388 OA
ATOM     13  H   UNL     1       8.126   4.434  23.123  0.00  0.00    +0.210 HD
ENDBRANCH   6  12
BRANCH   3  14
ATOM     14  O   UNL     1       8.300  -0.319  22.463  0.00  0.00    -0.349 OA
BRANCH  14  15
ATOM     15  C   UNL     1       8.542  -1.715  22.238  0.00  0.00    +0.163 C 
BRANCH  15  16
ATOM     16  C   UNL     1       7.473  -2.593  22.900  0.00  0.00    +0.028 C 
BRANCH  16  17
ATOM     17  C   UNL     1       8.026  -3.948  23.375  0.00  0.00    +0.002 C 
BRANCH  17  18
ATOM     18  C   UNL     1       6.951  -5.042  23.321  0.00  0.00    -0.000 C 
BRANCH  18  19
ATOM     19  C   UNL     1       7.167  -5.991  22.138  0.00  0.00    -0.003 C 
ATOM     20  C   UNL     1       6.259  -5.654  20.965  0.00  0.00    +0.004 C 
ENDBRANCH  18  19
ENDBRANCH  17  18
ENDBRANCH  16  17
ENDBRANCH  15  16
ENDBRANCH  14  15
ENDBRANCH   3  14
BRANCH   5  21
ATOM     21  C   UNL     1       6.720   2.615  22.993  0.00  0.00    +0.190 C 
BRANCH  21  22
ATOM     22  O   UNL     1       7.256   2.342  21.692  0.00  0.00    -0.392 OA
ATOM     23  H   UNL     1       7.503   1.399  21.691  0.00  0.00    +0.210 HD
ENDBRANCH  21  22
ENDBRANCH   5  21
TORSDOF 11
ENDMDL
MODEL 6
REMARK VINA RESULT:      -4.9      2.148      3.625
REMARK  Name = 
REMARK  12 active torsions:
REMARK  status: ('A' for Active; 'I' for Inactive)
REMARK    1  A    between atoms: C_2  and  N_3
REMARK    2  A    between atoms: C_4  and  O_6
REMARK    3  A    between atoms: C_7  and  C_9
REMARK    4  A    between atoms: C_9  and  O_10
REMARK    5  A    between atoms: C_12  and  O_14
REMARK    6  A    between atoms: O_14  and  C_15
REMARK    7  A    between atoms: C_15  and  C_16
REMARK    8  A    between atoms: C_16  and  C_17
REMARK    9  A    between atoms: C_17  and  C_18
REMARK   10  A    between atoms: C_18  and  C_19
REMARK   11  A    between atoms: C_19  and  C_20
REMARK   12  A    between atoms: C_21  and  O_23
REMARK                            x       y       z     vdW  Elec       q    Type
REMARK                         _______ _______ _______ _____ _____    ______ ____
ROOT
ATOM      1  C   UNL     1       8.458  -5.364  24.396  0.00  0.00    +0.116 C 
ATOM      2  C   UNL     1       7.705  -4.855  23.160  0.00  0.00    +0.189 C 
ATOM      3  C   UNL     1       7.017  -3.505  23.412  0.00  0.00    +0.281 C 
ATOM      4  O   UNL     1       6.117  -3.574  24.519  0.00  0.00    -0.341 OA
ATOM      5  C   UNL     1       6.610  -4.131  25.754  0.00  0.00    +0.177 C 
ATOM      6  C   UNL     1       7.523  -5.367  25.619  0.00  0.00    +0.165 C 
ENDROOT
BRANCH   1   7
ATOM      7  N   UNL     1       9.726  -4.666  24.697  0.00  0.00    -0.323 NA
ATOM      8  H   UNL     1      10.456  -5.045  24.089  0.00  0.00    +0.119 HD
ATOM      9  H   UNL     1       9.645  -3.682  24.407  0.00  0.00    +0.119 HD
ENDBRANCH   1   7
BRANCH   2  10
ATOM     10  O   UNL     1       6.721  -5.840  22.781  0.00  0.00    -0.385 OA
ATOM     11  H   UNL     1       6.444  -6.314  23.592  0.00  0.00    +0.210 HD
ENDBRANCH   2  10
BRANCH   6  12
ATOM     12  O   UNL     1       8.279  -5.606  26.812  0.00  0.00    -0.388 OA
ATOM     13  H   UNL     1       8.308  -6.583  26.908  0.00  0.00    +0.210 HD
ENDBRANCH   6  12
BRANCH   3  14
ATOM     14  O   UNL     1       7.954  -2.426  23.491  0.00  0.00    -0.349 OA
BRANCH  14  15
ATOM     15  C   UNL     1       8.489  -2.114  22.197  0.00  0.00    +0.163 C 
BRANCH  15  16
ATOM     16  C   UNL     1       9.642  -1.107  22.284  0.00  0.00    +0.028 C 
BRANCH  16  17
ATOM     17  C   UNL     1       9.383   0.168  21.462  0.00  0.00    +0.002 C 
BRANCH  17  18
ATOM     18  C   UNL     1      10.061   1.391  22.095  0.00  0.00    -0.000 C 
BRANCH  18  19
ATOM     19  C   UNL     1       9.893   1.408  23.617  0.00  0.00    -0.003 C 
ATOM     20  C   UNL     1       9.474   2.777  24.129  0.00  0.00    +0.004 C 
ENDBRANCH  18  19
ENDBRANCH  17  18
ENDBRANCH  16  17
ENDBRANCH  15  16
ENDBRANCH  14  15
ENDBRANCH   3  14
BRANCH   5  21
ATOM     21  C   UNL     1       7.111  -3.032  26.701  0.00  0.00    +0.190 C 
BRANCH  21  22
ATOM     22  O   UNL     1       8.481  -2.726  26.415  0.00  0.00    -0.392 OA
ATOM     23  H   UNL     1       8.765  -3.357  25.729  0.00  0.00    +0.210 HD
ENDBRANCH  21  22
ENDBRANCH   5  21
TORSDOF 11
ENDMDL
MODEL 7
REMARK VINA RESULT:      -4.9      2.154      2.647
REMARK  Name = 
REMARK  12 active torsions:
REMARK  status: ('A' for Active; 'I' for Inactive)
REMARK    1  A    between atoms: C_2  and  N_3
REMARK    2  A    between atoms: C_4  and  O_6
REMARK    3  A    between atoms: C_7  and  C_9
REMARK    4  A    between atoms: C_9  and  O_10
REMARK    5  A    between atoms: C_12  and  O_14
REMARK    6  A    between atoms: O_14  and  C_15
REMARK    7  A    between atoms: C_15  and  C_16
REMARK    8  A    between atoms: C_16  and  C_17
REMARK    9  A    between atoms: C_17  and  C_18
REMARK   10  A    between atoms: C_18  and  C_19
REMARK   11  A    between atoms: C_19  and  C_20
REMARK   12  A    between atoms: C_21  and  O_23
REMARK                            x       y       z     vdW  Elec       q    Type
REMARK                         _______ _______ _______ _____ _____    ______ ____
ROOT
ATOM      1  C   UNL     1       7.750  -4.647  26.403  0.00  0.00    +0.116 C 
ATOM      2  C   UNL     1       9.192  -4.569  25.886  0.00  0.00    +0.189 C 
ATOM      3  C   UNL     1       9.279  -3.905  24.503  0.00  0.00    +0.281 C 
ATOM      4  O   UNL     1       8.467  -4.585  23.543  0.00  0.00    -0.341 OA
ATOM      5  C   UNL     1       7.094  -4.853  23.892  0.00  0.00    +0.177 C 
ATOM      6  C   UNL     1       6.843  -5.303  25.347  0.00  0.00    +0.165 C 
ENDROOT
BRANCH   1   7
ATOM      7  N   UNL     1       7.177  -3.367  26.875  0.00  0.00    -0.323 NA
ATOM      8  H   UNL     1       6.849  -2.840  26.062  0.00  0.00    +0.119 HD
ATOM      9  H   UNL     1       6.321  -3.561  27.411  0.00  0.00    +0.119 HD
ENDBRANCH   1   7
BRANCH   2  10
ATOM     10  O   UNL     1       9.731  -5.906  25.820  0.00  0.00    -0.385 OA
ATOM     11  H   UNL     1      10.074  -6.046  24.914  0.00  0.00    +0.210 HD
ENDBRANCH   2  10
BRANCH   6  12
ATOM     12  O   UNL     1       5.469  -5.158  25.722  0.00  0.00    -0.388 OA
ATOM     13  H   UNL     1       5.149  -6.070  25.890  0.00  0.00    +0.210 HD
ENDBRANCH   6  12
BRANCH   3  14
ATOM     14  O   UNL     1       9.048  -2.494  24.563  0.00  0.00    -0.349 OA
BRANCH  14  15
ATOM     15  C   UNL     1       9.726  -1.817  23.495  0.00  0.00    +0.163 C 
BRANCH  15  16
ATOM     16  C   UNL     1       8.741  -1.178  22.510  0.00  0.00    +0.028 C 
BRANCH  16  17
ATOM     17  C   UNL     1       9.442  -0.342  21.424  0.00  0.00    +0.002 C 
BRANCH  17  18
ATOM     18  C   UNL     1       9.104   1.148  21.557  0.00  0.00    -0.000 C 
BRANCH  18  19
ATOM     19  C   UNL     1      10.161   1.898  22.375  0.00  0.00    -0.003 C 
ATOM     20  C   UNL     1       9.539   2.709  23.501  0.00  0.00    +0.004 C 
ENDBRANCH  18  19
ENDBRANCH  17  18
ENDBRANCH  16  17
ENDBRANCH  15  16
ENDBRANCH  14  15
ENDBRANCH   3  14
BRANCH   5  21
ATOM     21  C   UNL     1       6.160  -3.758  23.362  0.00  0.00    +0.190 C 
BRANCH  21  22
ATOM     22  O   UNL     1       6.070  -2.688  24.313  0.00  0.00    -0.392 OA
ATOM     23  H   UNL     1       5.993  -3.108  25.189  0.00  0.00    +0.210 HD
ENDBRANCH  21  22
ENDBRANCH   5  21
TORSDOF 11
ENDMDL
MODEL 8
REMARK VINA RESULT:      -4.8      2.530      3.518
REMARK  Name = 
REMARK  12 active torsions:
REMARK  status: ('A' for Active; 'I' for Inactive)
REMARK    1  A    between atoms: C_2  and  N_3
REMARK    2  A    between atoms: C_4  and  O_6
REMARK    3  A    between atoms: C_7  and  C_9
REMARK    4  A    between atoms: C_9  and  O_10
REMARK    5  A    between atoms: C_12  and  O_14
REMARK    6  A    between atoms: O_14  and  C_15
REMARK    7  A    between atoms: C_15  and  C_16
REMARK    8  A    between atoms: C_16  and  C_17
REMARK    9  A    between atoms: C_17  and  C_18
REMARK   10  A    between atoms: C_18  and  C_19
REMARK   11  A    between atoms: C_19  and  C_20
REMARK   12  A    between atoms: C_21  and  O_23
REMARK                            x       y       z     vdW  Elec       q    Type
REMARK                         _______ _______ _______ _____ _____    ______ ____
ROOT
ATOM      1  C   UNL     1       6.436  -4.265  25.046  0.00  0.00    +0.116 C 
ATOM      2  C   UNL     1       6.649  -2.791  24.677  0.00  0.00    +0.189 C 
ATOM      3  C   UNL     1       8.137  -2.430  24.558  0.00  0.00    +0.281 C 
ATOM      4  O   UNL     1       8.846  -2.724  25.764  0.00  0.00    -0.341 OA
ATOM      5  C   UNL     1       8.687  -4.038  26.335  0.00  0.00    +0.177 C 
ATOM      6  C   UNL     1       7.259  -4.622  26.297  0.00  0.00    +0.165 C 
ENDROOT
BRANCH   1   7
ATOM      7  N   UNL     1       6.682  -5.232  23.954  0.00  0.00    -0.323 NA
ATOM      8  H   UNL     1       7.009  -4.717  23.133  0.00  0.00    +0.119 HD
ATOM      9  H   UNL     1       7.479  -5.830  24.209  0.00  0.00    +0.119 HD
ENDBRANCH   1   7
BRANCH   2  10
ATOM     10  O   UNL     1       6.027  -1.970  25.687  0.00  0.00    -0.385 OA
ATOM     11  H   UNL     1       5.214  -1.583  25.301  0.00  0.00    +0.210 HD
ENDBRANCH   2  10
BRANCH   6  12
ATOM     12  O   UNL     1       7.255  -6.040  26.498  0.00  0.00    -0.388 OA
ATOM     13  H   UNL     1       7.543  -6.423  25.641  0.00  0.00    +0.210 HD
ENDBRANCH   6  12
BRANCH   3  14
ATOM     14  O   UNL     1       8.737  -2.983  23.383  0.00  0.00    -0.349 OA
BRANCH  14  15
ATOM     15  C   UNL     1       8.451  -2.175  22.233  0.00  0.00    +0.163 C 
BRANCH  15  16
ATOM     16  C   UNL     1       9.672  -1.357  21.792  0.00  0.00    +0.028 C 
BRANCH  16  17
ATOM     17  C   UNL     1       9.334   0.120  21.524  0.00  0.00    +0.002 C 
BRANCH  17  18
ATOM     18  C   UNL     1       9.334   0.940  22.822  0.00  0.00    -0.000 C 
BRANCH  18  19
ATOM     19  C   UNL     1      10.655   0.796  23.583  0.00  0.00    -0.003 C 
ATOM     20  C   UNL     1      10.436   0.389  25.032  0.00  0.00    +0.004 C 
ENDBRANCH  18  19
ENDBRANCH  17  18
ENDBRANCH  16  17
ENDBRANCH  15  16
ENDBRANCH  14  15
ENDBRANCH   3  14
BRANCH   5  21
ATOM     21  C   UNL     1       9.806  -4.984  25.880  0.00  0.00    +0.190 C 
BRANCH  21  22
ATOM     22  O   UNL     1       9.466  -5.573  24.618  0.00  0.00    -0.392 OA
ATOM     23  H   UNL     1       8.495  -5.521  24.545  0.00  0.00    +0.210 HD
ENDBRANCH  21  22
ENDBRANCH   5  21
TORSDOF 11
ENDMDL
MODEL 9
REMARK VINA RESULT:      -4.7      3.464      6.687
REMARK  Name = 
REMARK  12 active torsions:
REMARK  status: ('A' for Active; 'I' for Inactive)
REMARK    1  A    between atoms: C_2  and  N_3
REMARK    2  A    between atoms: C_4  and  O_6
REMARK    3  A    between atoms: C_7  and  C_9
REMARK    4  A    between atoms: C_9  and  O_10
REMARK    5  A    between atoms: C_12  and  O_14
REMARK    6  A    between atoms: O_14  and  C_15
REMARK    7  A    between atoms: C_15  and  C_16
REMARK    8  A    between atoms: C_16  and  C_17
REMARK    9  A    between atoms: C_17  and  C_18
REMARK   10  A    between atoms: C_18  and  C_19
REMARK   11  A    between atoms: C_19  and  C_20
REMARK   12  A    between atoms: C_21  and  O_23
REMARK                            x       y       z     vdW  Elec       q    Type
REMARK                         _______ _______ _______ _____ _____    ______ ____
ROOT
ATOM      1  C   UNL     1       8.931  -0.205  22.125  0.00  0.00    +0.116 C 
ATOM      2  C   UNL     1       9.538  -1.251  23.069  0.00  0.00    +0.189 C 
ATOM      3  C   UNL     1       9.939  -0.648  24.424  0.00  0.00    +0.281 C 
ATOM      4  O   UNL     1      10.857   0.436  24.265  0.00  0.00    -0.341 OA
ATOM      5  C   UNL     1      10.513   1.477  23.328  0.00  0.00    +0.177 C 
ATOM      6  C   UNL     1       9.870   1.009  22.005  0.00  0.00    +0.165 C 
ENDROOT
BRANCH   1   7
ATOM      7  N   UNL     1       7.552   0.219  22.453  0.00  0.00    -0.323 NA
ATOM      8  H   UNL     1       7.463   0.269  23.471  0.00  0.00    +0.119 HD
ATOM      9  H   UNL     1       7.417   1.190  22.141  0.00  0.00    +0.119 HD
ENDBRANCH   1   7
BRANCH   2  10
ATOM     10  O   UNL     1      10.695  -1.830  22.432  0.00  0.00    -0.385 OA
ATOM     11  H   UNL     1      11.262  -1.097  22.115  0.00  0.00    +0.210 HD
ENDBRANCH   2  10
BRANCH   6  12
ATOM     12  O   UNL     1       9.203   2.079  21.327  0.00  0.00    -0.388 OA
ATOM     13  H   UNL     1       8.826   2.641  22.038  0.00  0.00    +0.210 HD
ENDBRANCH   6  12
BRANCH   3  14
ATOM     14  O   UNL     1       8.803  -0.332  25.235  0.00  0.00    -0.349 OA
BRANCH  14  15
ATOM     15  C   UNL     1       8.727  -1.203  26.372  0.00  0.00    +0.163 C 
BRANCH  15  16
ATOM     16  C   UNL     1       7.893  -2.456  26.076  0.00  0.00    +0.028 C 
BRANCH  16  17
ATOM     17  C   UNL     1       8.572  -3.751  26.556  0.00  0.00    +0.002 C 
BRANCH  17  18
ATOM     18  C   UNL     1       8.217  -4.938  25.651  0.00  0.00    -0.000 C 
BRANCH  18  19
ATOM     19  C   UNL     1       8.422  -4.604  24.170  0.00  0.00    -0.003 C 
ATOM     20  C   UNL     1       7.308  -5.163  23.301  0.00  0.00    +0.004 C 
ENDBRANCH  18  19
ENDBRANCH  17  18
ENDBRANCH  16  17
ENDBRANCH  15  16
ENDBRANCH  14  15
ENDBRANCH   3  14
BRANCH   5  21
ATOM     21  C   UNL     1       9.817   2.651  24.029  0.00  0.00    +0.190 C 
BRANCH  21  22
ATOM     22  O   UNL     1      10.102   3.874  23.337  0.00  0.00    -0.392 OA
ATOM     23  H   UNL     1      10.882   4.260  23.776  0.00  0.00    +0.210 HD
ENDBRANCH  21  22
ENDBRANCH   5  21
TORSDOF 11
ENDMDL
