MODEL 1
REMARK VINA RESULT:      -4.1      0.000      0.000
REMARK  Name = 
REMARK  6 active torsions:
REMARK  status: ('A' for Active; 'I' for Inactive)
REMARK    1  A    between atoms: N_1  and  C_2
REMARK    2  A    between atoms: C_2  and  C_4
REMARK    3  A    between atoms: C_2  and  C_9
REMARK    4  A    between atoms: C_4  and  C_5
REMARK    5  A    between atoms: C_5  and  C_6
REMARK    6  A    between atoms: C_6  and  O_7
REMARK                            x       y       z     vdW  Elec       q    Type
REMARK                         _______ _______ _______ _____ _____    ______ ____
ROOT
ATOM      1  C   UNL     1       9.441  -0.522  23.810  0.00  0.00    +0.138 C 
ENDROOT
BRANCH   1   2
ATOM      2  C   UNL     1      10.076  -1.219  22.589  0.00  0.00    +0.227 C 
ATOM      3  O   UNL     1      10.694  -2.276  22.663  0.00  0.00    -0.274 OA
ATOM      4  N   UNL     1       9.809  -0.645  21.378  0.00  0.00    -0.328 N 
ATOM      5  H   UNL     1      10.312  -1.034  20.592  0.00  0.00    +0.145 HD
ATOM      6  H   UNL     1       9.684   0.361  21.391  0.00  0.00    +0.145 HD
ENDBRANCH   1   2
BRANCH   1   7
ATOM      7  N   UNL     1       9.180  -1.520  24.880  0.00  0.00    -0.320 NA
ATOM      8  H   UNL     1       9.632  -1.206  25.740  0.00  0.00    +0.119 HD
ATOM      9  H   UNL     1       8.181  -1.497  25.095  0.00  0.00    +0.119 HD
ENDBRANCH   1   7
BRANCH   1  10
ATOM     10  C   UNL     1      10.359   0.581  24.351  0.00  0.00    +0.039 C 
BRANCH  10  11
ATOM     11  C   UNL     1       9.791   1.986  24.129  0.00  0.00    +0.122 C 
BRANCH  11  12
ATOM     12  C   UNL     1      10.574   2.736  23.079  0.00  0.00    +0.305 C 
ATOM     13  O   UNL     1      11.370   3.632  23.310  0.00  0.00    -0.251 OA
BRANCH  12  14
ATOM     14  O   UNL     1      10.281   2.334  21.821  0.00  0.00    -0.481 OA
ATOM     15  H   UNL     1       9.458   1.813  21.751  0.00  0.00    +0.295 HD
ENDBRANCH  12  14
ENDBRANCH  11  12
ENDBRANCH  10  11
ENDBRANCH   1  10
TORSDOF 6
ENDMDL
MODEL 2
REMARK VINA RESULT:      -4.1      3.988      5.349
REMARK  Name = 
REMARK  6 active torsions:
REMARK  status: ('A' for Active; 'I' for Inactive)
REMARK    1  A    between atoms: N_1  and  C_2
REMARK    2  A    between atoms: C_2  and  C_4
REMARK    3  A    between atoms: C_2  and  C_9
REMARK    4  A    between atoms: C_4  and  C_5
REMARK    5  A    between atoms: C_5  and  C_6
REMARK    6  A    between atoms: C_6  and  O_7
REMARK                            x       y       z     vdW  Elec       q    Type
REMARK                         _______ _______ _______ _____ _____    ______ ____
ROOT
ATOM      1  C   UNL     1       9.074  -4.521  25.495  0.00  0.00    +0.138 C 
ENDROOT
BRANCH   1   2
ATOM      2  C   UNL     1       7.818  -5.260  25.999  0.00  0.00    +0.227 C 
ATOM      3  O   UNL     1       6.793  -5.379  25.334  0.00  0.00    -0.274 OA
ATOM      4  N   UNL     1       7.949  -5.891  27.204  0.00  0.00    -0.328 N 
ATOM      5  H   UNL     1       7.098  -6.281  27.586  0.00  0.00    +0.145 HD
ATOM      6  H   UNL     1       8.586  -5.451  27.859  0.00  0.00    +0.145 HD
ENDBRANCH   1   2
BRANCH   1   7
ATOM      7  N   UNL     1      10.189  -5.487  25.316  0.00  0.00    -0.320 NA
ATOM      8  H   UNL     1      10.564  -5.385  24.371  0.00  0.00    +0.119 HD
ATOM      9  H   UNL     1      10.956  -5.199  25.926  0.00  0.00    +0.119 HD
ENDBRANCH   1   7
BRANCH   1  10
ATOM     10  C   UNL     1       8.794  -3.808  24.167  0.00  0.00    +0.039 C 
BRANCH  10  11
ATOM     11  C   UNL     1       9.765  -2.654  23.897  0.00  0.00    +0.122 C 
BRANCH  11  12
ATOM     12  C   UNL     1       9.396  -1.908  22.638  0.00  0.00    +0.305 C 
ATOM     13  O   UNL     1       8.262  -1.578  22.331  0.00  0.00    -0.251 OA
BRANCH  12  14
ATOM     14  O   UNL     1      10.463  -1.659  21.846  0.00  0.00    -0.481 OA
ATOM     15  H   UNL     1      10.267  -1.083  21.082  0.00  0.00    +0.295 HD
ENDBRANCH  12  14
ENDBRANCH  11  12
ENDBRANCH  10  11
ENDBRANCH   1  10
TORSDOF 6
ENDMDL
MODEL 3
REMARK VINA RESULT:      -4.1      6.879      7.748
REMARK  Name = 
REMARK  6 active torsions:
REMARK  status: ('A' for Active; 'I' for Inactive)
REMARK    1  A    between atoms: N_1  and  C_2
REMARK    2  A    between atoms: C_2  and  C_4
REMARK    3  A    between atoms: C_2  and  C_9
REMARK    4  A    between atoms: C_4  and  C_5
REMARK    5  A    between atoms: C_5  and  C_6
REMARK    6  A    between atoms: C_6  and  O_7
REMARK                            x       y       z     vdW  Elec       q    Type
REMARK                         _______ _______ _______ _____ _____    ______ ____
ROOT
ATOM      1  C   UNL     1       8.330  -4.764  24.762  0.00  0.00    +0.138 C 
ENDROOT
BRANCH   1   2
ATOM      2  C   UNL     1       7.394  -5.382  25.821  0.00  0.00    +0.227 C 
ATOM      3  O   UNL     1       6.202  -5.597  25.623  0.00  0.00    -0.274 OA
ATOM      4  N   UNL     1       8.000  -5.795  26.974  0.00  0.00    -0.328 N 
ATOM      5  H   UNL     1       7.375  -6.096  27.710  0.00  0.00    +0.145 HD
ATOM      6  H   UNL     1       8.813  -5.258  27.254  0.00  0.00    +0.145 HD
ENDBRANCH   1   2
BRANCH   1   7
ATOM      7  N   UNL     1       9.479  -5.674  24.513  0.00  0.00    -0.320 NA
ATOM      8  H   UNL     1       9.193  -6.389  23.842  0.00  0.00    +0.119 HD
ATOM      9  H   UNL     1      10.202  -5.143  24.025  0.00  0.00    +0.119 HD
ENDBRANCH   1   7
BRANCH   1  10
ATOM     10  C   UNL     1       7.582  -4.513  23.448  0.00  0.00    +0.039 C 
BRANCH  10  11
ATOM     11  C   UNL     1       7.598  -5.728  22.514  0.00  0.00    +0.122 C 
BRANCH  11  12
ATOM     12  C   UNL     1       6.227  -6.008  21.952  0.00  0.00    +0.305 C 
ATOM     13  O   UNL     1       5.863  -5.716  20.824  0.00  0.00    -0.251 OA
BRANCH  12  14
ATOM     14  O   UNL     1       5.405  -6.602  22.848  0.00  0.00    -0.481 OA
ATOM     15  H   UNL     1       5.425  -6.197  23.736  0.00  0.00    +0.295 HD
ENDBRANCH  12  14
ENDBRANCH  11  12
ENDBRANCH  10  11
ENDBRANCH   1  10
TORSDOF 6
ENDMDL
MODEL 4
REMARK VINA RESULT:      -4.0      1.628      3.896
REMARK  Name = 
REMARK  6 active torsions:
REMARK  status: ('A' for Active; 'I' for Inactive)
REMARK    1  A    between atoms: N_1  and  C_2
REMARK    2  A    between atoms: C_2  and  C_4
REMARK    3  A    between atoms: C_2  and  C_9
REMARK    4  A    between atoms: C_4  and  C_5
REMARK    5  A    between atoms: C_5  and  C_6
REMARK    6  A    between atoms: C_6  and  O_7
REMARK                            x       y       z     vdW  Elec       q    Type
REMARK                         _______ _______ _______ _____ _____    ______ ____
ROOT
ATOM      1  C   UNL     1       9.814   1.910  24.220  0.00  0.00    +0.138 C 
ENDROOT
BRANCH   1   2
ATOM      2  C   UNL     1      10.495   2.713  23.094  0.00  0.00    +0.227 C 
ATOM      3  O   UNL     1      11.321   3.597  23.301  0.00  0.00    -0.274 OA
ATOM      4  N   UNL     1      10.213   2.301  21.822  0.00  0.00    -0.328 N 
ATOM      5  H   UNL     1      10.569   2.893  21.084  0.00  0.00    +0.145 HD
ATOM      6  H   UNL     1       9.289   1.905  21.688  0.00  0.00    +0.145 HD
ENDBRANCH   1   2
BRANCH   1   7
ATOM      7  N   UNL     1       8.370   1.738  23.914  0.00  0.00    -0.320 NA
ATOM      8  H   UNL     1       8.147   2.268  23.070  0.00  0.00    +0.119 HD
ATOM      9  H   UNL     1       8.218   0.763  23.649  0.00  0.00    +0.119 HD
ENDBRANCH   1   7
BRANCH   1  10
ATOM     10  C   UNL     1      10.470   0.534  24.387  0.00  0.00    +0.039 C 
BRANCH  10  11
ATOM     11  C   UNL     1       9.536  -0.618  24.006  0.00  0.00    +0.122 C 
BRANCH  11  12
ATOM     12  C   UNL     1      10.097  -1.427  22.862  0.00  0.00    +0.305 C 
ATOM     13  O   UNL     1      10.560  -2.551  22.966  0.00  0.00    -0.251 OA
BRANCH  12  14
ATOM     14  O   UNL     1      10.066  -0.760  21.686  0.00  0.00    -0.481 OA
ATOM     15  H   UNL     1       9.554  -1.209  20.987  0.00  0.00    +0.295 HD
ENDBRANCH  12  14
ENDBRANCH  11  12
ENDBRANCH  10  11
ENDBRANCH   1  10
TORSDOF 6
ENDMDL
MODEL 5
REMARK VINA RESULT:      -3.9      2.840      4.148
REMARK  Name = 
REMARK  6 active torsions:
REMARK  status: ('A' for Active; 'I' for Inactive)
REMARK    1  A    between atoms: N_1  and  C_2
REMARK    2  A    between atoms: C_2  and  C_4
REMARK    3  A    between atoms: C_2  and  C_9
REMARK    4  A    between atoms: C_4  and  C_5
REMARK    5  A    between atoms: C_5  and  C_6
REMARK    6  A    between atoms: C_6  and  O_7
REMARK                            x       y       z     vdW  Elec       q    Type
REMARK                         _______ _______ _______ _____ _____    ______ ____
ROOT
ATOM      1  C   UNL     1       7.908   0.529  22.951  0.00  0.00    +0.138 C 
ENDROOT
BRANCH   1   2
ATOM      2  C   UNL     1       8.861   0.903  21.797  0.00  0.00    +0.227 C 
ATOM      3  O   UNL     1       9.378   0.073  21.056  0.00  0.00    -0.274 OA
ATOM      4  N   UNL     1       9.010   2.241  21.566  0.00  0.00    -0.328 N 
ATOM      5  H   UNL     1       9.716   2.489  20.886  0.00  0.00    +0.145 HD
ATOM      6  H   UNL     1       8.932   2.836  22.383  0.00  0.00    +0.145 HD
ENDBRANCH   1   2
BRANCH   1   7
ATOM      7  N   UNL     1       6.526   0.970  22.625  0.00  0.00    -0.320 NA
ATOM      8  H   UNL     1       6.320   0.719  21.657  0.00  0.00    +0.119 HD
ATOM      9  H   UNL     1       5.877   0.406  23.177  0.00  0.00    +0.119 HD
ENDBRANCH   1   7
BRANCH   1  10
ATOM     10  C   UNL     1       7.918  -0.983  23.203  0.00  0.00    +0.039 C 
BRANCH  10  11
ATOM     11  C   UNL     1       8.943  -1.401  24.261  0.00  0.00    +0.122 C 
BRANCH  11  12
ATOM     12  C   UNL     1       9.882  -2.457  23.731  0.00  0.00    +0.305 C 
ATOM     13  O   UNL     1      10.034  -3.564  24.222  0.00  0.00    -0.251 OA
BRANCH  12  14
ATOM     14  O   UNL     1      10.580  -2.041  22.650  0.00  0.00    -0.481 OA
ATOM     15  H   UNL     1      10.733  -2.737  21.983  0.00  0.00    +0.295 HD
ENDBRANCH  12  14
ENDBRANCH  11  12
ENDBRANCH  10  11
ENDBRANCH   1  10
TORSDOF 6
ENDMDL
MODEL 6
REMARK VINA RESULT:      -3.9      1.303      2.258
REMARK  Name = 
REMARK  6 active torsions:
REMARK  status: ('A' for Active; 'I' for Inactive)
REMARK    1  A    between atoms: N_1  and  C_2
REMARK    2  A    between atoms: C_2  and  C_4
REMARK    3  A    between atoms: C_2  and  C_9
REMARK    4  A    between atoms: C_4  and  C_5
REMARK    5  A    between atoms: C_5  and  C_6
REMARK    6  A    between atoms: C_6  and  O_7
REMARK                            x       y       z     vdW  Elec       q    Type
REMARK                         _______ _______ _______ _____ _____    ______ ____
ROOT
ATOM      1  C   UNL     1      10.213  -0.628  22.620  0.00  0.00    +0.138 C 
ENDROOT
BRANCH   1   2
ATOM      2  C   UNL     1       9.872  -1.330  23.950  0.00  0.00    +0.227 C 
ATOM      3  O   UNL     1       9.848  -2.550  24.082  0.00  0.00    -0.274 OA
ATOM      4  N   UNL     1       9.708  -0.504  25.027  0.00  0.00    -0.328 N 
ATOM      5  H   UNL     1       9.377  -0.951  25.872  0.00  0.00    +0.145 HD
ATOM      6  H   UNL     1       9.335   0.415  24.818  0.00  0.00    +0.145 HD
ENDBRANCH   1   2
BRANCH   1   7
ATOM      7  N   UNL     1      10.111  -1.598  21.499  0.00  0.00    -0.320 NA
ATOM      8  H   UNL     1       9.392  -2.288  21.724  0.00  0.00    +0.119 HD
ATOM      9  H   UNL     1       9.741  -1.103  20.685  0.00  0.00    +0.119 HD
ENDBRANCH   1   7
BRANCH   1  10
ATOM     10  C   UNL     1       9.268   0.552  22.364  0.00  0.00    +0.039 C 
BRANCH  10  11
ATOM     11  C   UNL     1      10.013   1.841  22.005  0.00  0.00    +0.122 C 
BRANCH  11  12
ATOM     12  C   UNL     1      10.301   2.670  23.232  0.00  0.00    +0.305 C 
ATOM     13  O   UNL     1       9.806   2.483  24.332  0.00  0.00    -0.251 OA
BRANCH  12  14
ATOM     14  O   UNL     1      11.159   3.688  22.986  0.00  0.00    -0.481 OA
ATOM     15  H   UNL     1      11.850   3.799  23.666  0.00  0.00    +0.295 HD
ENDBRANCH  12  14
ENDBRANCH  11  12
ENDBRANCH  10  11
ENDBRANCH   1  10
TORSDOF 6
ENDMDL
MODEL 7
REMARK VINA RESULT:      -3.9      2.578      4.425
REMARK  Name = 
REMARK  6 active torsions:
REMARK  status: ('A' for Active; 'I' for Inactive)
REMARK    1  A    between atoms: N_1  and  C_2
REMARK    2  A    between atoms: C_2  and  C_4
REMARK    3  A    between atoms: C_2  and  C_9
REMARK    4  A    between atoms: C_4  and  C_5
REMARK    5  A    between atoms: C_5  and  C_6
REMARK    6  A    between atoms: C_6  and  O_7
REMARK                            x       y       z     vdW  Elec       q    Type
REMARK                         _______ _______ _______ _____ _____    ______ ____
ROOT
ATOM      1  C   UNL     1       8.843   1.101  21.528  0.00  0.00    +0.138 C 
ENDROOT
BRANCH   1   2
ATOM      2  C   UNL     1       7.875   1.281  22.715  0.00  0.00    +0.227 C 
ATOM      3  O   UNL     1       8.053   2.100  23.611  0.00  0.00    -0.274 OA
ATOM      4  N   UNL     1       6.725   0.546  22.654  0.00  0.00    -0.328 N 
ATOM      5  H   UNL     1       6.143   0.578  23.481  0.00  0.00    +0.145 HD
ATOM      6  H   UNL     1       6.804  -0.349  22.185  0.00  0.00    +0.145 HD
ENDBRANCH   1   2
BRANCH   1   7
ATOM      7  N   UNL     1       9.964   2.070  21.642  0.00  0.00    -0.320 NA
ATOM      8  H   UNL     1       9.619   2.923  22.086  0.00  0.00    +0.119 HD
ATOM      9  H   UNL     1      10.641   1.693  22.309  0.00  0.00    +0.119 HD
ENDBRANCH   1   7
BRANCH   1  10
ATOM     10  C   UNL     1       9.401  -0.326  21.487  0.00  0.00    +0.039 C 
BRANCH  10  11
ATOM     11  C   UNL     1      10.132  -0.715  22.776  0.00  0.00    +0.122 C 
BRANCH  11  12
ATOM     12  C   UNL     1       9.602  -2.011  23.339  0.00  0.00    +0.305 C 
ATOM     13  O   UNL     1      10.297  -2.925  23.753  0.00  0.00    -0.251 OA
BRANCH  12  14
ATOM     14  O   UNL     1       8.252  -2.080  23.313  0.00  0.00    -0.481 OA
ATOM     15  H   UNL     1       7.840  -2.167  24.194  0.00  0.00    +0.295 HD
ENDBRANCH  12  14
ENDBRANCH  11  12
ENDBRANCH  10  11
ENDBRANCH   1  10
TORSDOF 6
ENDMDL
MODEL 8
REMARK VINA RESULT:      -3.8      2.561      4.271
REMARK  Name = 
REMARK  6 active torsions:
REMARK  status: ('A' for Active; 'I' for Inactive)
REMARK    1  A    between atoms: N_1  and  C_2
REMARK    2  A    between atoms: C_2  and  C_4
REMARK    3  A    between atoms: C_2  and  C_9
REMARK    4  A    between atoms: C_4  and  C_5
REMARK    5  A    between atoms: C_5  and  C_6
REMARK    6  A    between atoms: C_6  and  O_7
REMARK                            x       y       z     vdW  Elec       q    Type
REMARK                         _______ _______ _______ _____ _____    ______ ____
ROOT
ATOM      1  C   UNL     1       9.480   2.632  23.092  0.00  0.00    +0.138 C 
ENDROOT
BRANCH   1   2
ATOM      2  C   UNL     1       9.265   2.055  24.506  0.00  0.00    +0.227 C 
ATOM      3  O   UNL     1       8.283   2.312  25.196  0.00  0.00    -0.274 OA
ATOM      4  N   UNL     1      10.185   1.132  24.913  0.00  0.00    -0.328 N 
ATOM      5  H   UNL     1      10.109   0.836  25.877  0.00  0.00    +0.145 HD
ATOM      6  H   UNL     1      11.121   1.259  24.545  0.00  0.00    +0.145 HD
ENDBRANCH   1   2
BRANCH   1   7
ATOM      7  N   UNL     1      10.326   3.851  23.169  0.00  0.00    -0.320 NA
ATOM      8  H   UNL     1      11.308   3.575  23.120  0.00  0.00    +0.119 HD
ATOM      9  H   UNL     1      10.173   4.396  22.319  0.00  0.00    +0.119 HD
ENDBRANCH   1   7
BRANCH   1  10
ATOM     10  C   UNL     1      10.150   1.601  22.176  0.00  0.00    +0.039 C 
BRANCH  10  11
ATOM     11  C   UNL     1       9.145   0.640  21.531  0.00  0.00    +0.122 C 
BRANCH  11  12
ATOM     12  C   UNL     1       9.279  -0.754  22.092  0.00  0.00    +0.305 C 
ATOM     13  O   UNL     1       8.729  -1.152  23.106  0.00  0.00    -0.251 OA
BRANCH  12  14
ATOM     14  O   UNL     1      10.112  -1.533  21.365  0.00  0.00    -0.481 OA
ATOM     15  H   UNL     1      11.022  -1.185  21.293  0.00  0.00    +0.295 HD
ENDBRANCH  12  14
ENDBRANCH  11  12
ENDBRANCH  10  11
ENDBRANCH   1  10
TORSDOF 6
ENDMDL
MODEL 9
REMARK VINA RESULT:      -3.8      1.853      4.477
REMARK  Name = 
REMARK  6 active torsions:
REMARK  status: ('A' for Active; 'I' for Inactive)
REMARK    1  A    between atoms: N_1  and  C_2
REMARK    2  A    between atoms: C_2  and  C_4
REMARK    3  A    between atoms: C_2  and  C_9
REMARK    4  A    between atoms: C_4  and  C_5
REMARK    5  A    between atoms: C_5  and  C_6
REMARK    6  A    between atoms: C_6  and  O_7
REMARK                            x       y       z     vdW  Elec       q    Type
REMARK                         _______ _______ _______ _____ _____    ______ ____
ROOT
ATOM      1  C   UNL     1       9.536   1.059  22.574  0.00  0.00    +0.138 C 
ENDROOT
BRANCH   1   2
ATOM      2  C   UNL     1      10.388   1.550  23.762  0.00  0.00    +0.227 C 
ATOM      3  O   UNL     1      11.022   2.601  23.748  0.00  0.00    -0.274 OA
ATOM      4  N   UNL     1      10.305   0.797  24.899  0.00  0.00    -0.328 N 
ATOM      5  H   UNL     1      10.945   1.053  25.639  0.00  0.00    +0.145 HD
ATOM      6  H   UNL     1      10.145  -0.194  24.753  0.00  0.00    +0.145 HD
ENDBRANCH   1   2
BRANCH   1   7
ATOM      7  N   UNL     1       9.503   2.101  21.514  0.00  0.00    -0.320 NA
ATOM      8  H   UNL     1       9.384   1.644  20.608  0.00  0.00    +0.119 HD
ATOM      9  H   UNL     1       8.649   2.648  21.636  0.00  0.00    +0.119 HD
ENDBRANCH   1   7
BRANCH   1  10
ATOM     10  C   UNL     1      10.100  -0.243  21.996  0.00  0.00    +0.039 C 
BRANCH  10  11
ATOM     11  C   UNL     1       9.061  -1.367  21.942  0.00  0.00    +0.122 C 
BRANCH  11  12
ATOM     12  C   UNL     1       9.158  -2.265  23.151  0.00  0.00    +0.305 C 
ATOM     13  O   UNL     1       9.989  -2.152  24.037  0.00  0.00    -0.251 OA
BRANCH  12  14
ATOM     14  O   UNL     1       8.232  -3.251  23.146  0.00  0.00    -0.481 OA
ATOM     15  H   UNL     1       8.600  -4.144  23.289  0.00  0.00    +0.295 HD
ENDBRANCH  12  14
ENDBRANCH  11  12
ENDBRANCH  10  11
ENDBRANCH   1  10
TORSDOF 6
ENDMDL
