MODEL 1
REMARK VINA RESULT:      -6.0      0.000      0.000
REMARK  Name = 
REMARK  15 active torsions:
REMARK  status: ('A' for Active; 'I' for Inactive)
REMARK    1  A    between atoms: C_1  and  C_2
REMARK    2  A    between atoms: C_2  and  N_3
REMARK    3  A    between atoms: N_3  and  C_4
REMARK    4  A    between atoms: N_3  and  C_6
REMARK    5  A    between atoms: C_4  and  C_5
REMARK    6  A    between atoms: C_6  and  C_7
REMARK    7  A    between atoms: C_7  and  C_8
REMARK    8  A    between atoms: C_8  and  C_9
REMARK    9  A    between atoms: C_9  and  C_10
REMARK   10  A    between atoms: C_10  and  C_11
REMARK   11  A    between atoms: C_11  and  N_12
REMARK   12  A    between atoms: N_12  and  C_13
REMARK   13  A    between atoms: C_15  and  O_16
REMARK   14  A    between atoms: O_16  and  C_17
REMARK   15  A    between atoms: C_20  and  C_21
REMARK                            x       y       z     vdW  Elec       q    Type
REMARK                         _______ _______ _______ _____ _____    ______ ____
ROOT
ATOM      1  N   UNL     1       9.561  -3.261  24.176  0.00  0.00    -0.342 N 
ATOM      2  H   UNL     1      10.456  -3.606  24.544  0.00  0.00    +0.146 HD
ENDROOT
BRANCH   1   3
ATOM      3  C   UNL     1       8.546  -4.123  24.705  0.00  0.00    +0.057 A 
ATOM      4  C   UNL     1       7.465  -4.510  23.880  0.00  0.00    +0.092 A 
ATOM      5  C   UNL     1       6.419  -5.297  24.435  0.00  0.00    +0.009 A 
ATOM      6  C   UNL     1       5.341  -5.662  23.586  0.00  0.00    -0.040 A 
ATOM      7  C   UNL     1       5.362  -5.247  22.251  0.00  0.00    +0.023 A 
ATOM      8  C   UNL     1       6.432  -4.500  21.803  0.00  0.00    +0.112 A 
ATOM      9  C   UNL     1       4.151  -6.472  24.024  0.00  0.00    +0.044 C 
ATOM     10  C   UNL     1       6.504  -5.670  25.796  0.00  0.00    +0.056 A 
ATOM     11  C   UNL     1       7.561  -5.271  26.609  0.00  0.00    +0.123 A 
ATOM     12  N   UNL     1       7.470  -4.137  22.580  0.00  0.00    -0.253 NA
ATOM     13  C   UNL     1       8.557  -4.480  26.064  0.00  0.00    +0.070 A 
BRANCH  11  14
ATOM     14  O   UNL     1       7.504  -5.700  27.907  0.00  0.00    -0.495 OA
ATOM     15  C   UNL     1       6.204  -5.951  28.436  0.00  0.00    +0.277 C 
ENDBRANCH  11  14
ENDBRANCH   1   3
BRANCH   1  16
ATOM     16  C   UNL     1       9.341  -1.835  24.397  0.00  0.00    +0.101 C 
BRANCH  16  17
ATOM     17  C   UNL     1      10.167  -0.980  23.443  0.00  0.00    +0.019 C 
BRANCH  17  18
ATOM     18  C   UNL     1       9.650  -1.094  22.001  0.00  0.00    +0.002 C 
BRANCH  18  19
ATOM     19  C   UNL     1       9.312   0.264  21.381  0.00  0.00    +0.001 C 
BRANCH  19  20
ATOM     20  C   UNL     1      10.012   1.410  22.112  0.00  0.00    +0.015 C 
BRANCH  20  21
ATOM     21  C   UNL     1       9.021   2.455  22.657  0.00  0.00    +0.084 C 
BRANCH  21  22
ATOM     22  N   UNL     1       7.608   2.033  22.666  0.00  0.00    -0.303 NA
BRANCH  22  24
ATOM     23  C   UNL     1       6.365   0.271  23.980  0.00  0.00    +0.020 C 
ATOM     24  C   UNL     1       7.181   1.560  23.992  0.00  0.00    +0.081 C 
ENDBRANCH  22  24
BRANCH  22  25
ATOM     25  C   UNL     1       6.735   3.064  22.079  0.00  0.00    +0.081 C 
ATOM     26  C   UNL     1       7.177   4.513  22.274  0.00  0.00    +0.020 C 
ENDBRANCH  22  25
ENDBRANCH  21  22
ENDBRANCH  20  21
ENDBRANCH  19  20
ENDBRANCH  18  19
ENDBRANCH  17  18
ENDBRANCH  16  17
ENDBRANCH   1  16
TORSDOF 11
ENDMDL
MODEL 2
REMARK VINA RESULT:      -5.8      0.996      1.839
REMARK  Name = 
REMARK  15 active torsions:
REMARK  status: ('A' for Active; 'I' for Inactive)
REMARK    1  A    between atoms: C_1  and  C_2
REMARK    2  A    between atoms: C_2  and  N_3
REMARK    3  A    between atoms: N_3  and  C_4
REMARK    4  A    between atoms: N_3  and  C_6
REMARK    5  A    between atoms: C_4  and  C_5
REMARK    6  A    between atoms: C_6  and  C_7
REMARK    7  A    between atoms: C_7  and  C_8
REMARK    8  A    between atoms: C_8  and  C_9
REMARK    9  A    between atoms: C_9  and  C_10
REMARK   10  A    between atoms: C_10  and  C_11
REMARK   11  A    between atoms: C_11  and  N_12
REMARK   12  A    between atoms: N_12  and  C_13
REMARK   13  A    between atoms: C_15  and  O_16
REMARK   14  A    between atoms: O_16  and  C_17
REMARK   15  A    between atoms: C_20  and  C_21
REMARK                            x       y       z     vdW  Elec       q    Type
REMARK                         _______ _______ _______ _____ _____    ______ ____
ROOT
ATOM      1  N   UNL     1       9.626  -3.820  24.525  0.00  0.00    -0.342 N 
ATOM      2  H   UNL     1      10.423  -4.093  25.112  0.00  0.00    +0.146 HD
ENDROOT
BRANCH   1   3
ATOM      3  C   UNL     1       8.483  -4.511  25.046  0.00  0.00    +0.057 A 
ATOM      4  C   UNL     1       7.464  -4.931  24.162  0.00  0.00    +0.092 A 
ATOM      5  C   UNL     1       6.296  -5.541  24.694  0.00  0.00    +0.009 A 
ATOM      6  C   UNL     1       5.284  -5.945  23.783  0.00  0.00    -0.040 A 
ATOM      7  C   UNL     1       5.484  -5.738  22.416  0.00  0.00    +0.023 A 
ATOM      8  C   UNL     1       6.662  -5.152  21.996  0.00  0.00    +0.112 A 
ATOM      9  C   UNL     1       3.983  -6.584  24.187  0.00  0.00    +0.044 C 
ATOM     10  C   UNL     1       6.201  -5.712  26.094  0.00  0.00    +0.056 A 
ATOM     11  C   UNL     1       7.199  -5.279  26.963  0.00  0.00    +0.123 A 
ATOM     12  N   UNL     1       7.641  -4.759  22.832  0.00  0.00    -0.253 NA
ATOM     13  C   UNL     1       8.317  -4.659  26.434  0.00  0.00    +0.070 A 
BRANCH  11  14
ATOM     14  O   UNL     1       6.964  -5.502  28.292  0.00  0.00    -0.495 OA
ATOM     15  C   UNL     1       5.749  -6.170  28.619  0.00  0.00    +0.277 C 
ENDBRANCH  11  14
ENDBRANCH   1   3
BRANCH   1  16
ATOM     16  C   UNL     1       9.465  -2.376  24.381  0.00  0.00    +0.101 C 
BRANCH  16  17
ATOM     17  C   UNL     1      10.045  -1.870  23.065  0.00  0.00    +0.019 C 
BRANCH  17  18
ATOM     18  C   UNL     1       8.933  -1.472  22.082  0.00  0.00    +0.002 C 
BRANCH  18  19
ATOM     19  C   UNL     1       7.641  -1.047  22.786  0.00  0.00    +0.001 C 
BRANCH  19  20
ATOM     20  C   UNL     1       7.395   0.456  22.658  0.00  0.00    +0.015 C 
BRANCH  20  21
ATOM     21  C   UNL     1       8.391   1.139  21.703  0.00  0.00    +0.084 C 
BRANCH  21  22
ATOM     22  N   UNL     1       8.946   2.417  22.187  0.00  0.00    -0.303 NA
BRANCH  22  24
ATOM     23  C   UNL     1       7.224   4.259  22.321  0.00  0.00    +0.020 C 
ATOM     24  C   UNL     1       7.991   3.149  23.033  0.00  0.00    +0.081 C 
ENDBRANCH  22  24
BRANCH  22  25
ATOM     25  C   UNL     1      10.275   2.230  22.793  0.00  0.00    +0.081 C 
ATOM     26  C   UNL     1      10.296   1.660  24.210  0.00  0.00    +0.020 C 
ENDBRANCH  22  25
ENDBRANCH  21  22
ENDBRANCH  20  21
ENDBRANCH  19  20
ENDBRANCH  18  19
ENDBRANCH  17  18
ENDBRANCH  16  17
ENDBRANCH   1  16
TORSDOF 11
ENDMDL
MODEL 3
REMARK VINA RESULT:      -5.7      1.875      2.551
REMARK  Name = 
REMARK  15 active torsions:
REMARK  status: ('A' for Active; 'I' for Inactive)
REMARK    1  A    between atoms: C_1  and  C_2
REMARK    2  A    between atoms: C_2  and  N_3
REMARK    3  A    between atoms: N_3  and  C_4
REMARK    4  A    between atoms: N_3  and  C_6
REMARK    5  A    between atoms: C_4  and  C_5
REMARK    6  A    between atoms: C_6  and  C_7
REMARK    7  A    between atoms: C_7  and  C_8
REMARK    8  A    between atoms: C_8  and  C_9
REMARK    9  A    between atoms: C_9  and  C_10
REMARK   10  A    between atoms: C_10  and  C_11
REMARK   11  A    between atoms: C_11  and  N_12
REMARK   12  A    between atoms: N_12  and  C_13
REMARK   13  A    between atoms: C_15  and  O_16
REMARK   14  A    between atoms: O_16  and  C_17
REMARK   15  A    between atoms: C_20  and  C_21
REMARK                            x       y       z     vdW  Elec       q    Type
REMARK                         _______ _______ _______ _____ _____    ______ ____
ROOT
ATOM      1  N   UNL     1       6.119  -1.171  26.190  0.00  0.00    -0.342 N 
ATOM      2  H   UNL     1       5.704  -0.779  25.336  0.00  0.00    +0.146 HD
ENDROOT
BRANCH   1   3
ATOM      3  C   UNL     1       6.494  -2.519  25.877  0.00  0.00    +0.057 A 
ATOM      4  C   UNL     1       6.456  -2.956  24.534  0.00  0.00    +0.092 A 
ATOM      5  C   UNL     1       6.748  -4.315  24.241  0.00  0.00    +0.009 A 
ATOM      6  C   UNL     1       6.693  -4.729  22.883  0.00  0.00    -0.040 A 
ATOM      7  C   UNL     1       6.368  -3.788  21.903  0.00  0.00    +0.023 A 
ATOM      8  C   UNL     1       6.117  -2.486  22.288  0.00  0.00    +0.112 A 
ATOM      9  C   UNL     1       6.955  -6.134  22.412  0.00  0.00    +0.044 C 
ATOM     10  C   UNL     1       7.076  -5.181  25.310  0.00  0.00    +0.056 A 
ATOM     11  C   UNL     1       7.093  -4.751  26.633  0.00  0.00    +0.123 A 
ATOM     12  N   UNL     1       6.162  -2.060  23.564  0.00  0.00    -0.253 NA
ATOM     13  C   UNL     1       6.777  -3.433  26.907  0.00  0.00    +0.070 A 
BRANCH  11  14
ATOM     14  O   UNL     1       7.418  -5.703  27.561  0.00  0.00    -0.495 OA
ATOM     15  C   UNL     1       6.392  -6.069  28.479  0.00  0.00    +0.277 C 
ENDBRANCH  11  14
ENDBRANCH   1   3
BRANCH   1  16
ATOM     16  C   UNL     1       7.180  -0.349  26.763  0.00  0.00    +0.101 C 
BRANCH  16  17
ATOM     17  C   UNL     1       8.045   0.292  25.684  0.00  0.00    +0.019 C 
BRANCH  17  18
ATOM     18  C   UNL     1       9.412  -0.401  25.580  0.00  0.00    +0.002 C 
BRANCH  18  19
ATOM     19  C   UNL     1       9.636  -1.076  24.224  0.00  0.00    +0.001 C 
BRANCH  19  20
ATOM     20  C   UNL     1      10.447  -0.191  23.278  0.00  0.00    +0.015 C 
BRANCH  20  21
ATOM     21  C   UNL     1       9.606   0.349  22.107  0.00  0.00    +0.084 C 
BRANCH  21  22
ATOM     22  N   UNL     1       9.534   1.820  22.015  0.00  0.00    -0.303 NA
BRANCH  22  24
ATOM     23  C   UNL     1       7.082   1.286  22.299  0.00  0.00    +0.020 C 
ATOM     24  C   UNL     1       8.149   2.299  21.895  0.00  0.00    +0.081 C 
ENDBRANCH  22  24
BRANCH  22  25
ATOM     25  C   UNL     1      10.308   2.464  23.090  0.00  0.00    +0.081 C 
ATOM     26  C   UNL     1       9.537   3.421  23.996  0.00  0.00    +0.020 C 
ENDBRANCH  22  25
ENDBRANCH  21  22
ENDBRANCH  20  21
ENDBRANCH  19  20
ENDBRANCH  18  19
ENDBRANCH  17  18
ENDBRANCH  16  17
ENDBRANCH   1  16
TORSDOF 11
ENDMDL
MODEL 4
REMARK VINA RESULT:      -5.5      2.743      7.466
REMARK  Name = 
REMARK  15 active torsions:
REMARK  status: ('A' for Active; 'I' for Inactive)
REMARK    1  A    between atoms: C_1  and  C_2
REMARK    2  A    between atoms: C_2  and  N_3
REMARK    3  A    between atoms: N_3  and  C_4
REMARK    4  A    between atoms: N_3  and  C_6
REMARK    5  A    between atoms: C_4  and  C_5
REMARK    6  A    between atoms: C_6  and  C_7
REMARK    7  A    between atoms: C_7  and  C_8
REMARK    8  A    between atoms: C_8  and  C_9
REMARK    9  A    between atoms: C_9  and  C_10
REMARK   10  A    between atoms: C_10  and  C_11
REMARK   11  A    between atoms: C_11  and  N_12
REMARK   12  A    between atoms: N_12  and  C_13
REMARK   13  A    between atoms: C_15  and  O_16
REMARK   14  A    between atoms: O_16  and  C_17
REMARK   15  A    between atoms: C_20  and  C_21
REMARK                            x       y       z     vdW  Elec       q    Type
REMARK                         _______ _______ _______ _____ _____    ______ ____
ROOT
ATOM      1  N   UNL     1       5.652   0.706  24.228  0.00  0.00    -0.342 N 
ATOM      2  H   UNL     1       4.847   1.218  23.848  0.00  0.00    +0.146 HD
ENDROOT
BRANCH   1   3
ATOM      3  C   UNL     1       6.677   1.680  24.466  0.00  0.00    +0.057 A 
ATOM      4  C   UNL     1       7.818   1.704  23.633  0.00  0.00    +0.092 A 
ATOM      5  C   UNL     1       8.867   2.617  23.925  0.00  0.00    +0.009 A 
ATOM      6  C   UNL     1      10.006   2.613  23.076  0.00  0.00    -0.040 A 
ATOM      7  C   UNL     1      10.040   1.728  21.995  0.00  0.00    +0.023 A 
ATOM      8  C   UNL     1       8.962   0.892  21.785  0.00  0.00    +0.112 A 
ATOM      9  C   UNL     1      11.208   3.500  23.262  0.00  0.00    +0.044 C 
ATOM     10  C   UNL     1       8.725   3.475  25.039  0.00  0.00    +0.056 A 
ATOM     11  C   UNL     1       7.608   3.435  25.868  0.00  0.00    +0.123 A 
ATOM     12  N   UNL     1       7.867   0.871  22.568  0.00  0.00    -0.253 NA
ATOM     13  C   UNL     1       6.607   2.521  25.590  0.00  0.00    +0.070 A 
BRANCH  11  14
ATOM     14  O   UNL     1       7.614   4.317  26.913  0.00  0.00    -0.495 OA
ATOM     15  C   UNL     1       6.724   4.033  27.989  0.00  0.00    +0.277 C 
ENDBRANCH  11  14
ENDBRANCH   1   3
BRANCH   1  16
ATOM     16  C   UNL     1       5.328  -0.144  25.369  0.00  0.00    +0.101 C 
BRANCH  16  17
ATOM     17  C   UNL     1       6.254  -1.352  25.457  0.00  0.00    +0.019 C 
BRANCH  17  18
ATOM     18  C   UNL     1       7.419  -1.092  26.424  0.00  0.00    +0.002 C 
BRANCH  18  19
ATOM     19  C   UNL     1       8.790  -1.262  25.765  0.00  0.00    +0.001 C 
BRANCH  19  20
ATOM     20  C   UNL     1       8.678  -1.913  24.386  0.00  0.00    +0.015 C 
BRANCH  20  21
ATOM     21  C   UNL     1       9.685  -3.061  24.191  0.00  0.00    +0.084 C 
BRANCH  21  22
ATOM     22  N   UNL     1       9.129  -4.417  24.354  0.00  0.00    -0.303 NA
BRANCH  22  24
ATOM     23  C   UNL     1       8.262  -4.979  26.658  0.00  0.00    +0.020 C 
ATOM     24  C   UNL     1       9.431  -4.982  25.678  0.00  0.00    +0.081 C 
ENDBRANCH  22  24
BRANCH  22  25
ATOM     25  C   UNL     1       7.703  -4.461  23.987  0.00  0.00    +0.081 C 
ATOM     26  C   UNL     1       7.375  -5.071  22.626  0.00  0.00    +0.020 C 
ENDBRANCH  22  25
ENDBRANCH  21  22
ENDBRANCH  20  21
ENDBRANCH  19  20
ENDBRANCH  18  19
ENDBRANCH  17  18
ENDBRANCH  16  17
ENDBRANCH   1  16
TORSDOF 11
ENDMDL
MODEL 5
REMARK VINA RESULT:      -5.5      2.456      2.988
REMARK  Name = 
REMARK  15 active torsions:
REMARK  status: ('A' for Active; 'I' for Inactive)
REMARK    1  A    between atoms: C_1  and  C_2
REMARK    2  A    between atoms: C_2  and  N_3
REMARK    3  A    between atoms: N_3  and  C_4
REMARK    4  A    between atoms: N_3  and  C_6
REMARK    5  A    between atoms: C_4  and  C_5
REMARK    6  A    between atoms: C_6  and  C_7
REMARK    7  A    between atoms: C_7  and  C_8
REMARK    8  A    between atoms: C_8  and  C_9
REMARK    9  A    between atoms: C_9  and  C_10
REMARK   10  A    between atoms: C_10  and  C_11
REMARK   11  A    between atoms: C_11  and  N_12
REMARK   12  A    between atoms: N_12  and  C_13
REMARK   13  A    between atoms: C_15  and  O_16
REMARK   14  A    between atoms: O_16  and  C_17
REMARK   15  A    between atoms: C_20  and  C_21
REMARK                            x       y       z     vdW  Elec       q    Type
REMARK                         _______ _______ _______ _____ _____    ______ ____
ROOT
ATOM      1  N   UNL     1       8.943  -2.125  22.872  0.00  0.00    -0.342 N 
ATOM      2  H   UNL     1       9.510  -1.848  23.682  0.00  0.00    +0.146 HD
ENDROOT
BRANCH   1   3
ATOM      3  C   UNL     1       7.624  -2.385  23.371  0.00  0.00    +0.057 A 
ATOM      4  C   UNL     1       6.946  -3.556  22.961  0.00  0.00    +0.092 A 
ATOM      5  C   UNL     1       5.609  -3.766  23.393  0.00  0.00    +0.009 A 
ATOM      6  C   UNL     1       4.949  -4.946  22.959  0.00  0.00    -0.040 A 
ATOM      7  C   UNL     1       5.641  -5.846  22.143  0.00  0.00    +0.023 A 
ATOM      8  C   UNL     1       6.945  -5.560  21.793  0.00  0.00    +0.112 A 
ATOM      9  C   UNL     1       3.530  -5.305  23.309  0.00  0.00    +0.044 C 
ATOM     10  C   UNL     1       5.007  -2.795  24.226  0.00  0.00    +0.056 A 
ATOM     11  C   UNL     1       5.672  -1.635  24.610  0.00  0.00    +0.123 A 
ATOM     12  N   UNL     1       7.600  -4.452  22.187  0.00  0.00    -0.253 NA
ATOM     13  C   UNL     1       6.963  -1.427  24.159  0.00  0.00    +0.070 A 
BRANCH  11  14
ATOM     14  O   UNL     1       4.960  -0.782  25.409  0.00  0.00    -0.495 OA
ATOM     15  C   UNL     1       5.476   0.540  25.545  0.00  0.00    +0.277 C 
ENDBRANCH  11  14
ENDBRANCH   1   3
BRANCH   1  16
ATOM     16  C   UNL     1       9.010  -1.188  21.755  0.00  0.00    +0.101 C 
BRANCH  16  17
ATOM     17  C   UNL     1       9.732   0.099  22.137  0.00  0.00    +0.019 C 
BRANCH  17  18
ATOM     18  C   UNL     1      10.527  -0.073  23.441  0.00  0.00    +0.002 C 
BRANCH  18  19
ATOM     19  C   UNL     1      10.655   1.228  24.236  0.00  0.00    +0.001 C 
BRANCH  19  20
ATOM     20  C   UNL     1      10.377   2.454  23.365  0.00  0.00    +0.015 C 
BRANCH  20  21
ATOM     21  C   UNL     1       9.395   3.438  24.026  0.00  0.00    +0.084 C 
BRANCH  21  22
ATOM     22  N   UNL     1       8.354   3.978  23.132  0.00  0.00    -0.303 NA
BRANCH  22  24
ATOM     23  C   UNL     1       6.727   2.207  22.362  0.00  0.00    +0.020 C 
ATOM     24  C   UNL     1       7.052   3.329  23.344  0.00  0.00    +0.081 C 
ENDBRANCH  22  24
BRANCH  22  25
ATOM     25  C   UNL     1       8.313   5.450  23.181  0.00  0.00    +0.081 C 
ATOM     26  C   UNL     1       9.601   6.146  23.615  0.00  0.00    +0.020 C 
ENDBRANCH  22  25
ENDBRANCH  21  22
ENDBRANCH  20  21
ENDBRANCH  19  20
ENDBRANCH  18  19
ENDBRANCH  17  18
ENDBRANCH  16  17
ENDBRANCH   1  16
TORSDOF 11
ENDMDL
MODEL 6
REMARK VINA RESULT:      -5.4      2.039      3.499
REMARK  Name = 
REMARK  15 active torsions:
REMARK  status: ('A' for Active; 'I' for Inactive)
REMARK    1  A    between atoms: C_1  and  C_2
REMARK    2  A    between atoms: C_2  and  N_3
REMARK    3  A    between atoms: N_3  and  C_4
REMARK    4  A    between atoms: N_3  and  C_6
REMARK    5  A    between atoms: C_4  and  C_5
REMARK    6  A    between atoms: C_6  and  C_7
REMARK    7  A    between atoms: C_7  and  C_8
REMARK    8  A    between atoms: C_8  and  C_9
REMARK    9  A    between atoms: C_9  and  C_10
REMARK   10  A    between atoms: C_10  and  C_11
REMARK   11  A    between atoms: C_11  and  N_12
REMARK   12  A    between atoms: N_12  and  C_13
REMARK   13  A    between atoms: C_15  and  O_16
REMARK   14  A    between atoms: O_16  and  C_17
REMARK   15  A    between atoms: C_20  and  C_21
REMARK                            x       y       z     vdW  Elec       q    Type
REMARK                         _______ _______ _______ _____ _____    ______ ____
ROOT
ATOM      1  N   UNL     1       8.976  -4.132  25.071  0.00  0.00    -0.342 N 
ATOM      2  H   UNL     1       9.122  -4.321  26.070  0.00  0.00    +0.146 HD
ENDROOT
BRANCH   1   3
ATOM      3  C   UNL     1       7.667  -4.623  24.753  0.00  0.00    +0.057 A 
ATOM      4  C   UNL     1       6.884  -5.219  25.767  0.00  0.00    +0.092 A 
ATOM      5  C   UNL     1       5.622  -5.777  25.427  0.00  0.00    +0.009 A 
ATOM      6  C   UNL     1       4.861  -6.379  26.465  0.00  0.00    -0.040 A 
ATOM      7  C   UNL     1       5.376  -6.384  27.764  0.00  0.00    +0.023 A 
ATOM      8  C   UNL     1       6.604  -5.799  27.996  0.00  0.00    +0.112 A 
ATOM      9  C   UNL     1       3.520  -7.031  26.266  0.00  0.00    +0.044 C 
ATOM     10  C   UNL     1       5.193  -5.709  24.082  0.00  0.00    +0.056 A 
ATOM     11  C   UNL     1       5.977  -5.138  23.083  0.00  0.00    +0.123 A 
ATOM     12  N   UNL     1       7.351  -5.220  27.037  0.00  0.00    -0.253 NA
ATOM     13  C   UNL     1       7.216  -4.625  23.422  0.00  0.00    +0.070 A 
BRANCH  11  14
ATOM     14  O   UNL     1       5.436  -5.152  21.826  0.00  0.00    -0.495 OA
ATOM     15  C   UNL     1       6.225  -5.752  20.803  0.00  0.00    +0.277 C 
ENDBRANCH  11  14
ENDBRANCH   1   3
BRANCH   1  16
ATOM     16  C   UNL     1       9.229  -2.747  24.688  0.00  0.00    +0.101 C 
BRANCH  16  17
ATOM     17  C   UNL     1       8.585  -1.764  25.659  0.00  0.00    +0.019 C 
BRANCH  17  18
ATOM     18  C   UNL     1       9.089  -0.332  25.420  0.00  0.00    +0.002 C 
BRANCH  18  19
ATOM     19  C   UNL     1      10.171  -0.255  24.340  0.00  0.00    +0.001 C 
BRANCH  19  20
ATOM     20  C   UNL     1      10.618   1.185  24.089  0.00  0.00    +0.015 C 
BRANCH  20  21
ATOM     21  C   UNL     1      10.290   1.666  22.663  0.00  0.00    +0.084 C 
BRANCH  21  22
ATOM     22  N   UNL     1       9.063   2.474  22.543  0.00  0.00    -0.303 NA
BRANCH  22  24
ATOM     23  C   UNL     1       6.709   1.577  22.721  0.00  0.00    +0.020 C 
ATOM     24  C   UNL     1       7.976   1.734  21.884  0.00  0.00    +0.081 C 
ENDBRANCH  22  24
BRANCH  22  25
ATOM     25  C   UNL     1       8.689   3.081  23.832  0.00  0.00    +0.081 C 
ATOM     26  C   UNL     1       8.819   4.599  23.926  0.00  0.00    +0.020 C 
ENDBRANCH  22  25
ENDBRANCH  21  22
ENDBRANCH  20  21
ENDBRANCH  19  20
ENDBRANCH  18  19
ENDBRANCH  17  18
ENDBRANCH  16  17
ENDBRANCH   1  16
TORSDOF 11
ENDMDL
MODEL 7
REMARK VINA RESULT:      -5.4      3.554      8.636
REMARK  Name = 
REMARK  15 active torsions:
REMARK  status: ('A' for Active; 'I' for Inactive)
REMARK    1  A    between atoms: C_1  and  C_2
REMARK    2  A    between atoms: C_2  and  N_3
REMARK    3  A    between atoms: N_3  and  C_4
REMARK    4  A    between atoms: N_3  and  C_6
REMARK    5  A    between atoms: C_4  and  C_5
REMARK    6  A    between atoms: C_6  and  C_7
REMARK    7  A    between atoms: C_7  and  C_8
REMARK    8  A    between atoms: C_8  and  C_9
REMARK    9  A    between atoms: C_9  and  C_10
REMARK   10  A    between atoms: C_10  and  C_11
REMARK   11  A    between atoms: C_11  and  N_12
REMARK   12  A    between atoms: N_12  and  C_13
REMARK   13  A    between atoms: C_15  and  O_16
REMARK   14  A    between atoms: O_16  and  C_17
REMARK   15  A    between atoms: C_20  and  C_21
REMARK                            x       y       z     vdW  Elec       q    Type
REMARK                         _______ _______ _______ _____ _____    ______ ____
ROOT
ATOM      1  N   UNL     1      10.308   1.309  23.168  0.00  0.00    -0.342 N 
ATOM      2  H   UNL     1      11.269   0.986  23.330  0.00  0.00    +0.146 HD
ENDROOT
BRANCH   1   3
ATOM      3  C   UNL     1      10.259   2.673  23.607  0.00  0.00    +0.057 A 
ATOM      4  C   UNL     1       9.134   3.130  24.331  0.00  0.00    +0.092 A 
ATOM      5  C   UNL     1       9.054   4.502  24.690  0.00  0.00    +0.009 A 
ATOM      6  C   UNL     1       7.908   4.935  25.408  0.00  0.00    -0.040 A 
ATOM      7  C   UNL     1       6.924   3.999  25.738  0.00  0.00    +0.023 A 
ATOM      8  C   UNL     1       7.103   2.684  25.358  0.00  0.00    +0.112 A 
ATOM      9  C   UNL     1       7.663   6.355  25.843  0.00  0.00    +0.044 C 
ATOM     10  C   UNL     1      10.112   5.362  24.314  0.00  0.00    +0.056 A 
ATOM     11  C   UNL     1      11.209   4.911  23.585  0.00  0.00    +0.123 A 
ATOM     12  N   UNL     1       8.176   2.240  24.678  0.00  0.00    -0.253 NA
ATOM     13  C   UNL     1      11.260   3.580  23.216  0.00  0.00    +0.070 A 
BRANCH  11  14
ATOM     14  O   UNL     1      12.149   5.859  23.285  0.00  0.00    -0.495 OA
ATOM     15  C   UNL     1      13.149   5.484  22.341  0.00  0.00    +0.277 C 
ENDBRANCH  11  14
ENDBRANCH   1   3
BRANCH   1  16
ATOM     16  C   UNL     1       9.826   1.077  21.810  0.00  0.00    +0.101 C 
BRANCH  16  17
ATOM     17  C   UNL     1       9.412  -0.375  21.597  0.00  0.00    +0.019 C 
BRANCH  17  18
ATOM     18  C   UNL     1      10.292  -1.332  22.415  0.00  0.00    +0.002 C 
BRANCH  18  19
ATOM     19  C   UNL     1       9.476  -2.323  23.250  0.00  0.00    +0.001 C 
BRANCH  19  20
ATOM     20  C   UNL     1       8.060  -1.810  23.512  0.00  0.00    +0.015 C 
BRANCH  20  21
ATOM     21  C   UNL     1       7.146  -2.886  24.127  0.00  0.00    +0.084 C 
BRANCH  21  22
ATOM     22  N   UNL     1       7.589  -4.277  23.917  0.00  0.00    -0.303 NA
BRANCH  22  24
ATOM     23  C   UNL     1       9.395  -5.289  25.364  0.00  0.00    +0.020 C 
ATOM     24  C   UNL     1       7.918  -4.950  25.183  0.00  0.00    +0.081 C 
ENDBRANCH  22  24
BRANCH  22  25
ATOM     25  C   UNL     1       6.646  -5.019  23.063  0.00  0.00    +0.081 C 
ATOM     26  C   UNL     1       7.228  -5.643  21.797  0.00  0.00    +0.020 C 
ENDBRANCH  22  25
ENDBRANCH  21  22
ENDBRANCH  20  21
ENDBRANCH  19  20
ENDBRANCH  18  19
ENDBRANCH  17  18
ENDBRANCH  16  17
ENDBRANCH   1  16
TORSDOF 11
ENDMDL
MODEL 8
REMARK VINA RESULT:      -5.4      2.473      7.264
REMARK  Name = 
REMARK  15 active torsions:
REMARK  status: ('A' for Active; 'I' for Inactive)
REMARK    1  A    between atoms: C_1  and  C_2
REMARK    2  A    between atoms: C_2  and  N_3
REMARK    3  A    between atoms: N_3  and  C_4
REMARK    4  A    between atoms: N_3  and  C_6
REMARK    5  A    between atoms: C_4  and  C_5
REMARK    6  A    between atoms: C_6  and  C_7
REMARK    7  A    between atoms: C_7  and  C_8
REMARK    8  A    between atoms: C_8  and  C_9
REMARK    9  A    between atoms: C_9  and  C_10
REMARK   10  A    between atoms: C_10  and  C_11
REMARK   11  A    between atoms: C_11  and  N_12
REMARK   12  A    between atoms: N_12  and  C_13
REMARK   13  A    between atoms: C_15  and  O_16
REMARK   14  A    between atoms: O_16  and  C_17
REMARK   15  A    between atoms: C_20  and  C_21
REMARK                            x       y       z     vdW  Elec       q    Type
REMARK                         _______ _______ _______ _____ _____    ______ ____
ROOT
ATOM      1  N   UNL     1       6.025  -0.563  23.842  0.00  0.00    -0.342 N 
ATOM      2  H   UNL     1       5.077  -0.226  23.633  0.00  0.00    +0.146 HD
ENDROOT
BRANCH   1   3
ATOM      3  C   UNL     1       6.790   0.589  24.220  0.00  0.00    +0.057 A 
ATOM      4  C   UNL     1       7.916   0.958  23.449  0.00  0.00    +0.092 A 
ATOM      5  C   UNL     1       8.718   2.051  23.877  0.00  0.00    +0.009 A 
ATOM      6  C   UNL     1       9.848   2.394  23.089  0.00  0.00    -0.040 A 
ATOM      7  C   UNL     1      10.114   1.656  21.932  0.00  0.00    +0.023 A 
ATOM      8  C   UNL     1       9.264   0.623  21.591  0.00  0.00    +0.112 A 
ATOM      9  C   UNL     1      10.806   3.507  23.416  0.00  0.00    +0.044 C 
ATOM     10  C   UNL     1       8.352   2.735  25.059  0.00  0.00    +0.056 A 
ATOM     11  C   UNL     1       7.254   2.356  25.825  0.00  0.00    +0.123 A 
ATOM     12  N   UNL     1       8.184   0.273  22.315  0.00  0.00    -0.253 NA
ATOM     13  C   UNL     1       6.499   1.272  25.414  0.00  0.00    +0.070 A 
BRANCH  11  14
ATOM     14  O   UNL     1       7.028   3.104  26.948  0.00  0.00    -0.495 OA
ATOM     15  C   UNL     1       7.348   4.490  26.862  0.00  0.00    +0.277 C 
ENDBRANCH  11  14
ENDBRANCH   1   3
BRANCH   1  16
ATOM     16  C   UNL     1       6.064  -1.671  24.790  0.00  0.00    +0.101 C 
BRANCH  16  17
ATOM     17  C   UNL     1       4.914  -2.648  24.567  0.00  0.00    +0.019 C 
BRANCH  17  18
ATOM     18  C   UNL     1       5.419  -3.985  24.004  0.00  0.00    +0.002 C 
BRANCH  18  19
ATOM     19  C   UNL     1       5.934  -3.868  22.566  0.00  0.00    +0.001 C 
BRANCH  19  20
ATOM     20  C   UNL     1       7.417  -4.225  22.466  0.00  0.00    +0.015 C 
BRANCH  20  21
ATOM     21  C   UNL     1       7.946  -4.916  23.737  0.00  0.00    +0.084 C 
BRANCH  21  22
ATOM     22  N   UNL     1       9.066  -4.226  24.404  0.00  0.00    -0.303 NA
BRANCH  22  24
ATOM     23  C   UNL     1       9.672  -1.795  24.715  0.00  0.00    +0.020 C 
ATOM     24  C   UNL     1       9.393  -2.948  23.755  0.00  0.00    +0.081 C 
ENDBRANCH  22  24
BRANCH  22  25
ATOM     25  C   UNL     1       8.848  -4.131  25.858  0.00  0.00    +0.081 C 
ATOM     26  C   UNL     1       7.967  -5.211  26.481  0.00  0.00    +0.020 C 
ENDBRANCH  22  25
ENDBRANCH  21  22
ENDBRANCH  20  21
ENDBRANCH  19  20
ENDBRANCH  18  19
ENDBRANCH  17  18
ENDBRANCH  16  17
ENDBRANCH   1  16
TORSDOF 11
ENDMDL
MODEL 9
REMARK VINA RESULT:      -5.4      1.148      2.483
REMARK  Name = 
REMARK  15 active torsions:
REMARK  status: ('A' for Active; 'I' for Inactive)
REMARK    1  A    between atoms: C_1  and  C_2
REMARK    2  A    between atoms: C_2  and  N_3
REMARK    3  A    between atoms: N_3  and  C_4
REMARK    4  A    between atoms: N_3  and  C_6
REMARK    5  A    between atoms: C_4  and  C_5
REMARK    6  A    between atoms: C_6  and  C_7
REMARK    7  A    between atoms: C_7  and  C_8
REMARK    8  A    between atoms: C_8  and  C_9
REMARK    9  A    between atoms: C_9  and  C_10
REMARK   10  A    between atoms: C_10  and  C_11
REMARK   11  A    between atoms: C_11  and  N_12
REMARK   12  A    between atoms: N_12  and  C_13
REMARK   13  A    between atoms: C_15  and  O_16
REMARK   14  A    between atoms: O_16  and  C_17
REMARK   15  A    between atoms: C_20  and  C_21
REMARK                            x       y       z     vdW  Elec       q    Type
REMARK                         _______ _______ _______ _____ _____    ______ ____
ROOT
ATOM      1  N   UNL     1       8.704  -2.228  25.151  0.00  0.00    -0.342 N 
ATOM      2  H   UNL     1       9.672  -2.520  24.973  0.00  0.00    +0.146 HD
ENDROOT
BRANCH   1   3
ATOM      3  C   UNL     1       7.958  -3.426  25.404  0.00  0.00    +0.057 A 
ATOM      4  C   UNL     1       7.047  -3.894  24.430  0.00  0.00    +0.092 A 
ATOM      5  C   UNL     1       6.252  -5.036  24.721  0.00  0.00    +0.009 A 
ATOM      6  C   UNL     1       5.338  -5.478  23.728  0.00  0.00    -0.040 A 
ATOM      7  C   UNL     1       5.270  -4.787  22.515  0.00  0.00    +0.023 A 
ATOM      8  C   UNL     1       6.099  -3.700  22.322  0.00  0.00    +0.112 A 
ATOM      9  C   UNL     1       4.412  -6.654  23.888  0.00  0.00    +0.044 C 
ATOM     10  C   UNL     1       6.408  -5.666  25.977  0.00  0.00    +0.056 A 
ATOM     11  C   UNL     1       7.292  -5.189  26.940  0.00  0.00    +0.123 A 
ATOM     12  N   UNL     1       6.976  -3.254  23.241  0.00  0.00    -0.253 NA
ATOM     13  C   UNL     1       8.039  -4.060  26.656  0.00  0.00    +0.070 A 
BRANCH  11  14
ATOM     14  O   UNL     1       7.329  -5.895  28.111  0.00  0.00    -0.495 OA
ATOM     15  C   UNL     1       6.070  -6.260  28.672  0.00  0.00    +0.277 C 
ENDBRANCH  11  14
ENDBRANCH   1   3
BRANCH   1  16
ATOM     16  C   UNL     1       8.576  -1.192  26.171  0.00  0.00    +0.101 C 
BRANCH  16  17
ATOM     17  C   UNL     1       8.152   0.144  25.572  0.00  0.00    +0.019 C 
BRANCH  17  18
ATOM     18  C   UNL     1       7.108  -0.049  24.462  0.00  0.00    +0.002 C 
BRANCH  18  19
ATOM     19  C   UNL     1       6.482   1.270  23.998  0.00  0.00    +0.001 C 
BRANCH  19  20
ATOM     20  C   UNL     1       7.534   2.366  23.829  0.00  0.00    +0.015 C 
BRANCH  20  21
ATOM     21  C   UNL     1       7.990   2.527  22.367  0.00  0.00    +0.084 C 
BRANCH  21  22
ATOM     22  N   UNL     1       9.305   1.936  22.053  0.00  0.00    -0.303 NA
BRANCH  22  24
ATOM     23  C   UNL     1      11.060   3.237  23.319  0.00  0.00    +0.020 C 
ATOM     24  C   UNL     1      10.216   1.970  23.207  0.00  0.00    +0.081 C 
ENDBRANCH  22  24
BRANCH  22  25
ATOM     25  C   UNL     1       9.163   0.608  21.432  0.00  0.00    +0.081 C 
ATOM     26  C   UNL     1       9.975  -0.522  22.061  0.00  0.00    +0.020 C 
ENDBRANCH  22  25
ENDBRANCH  21  22
ENDBRANCH  20  21
ENDBRANCH  19  20
ENDBRANCH  18  19
ENDBRANCH  17  18
ENDBRANCH  16  17
ENDBRANCH   1  16
TORSDOF 11
ENDMDL
