MODEL 1
REMARK VINA RESULT:      -3.2      0.000      0.000
REMARK  Name = 
REMARK  4 active torsions:
REMARK  status: ('A' for Active; 'I' for Inactive)
REMARK    1  A    between atoms: CB_1  and  CA_2
REMARK    2  A    between atoms: CA_2  and  N_4
REMARK    3  A    between atoms: CA_2  and  C_5
REMARK    4  A    between atoms: C_5  and  O_6
REMARK                            x       y       z     vdW  Elec       q    Type
REMARK                         _______ _______ _______ _____ _____    ______ ____
ROOT
ATOM      1  CB  ALA A   1       7.818  -3.361  26.416  0.00  0.00    +0.035 C 
ATOM      2  CA  ALA A   1       8.071  -4.798  25.987  0.00  0.00    +0.158 C 
ENDROOT
BRANCH   2   3
ATOM      3  N   ALA A   1       8.114  -5.685  27.185  0.00  0.00    -0.319 NA
ATOM      4  H1  ALA A   1       7.773  -6.610  26.904  0.00  0.00    +0.119 HD
ATOM      5  H2  ALA A   1       9.100  -5.843  27.420  0.00  0.00    +0.119 HD
ENDBRANCH   2   3
BRANCH   2   6
ATOM      6  C   ALA A   1       9.426  -4.879  25.271  0.00  0.00    +0.321 C 
ATOM      7  OXT ALA A   1       9.868  -4.040  24.504  0.00  0.00    -0.249 OA
BRANCH   6   8
ATOM      8  O   ALA A   1      10.100  -6.006  25.624  0.00  0.00    -0.480 OA
ATOM      9  H   ALA A   1      10.534  -6.332  24.798  0.00  0.00    +0.295 HD
ENDBRANCH   6   8
ENDBRANCH   2   6
TORSDOF 3
ENDMDL
MODEL 2
REMARK VINA RESULT:      -3.2      2.313      2.457
REMARK  Name = 
REMARK  4 active torsions:
REMARK  status: ('A' for Active; 'I' for Inactive)
REMARK    1  A    between atoms: CB_1  and  CA_2
REMARK    2  A    between atoms: CA_2  and  N_4
REMARK    3  A    between atoms: CA_2  and  C_5
REMARK    4  A    between atoms: C_5  and  O_6
REMARK                            x       y       z     vdW  Elec       q    Type
REMARK                         _______ _______ _______ _____ _____    ______ ____
ROOT
ATOM      1  CB  ALA A   1       8.929  -3.613  24.787  0.00  0.00    +0.035 C 
ATOM      2  CA  ALA A   1       9.193  -4.639  25.878  0.00  0.00    +0.158 C 
ENDROOT
BRANCH   2   3
ATOM      3  N   ALA A   1      10.147  -5.672  25.382  0.00  0.00    -0.319 NA
ATOM      4  H1  ALA A   1      10.327  -5.484  24.391  0.00  0.00    +0.119 HD
ATOM      5  H2  ALA A   1      11.051  -5.504  25.836  0.00  0.00    +0.119 HD
ENDBRANCH   2   3
BRANCH   2   6
ATOM      6  C   ALA A   1       7.875  -5.330  26.251  0.00  0.00    +0.321 C 
ATOM      7  OXT ALA A   1       6.902  -5.429  25.522  0.00  0.00    -0.249 OA
BRANCH   6   8
ATOM      8  O   ALA A   1       7.934  -5.854  27.504  0.00  0.00    -0.480 OA
ATOM      9  H   ALA A   1       8.148  -5.098  28.104  0.00  0.00    +0.295 HD
ENDBRANCH   6   8
ENDBRANCH   2   6
TORSDOF 3
ENDMDL
MODEL 3
REMARK VINA RESULT:      -3.1      6.913      7.195
REMARK  Name = 
REMARK  4 active torsions:
REMARK  status: ('A' for Active; 'I' for Inactive)
REMARK    1  A    between atoms: CB_1  and  CA_2
REMARK    2  A    between atoms: CA_2  and  N_4
REMARK    3  A    between atoms: CA_2  and  C_5
REMARK    4  A    between atoms: C_5  and  O_6
REMARK                            x       y       z     vdW  Elec       q    Type
REMARK                         _______ _______ _______ _____ _____    ______ ____
ROOT
ATOM      1  CB  ALA A   1      10.431   0.213  23.400  0.00  0.00    +0.035 C 
ATOM      2  CA  ALA A   1       9.340   0.052  22.353  0.00  0.00    +0.158 C 
ENDROOT
BRANCH   2   3
ATOM      3  N   ALA A   1       9.791  -0.892  21.290  0.00  0.00    -0.319 NA
ATOM      4  H1  ALA A   1       9.263  -1.763  21.400  0.00  0.00    +0.119 HD
ATOM      5  H2  ALA A   1       9.474  -0.520  20.389  0.00  0.00    +0.119 HD
ENDBRANCH   2   3
BRANCH   2   6
ATOM      6  C   ALA A   1       9.056   1.415  21.707  0.00  0.00    +0.321 C 
ATOM      7  OXT ALA A   1       7.956   1.817  21.365  0.00  0.00    -0.249 OA
BRANCH   6   8
ATOM      8  O   ALA A   1      10.196   2.148  21.588  0.00  0.00    -0.480 OA
ATOM      9  H   ALA A   1      10.937   1.494  21.573  0.00  0.00    +0.295 HD
ENDBRANCH   6   8
ENDBRANCH   2   6
TORSDOF 3
ENDMDL
MODEL 4
REMARK VINA RESULT:      -3.0      6.364      6.606
REMARK  Name = 
REMARK  4 active torsions:
REMARK  status: ('A' for Active; 'I' for Inactive)
REMARK    1  A    between atoms: CB_1  and  CA_2
REMARK    2  A    between atoms: CA_2  and  N_4
REMARK    3  A    between atoms: CA_2  and  C_5
REMARK    4  A    between atoms: C_5  and  O_6
REMARK                            x       y       z     vdW  Elec       q    Type
REMARK                         _______ _______ _______ _____ _____    ______ ____
ROOT
ATOM      1  CB  ALA A   1      10.049   1.178  23.682  0.00  0.00    +0.035 C 
ATOM      2  CA  ALA A   1      10.106   0.793  22.212  0.00  0.00    +0.158 C 
ENDROOT
BRANCH   2   3
ATOM      3  N   ALA A   1       9.451   1.848  21.386  0.00  0.00    -0.319 NA
ATOM      4  H1  ALA A   1       8.442   1.664  21.383  0.00  0.00    +0.119 HD
ATOM      5  H2  ALA A   1       9.540   2.737  21.889  0.00  0.00    +0.119 HD
ENDBRANCH   2   3
BRANCH   2   6
ATOM      6  C   ALA A   1       9.351  -0.527  22.007  0.00  0.00    +0.321 C 
ATOM      7  OXT ALA A   1       8.198  -0.739  22.346  0.00  0.00    -0.249 OA
BRANCH   6   8
ATOM      8  O   ALA A   1      10.127  -1.439  21.362  0.00  0.00    -0.480 OA
ATOM      9  H   ALA A   1       9.883  -2.318  21.743  0.00  0.00    +0.295 HD
ENDBRANCH   6   8
ENDBRANCH   2   6
TORSDOF 3
ENDMDL
MODEL 5
REMARK VINA RESULT:      -3.0      2.250      2.569
REMARK  Name = 
REMARK  4 active torsions:
REMARK  status: ('A' for Active; 'I' for Inactive)
REMARK    1  A    between atoms: CB_1  and  CA_2
REMARK    2  A    between atoms: CA_2  and  N_4
REMARK    3  A    between atoms: CA_2  and  C_5
REMARK    4  A    between atoms: C_5  and  O_6
REMARK                            x       y       z     vdW  Elec       q    Type
REMARK                         _______ _______ _______ _____ _____    ______ ____
ROOT
ATOM      1  CB  ALA A   1       8.019  -4.919  23.773  0.00  0.00    +0.035 C 
ATOM      2  CA  ALA A   1       8.702  -3.992  24.765  0.00  0.00    +0.158 C 
ENDROOT
BRANCH   2   3
ATOM      3  N   ALA A   1       9.920  -3.394  24.146  0.00  0.00    -0.319 NA
ATOM      4  H1  ALA A   1      10.661  -4.103  24.163  0.00  0.00    +0.119 HD
ATOM      5  H2  ALA A   1       9.727  -3.259  23.148  0.00  0.00    +0.119 HD
ENDBRANCH   2   3
BRANCH   2   6
ATOM      6  C   ALA A   1       9.127  -4.799  25.999  0.00  0.00    +0.321 C 
ATOM      7  OXT ALA A   1       8.531  -4.826  27.063  0.00  0.00    -0.249 OA
BRANCH   6   8
ATOM      8  O   ALA A   1      10.254  -5.518  25.749  0.00  0.00    -0.480 OA
ATOM      9  H   ALA A   1      10.262  -5.678  24.773  0.00  0.00    +0.295 HD
ENDBRANCH   6   8
ENDBRANCH   2   6
TORSDOF 3
ENDMDL
MODEL 6
REMARK VINA RESULT:      -2.9      0.999      1.188
REMARK  Name = 
REMARK  4 active torsions:
REMARK  status: ('A' for Active; 'I' for Inactive)
REMARK    1  A    between atoms: CB_1  and  CA_2
REMARK    2  A    between atoms: CA_2  and  N_4
REMARK    3  A    between atoms: CA_2  and  C_5
REMARK    4  A    between atoms: C_5  and  O_6
REMARK                            x       y       z     vdW  Elec       q    Type
REMARK                         _______ _______ _______ _____ _____    ______ ____
ROOT
ATOM      1  CB  ALA A   1       7.982  -3.351  26.429  0.00  0.00    +0.035 C 
ATOM      2  CA  ALA A   1       7.910  -4.806  25.994  0.00  0.00    +0.158 C 
ENDROOT
BRANCH   2   3
ATOM      3  N   ALA A   1       8.143  -5.698  27.166  0.00  0.00    -0.319 NA
ATOM      4  H1  ALA A   1       8.171  -5.112  28.007  0.00  0.00    +0.119 HD
ATOM      5  H2  ALA A   1       7.304  -6.274  27.291  0.00  0.00    +0.119 HD
ENDBRANCH   2   3
BRANCH   2   6
ATOM      6  C   ALA A   1       9.002  -5.075  24.951  0.00  0.00    +0.321 C 
ATOM      7  OXT ALA A   1      10.203  -5.029  25.160  0.00  0.00    -0.249 OA
BRANCH   6   8
ATOM      8  O   ALA A   1       8.460  -5.409  23.748  0.00  0.00    -0.480 OA
ATOM      9  H   ALA A   1       9.003  -4.941  23.068  0.00  0.00    +0.295 HD
ENDBRANCH   6   8
ENDBRANCH   2   6
TORSDOF 3
ENDMDL
MODEL 7
REMARK VINA RESULT:      -2.9      7.282      7.649
REMARK  Name = 
REMARK  4 active torsions:
REMARK  status: ('A' for Active; 'I' for Inactive)
REMARK    1  A    between atoms: CB_1  and  CA_2
REMARK    2  A    between atoms: CA_2  and  N_4
REMARK    3  A    between atoms: CA_2  and  C_5
REMARK    4  A    between atoms: C_5  and  O_6
REMARK                            x       y       z     vdW  Elec       q    Type
REMARK                         _______ _______ _______ _____ _____    ______ ____
ROOT
ATOM      1  CB  ALA A   1       8.616   2.854  24.764  0.00  0.00    +0.035 C 
ATOM      2  CA  ALA A   1       9.455   1.852  23.986  0.00  0.00    +0.158 C 
ENDROOT
BRANCH   2   3
ATOM      3  N   ALA A   1      10.280   1.041  24.927  0.00  0.00    -0.319 NA
ATOM      4  H1  ALA A   1      10.066   1.353  25.880  0.00  0.00    +0.119 HD
ATOM      5  H2  ALA A   1       9.930   0.078  24.895  0.00  0.00    +0.119 HD
ENDBRANCH   2   3
BRANCH   2   6
ATOM      6  C   ALA A   1      10.397   2.610  23.040  0.00  0.00    +0.321 C 
ATOM      7  OXT ALA A   1      11.242   3.418  23.386  0.00  0.00    -0.249 OA
BRANCH   6   8
ATOM      8  O   ALA A   1      10.192   2.242  21.746  0.00  0.00    -0.480 OA
ATOM      9  H   ALA A   1       9.273   1.878  21.712  0.00  0.00    +0.295 HD
ENDBRANCH   6   8
ENDBRANCH   2   6
TORSDOF 3
ENDMDL
MODEL 8
REMARK VINA RESULT:      -2.8      6.411      7.017
REMARK  Name = 
REMARK  4 active torsions:
REMARK  status: ('A' for Active; 'I' for Inactive)
REMARK    1  A    between atoms: CB_1  and  CA_2
REMARK    2  A    between atoms: CA_2  and  N_4
REMARK    3  A    between atoms: CA_2  and  C_5
REMARK    4  A    between atoms: C_5  and  O_6
REMARK                            x       y       z     vdW  Elec       q    Type
REMARK                         _______ _______ _______ _____ _____    ______ ____
ROOT
ATOM      1  CB  ALA A   1       9.102   0.261  24.223  0.00  0.00    +0.035 C 
ATOM      2  CA  ALA A   1      10.284   0.740  23.394  0.00  0.00    +0.158 C 
ENDROOT
BRANCH   2   3
ATOM      3  N   ALA A   1      10.745   2.069  23.888  0.00  0.00    -0.319 NA
ATOM      4  H1  ALA A   1      11.507   2.384  23.279  0.00  0.00    +0.119 HD
ATOM      5  H2  ALA A   1       9.992   2.744  23.715  0.00  0.00    +0.119 HD
ENDBRANCH   2   3
BRANCH   2   6
ATOM      6  C   ALA A   1       9.846   0.888  21.931  0.00  0.00    +0.321 C 
ATOM      7  OXT ALA A   1       9.405  -0.010  21.234  0.00  0.00    -0.249 OA
BRANCH   6   8
ATOM      8  O   ALA A   1       9.983   2.174  21.506  0.00  0.00    -0.480 OA
ATOM      9  H   ALA A   1       9.120   2.615  21.699  0.00  0.00    +0.295 HD
ENDBRANCH   6   8
ENDBRANCH   2   6
TORSDOF 3
ENDMDL
MODEL 9
REMARK VINA RESULT:      -2.8      4.825      5.282
REMARK  Name = 
REMARK  4 active torsions:
REMARK  status: ('A' for Active; 'I' for Inactive)
REMARK    1  A    between atoms: CB_1  and  CA_2
REMARK    2  A    between atoms: CA_2  and  N_4
REMARK    3  A    between atoms: CA_2  and  C_5
REMARK    4  A    between atoms: C_5  and  O_6
REMARK                            x       y       z     vdW  Elec       q    Type
REMARK                         _______ _______ _______ _____ _____    ______ ____
ROOT
ATOM      1  CB  ALA A   1      10.159   0.049  24.599  0.00  0.00    +0.035 C 
ATOM      2  CA  ALA A   1       9.517  -0.894  23.594  0.00  0.00    +0.158 C 
ENDROOT
BRANCH   2   3
ATOM      3  N   ALA A   1      10.017  -2.283  23.810  0.00  0.00    -0.319 NA
ATOM      4  H1  ALA A   1      10.496  -2.581  22.955  0.00  0.00    +0.119 HD
ATOM      5  H2  ALA A   1      10.763  -2.239  24.513  0.00  0.00    +0.119 HD
ENDBRANCH   2   3
BRANCH   2   6
ATOM      6  C   ALA A   1       9.898  -0.454  22.175  0.00  0.00    +0.321 C 
ATOM      7  OXT ALA A   1      10.034   0.702  21.809  0.00  0.00    -0.249 OA
BRANCH   6   8
ATOM      8  O   ALA A   1      10.099  -1.529  21.365  0.00  0.00    -0.480 OA
ATOM      9  H   ALA A   1       9.273  -2.070  21.425  0.00  0.00    +0.295 HD
ENDBRANCH   6   8
ENDBRANCH   2   6
TORSDOF 3
ENDMDL
