MODEL 1
REMARK VINA RESULT:      -3.4      0.000      0.000
REMARK  Name = 
REMARK  4 active torsions:
REMARK  status: ('A' for Active; 'I' for Inactive)
REMARK    1  A    between atoms: O_1  and  P_2
REMARK    2  A    between atoms: P_2  and  O_3
REMARK    3  A    between atoms: P_2  and  C_5
REMARK    4  A    between atoms: C_5  and  C_6
REMARK                            x       y       z     vdW  Elec       q    Type
REMARK                         _______ _______ _______ _____ _____    ______ ____
ROOT
ATOM      1  P   UNL     1       2.649   5.889  14.392  0.00  0.00    +0.335 P 
ATOM      2  O   UNL     1       1.852   6.326  15.623  0.00  0.00    -0.258 OA
ENDROOT
BRANCH   1   3
ATOM      3  O   UNL     1       4.117   6.435  15.128  0.00  0.00    -0.324 OA
ATOM      4  H   UNL     1       3.977   6.596  16.080  0.00  0.00    +0.220 HD
ENDBRANCH   1   3
BRANCH   1   5
ATOM      5  O   UNL     1       3.124   4.363  14.746  0.00  0.00    -0.324 OA
ATOM      6  H   UNL     1       3.842   4.141  14.117  0.00  0.00    +0.220 HD
ENDBRANCH   1   5
BRANCH   1   7
ATOM      7  C   UNL     1       1.097   5.311  13.614  0.00  0.00    +0.197 C 
BRANCH   7   8
ATOM      8  C   UNL     1       0.521   4.231  14.465  0.00  0.00    +0.235 C 
ATOM      9  O   UNL     1       0.443   3.060  14.101  0.00  0.00    -0.300 OA
ENDBRANCH   7   8
ENDBRANCH   1   7
TORSDOF 4
ENDMDL
MODEL 2
REMARK VINA RESULT:      -3.3     16.373     16.861
REMARK  Name = 
REMARK  4 active torsions:
REMARK  status: ('A' for Active; 'I' for Inactive)
REMARK    1  A    between atoms: O_1  and  P_2
REMARK    2  A    between atoms: P_2  and  O_3
REMARK    3  A    between atoms: P_2  and  C_5
REMARK    4  A    between atoms: C_5  and  C_6
REMARK                            x       y       z     vdW  Elec       q    Type
REMARK                         _______ _______ _______ _____ _____    ______ ____
ROOT
ATOM      1  P   UNL     1       8.907  -5.204  25.486  0.00  0.00    +0.335 P 
ATOM      2  O   UNL     1       8.770  -3.870  24.749  0.00  0.00    -0.258 OA
ENDROOT
BRANCH   1   3
ATOM      3  O   UNL     1      10.588  -5.274  25.082  0.00  0.00    -0.324 OA
ATOM      4  H   UNL     1      10.784  -4.664  24.347  0.00  0.00    +0.220 HD
ENDBRANCH   1   3
BRANCH   1   5
ATOM      5  O   UNL     1       9.363  -4.777  26.999  0.00  0.00    -0.324 OA
ATOM      6  H   UNL     1       9.392  -5.604  27.526  0.00  0.00    +0.220 HD
ENDBRANCH   1   5
BRANCH   1   7
ATOM      7  C   UNL     1       7.130  -5.130  25.914  0.00  0.00    +0.197 C 
BRANCH   7   8
ATOM      8  C   UNL     1       7.006  -5.113  27.400  0.00  0.00    +0.235 C 
ATOM      9  O   UNL     1       7.188  -6.107  28.099  0.00  0.00    -0.300 OA
ENDBRANCH   7   8
ENDBRANCH   1   7
TORSDOF 4
ENDMDL
MODEL 3
REMARK VINA RESULT:      -3.2     15.198     15.783
REMARK  Name = 
REMARK  4 active torsions:
REMARK  status: ('A' for Active; 'I' for Inactive)
REMARK    1  A    between atoms: O_1  and  P_2
REMARK    2  A    between atoms: P_2  and  O_3
REMARK    3  A    between atoms: P_2  and  C_5
REMARK    4  A    between atoms: C_5  and  C_6
REMARK                            x       y       z     vdW  Elec       q    Type
REMARK                         _______ _______ _______ _____ _____    ______ ____
ROOT
ATOM      1  P   UNL     1       8.875  -4.380  25.528  0.00  0.00    +0.335 P 
ATOM      2  O   UNL     1       7.715  -5.377  25.582  0.00  0.00    -0.258 OA
ENDROOT
BRANCH   1   3
ATOM      3  O   UNL     1       9.415  -4.897  27.088  0.00  0.00    -0.324 OA
ATOM      4  H   UNL     1       8.710  -5.399  27.539  0.00  0.00    +0.220 HD
ENDBRANCH   1   3
BRANCH   1   5
ATOM      5  O   UNL     1      10.112  -5.243  24.894  0.00  0.00    -0.324 OA
ATOM      6  H   UNL     1       9.771  -6.149  24.739  0.00  0.00    +0.220 HD
ENDBRANCH   1   5
BRANCH   1   7
ATOM      7  C   UNL     1       8.304  -3.833  23.877  0.00  0.00    +0.197 C 
BRANCH   7   8
ATOM      8  C   UNL     1       9.109  -2.645  23.473  0.00  0.00    +0.235 C 
ATOM      9  O   UNL     1      10.337  -2.635  23.476  0.00  0.00    -0.300 OA
ENDBRANCH   7   8
ENDBRANCH   1   7
TORSDOF 4
ENDMDL
MODEL 4
REMARK VINA RESULT:      -3.2     15.941     16.518
REMARK  Name = 
REMARK  4 active torsions:
REMARK  status: ('A' for Active; 'I' for Inactive)
REMARK    1  A    between atoms: O_1  and  P_2
REMARK    2  A    between atoms: P_2  and  O_3
REMARK    3  A    between atoms: P_2  and  C_5
REMARK    4  A    between atoms: C_5  and  C_6
REMARK                            x       y       z     vdW  Elec       q    Type
REMARK                         _______ _______ _______ _____ _____    ______ ____
ROOT
ATOM      1  P   UNL     1       7.579  -5.062  26.534  0.00  0.00    +0.335 P 
ATOM      2  O   UNL     1       6.353  -5.785  25.972  0.00  0.00    -0.258 OA
ENDROOT
BRANCH   1   3
ATOM      3  O   UNL     1       7.521  -6.036  27.962  0.00  0.00    -0.324 OA
ATOM      4  H   UNL     1       6.889  -5.658  28.602  0.00  0.00    +0.220 HD
ENDBRANCH   1   3
BRANCH   1   5
ATOM      5  O   UNL     1       8.842  -5.980  26.045  0.00  0.00    -0.324 OA
ATOM      6  H   UNL     1       8.980  -5.783  25.095  0.00  0.00    +0.220 HD
ENDBRANCH   1   5
BRANCH   1   7
ATOM      7  C   UNL     1       7.641  -4.030  25.023  0.00  0.00    +0.197 C 
BRANCH   7   8
ATOM      8  C   UNL     1       8.981  -3.380  24.955  0.00  0.00    +0.235 C 
ATOM      9  O   UNL     1       9.952  -3.901  24.413  0.00  0.00    -0.300 OA
ENDBRANCH   7   8
ENDBRANCH   1   7
TORSDOF 4
ENDMDL
MODEL 5
REMARK VINA RESULT:      -3.2     12.109     12.599
REMARK  Name = 
REMARK  4 active torsions:
REMARK  status: ('A' for Active; 'I' for Inactive)
REMARK    1  A    between atoms: O_1  and  P_2
REMARK    2  A    between atoms: P_2  and  O_3
REMARK    3  A    between atoms: P_2  and  C_5
REMARK    4  A    between atoms: C_5  and  C_6
REMARK                            x       y       z     vdW  Elec       q    Type
REMARK                         _______ _______ _______ _____ _____    ______ ____
ROOT
ATOM      1  P   UNL     1       9.252   0.559  22.365  0.00  0.00    +0.335 P 
ATOM      2  O   UNL     1      10.493   0.727  23.244  0.00  0.00    -0.258 OA
ENDROOT
BRANCH   1   3
ATOM      3  O   UNL     1       9.750   1.890  21.378  0.00  0.00    -0.324 OA
ATOM      4  H   UNL     1      10.703   1.826  21.182  0.00  0.00    +0.220 HD
ENDBRANCH   1   3
BRANCH   1   5
ATOM      5  O   UNL     1       9.749  -0.428  21.158  0.00  0.00    -0.324 OA
ATOM      6  H   UNL     1       9.177  -1.224  21.195  0.00  0.00    +0.220 HD
ENDBRANCH   1   5
BRANCH   1   7
ATOM      7  C   UNL     1       8.725  -0.848  23.409  0.00  0.00    +0.197 C 
BRANCH   7   8
ATOM      8  C   UNL     1       9.934  -1.647  23.763  0.00  0.00    +0.235 C 
ATOM      9  O   UNL     1      10.355  -2.568  23.069  0.00  0.00    -0.300 OA
ENDBRANCH   7   8
ENDBRANCH   1   7
TORSDOF 4
ENDMDL
MODEL 6
REMARK VINA RESULT:      -3.2     11.704     12.339
REMARK  Name = 
REMARK  4 active torsions:
REMARK  status: ('A' for Active; 'I' for Inactive)
REMARK    1  A    between atoms: O_1  and  P_2
REMARK    2  A    between atoms: P_2  and  O_3
REMARK    3  A    between atoms: P_2  and  C_5
REMARK    4  A    between atoms: C_5  and  C_6
REMARK                            x       y       z     vdW  Elec       q    Type
REMARK                         _______ _______ _______ _____ _____    ______ ____
ROOT
ATOM      1  P   UNL     1       9.850   0.670  22.434  0.00  0.00    +0.335 P 
ATOM      2  O   UNL     1       8.390   0.573  22.881  0.00  0.00    -0.258 OA
ENDROOT
BRANCH   1   3
ATOM      3  O   UNL     1       9.503  -0.283  21.033  0.00  0.00    -0.324 OA
ATOM      4  H   UNL     1       9.716  -1.221  21.202  0.00  0.00    +0.220 HD
ENDBRANCH   1   3
BRANCH   1   5
ATOM      5  O   UNL     1       9.878   1.977  21.449  0.00  0.00    -0.324 OA
ATOM      6  H   UNL     1      10.778   2.015  21.061  0.00  0.00    +0.220 HD
ENDBRANCH   1   5
BRANCH   1   7
ATOM      7  C   UNL     1      10.218   1.679  23.916  0.00  0.00    +0.197 C 
BRANCH   7   8
ATOM      8  C   UNL     1      10.346   3.103  23.493  0.00  0.00    +0.235 C 
ATOM      9  O   UNL     1      11.428   3.662  23.337  0.00  0.00    -0.300 OA
ENDBRANCH   7   8
ENDBRANCH   1   7
TORSDOF 4
ENDMDL
MODEL 7
REMARK VINA RESULT:      -3.1     15.490     15.972
REMARK  Name = 
REMARK  4 active torsions:
REMARK  status: ('A' for Active; 'I' for Inactive)
REMARK    1  A    between atoms: O_1  and  P_2
REMARK    2  A    between atoms: P_2  and  O_3
REMARK    3  A    between atoms: P_2  and  C_5
REMARK    4  A    between atoms: C_5  and  C_6
REMARK                            x       y       z     vdW  Elec       q    Type
REMARK                         _______ _______ _______ _____ _____    ______ ____
ROOT
ATOM      1  P   UNL     1       8.541  -4.854  25.676  0.00  0.00    +0.335 P 
ATOM      2  O   UNL     1       7.786  -5.887  26.516  0.00  0.00    -0.258 OA
ENDROOT
BRANCH   1   3
ATOM      3  O   UNL     1       9.872  -4.904  26.780  0.00  0.00    -0.324 OA
ATOM      4  H   UNL     1      10.487  -4.168  26.600  0.00  0.00    +0.220 HD
ENDBRANCH   1   3
BRANCH   1   5
ATOM      5  O   UNL     1       9.447  -5.757  24.655  0.00  0.00    -0.324 OA
ATOM      6  H   UNL     1       8.976  -5.764  23.795  0.00  0.00    +0.220 HD
ENDBRANCH   1   5
BRANCH   1   7
ATOM      7  C   UNL     1       7.133  -4.801  24.509  0.00  0.00    +0.197 C 
BRANCH   7   8
ATOM      8  C   UNL     1       7.669  -4.922  23.123  0.00  0.00    +0.235 C 
ATOM      9  O   UNL     1       7.508  -5.920  22.426  0.00  0.00    -0.300 OA
ENDBRANCH   7   8
ENDBRANCH   1   7
TORSDOF 4
ENDMDL
MODEL 8
REMARK VINA RESULT:      -3.1     12.688     13.369
REMARK  Name = 
REMARK  4 active torsions:
REMARK  status: ('A' for Active; 'I' for Inactive)
REMARK    1  A    between atoms: O_1  and  P_2
REMARK    2  A    between atoms: P_2  and  O_3
REMARK    3  A    between atoms: P_2  and  C_5
REMARK    4  A    between atoms: C_5  and  C_6
REMARK                            x       y       z     vdW  Elec       q    Type
REMARK                         _______ _______ _______ _____ _____    ______ ____
ROOT
ATOM      1  P   UNL     1      12.357   5.530  23.333  0.00  0.00    +0.335 P 
ATOM      2  O   UNL     1      12.643   6.034  24.750  0.00  0.00    -0.258 OA
ENDROOT
BRANCH   1   3
ATOM      3  O   UNL     1      14.015   5.076  23.142  0.00  0.00    -0.324 OA
ATOM      4  H   UNL     1      14.270   5.118  22.201  0.00  0.00    +0.220 HD
ENDBRANCH   1   3
BRANCH   1   5
ATOM      5  O   UNL     1      12.020   3.942  23.536  0.00  0.00    -0.324 OA
ATOM      6  H   UNL     1      12.683   3.594  24.171  0.00  0.00    +0.220 HD
ENDBRANCH   1   5
BRANCH   1   7
ATOM      7  C   UNL     1      10.603   6.011  23.535  0.00  0.00    +0.197 C 
BRANCH   7   8
ATOM      8  C   UNL     1       9.803   4.775  23.773  0.00  0.00    +0.235 C 
ATOM      9  O   UNL     1       9.208   4.554  24.824  0.00  0.00    -0.300 OA
ENDBRANCH   7   8
ENDBRANCH   1   7
TORSDOF 4
ENDMDL
MODEL 9
REMARK VINA RESULT:      -3.1     11.896     12.351
REMARK  Name = 
REMARK  4 active torsions:
REMARK  status: ('A' for Active; 'I' for Inactive)
REMARK    1  A    between atoms: O_1  and  P_2
REMARK    2  A    between atoms: P_2  and  O_3
REMARK    3  A    between atoms: P_2  and  C_5
REMARK    4  A    between atoms: C_5  and  C_6
REMARK                            x       y       z     vdW  Elec       q    Type
REMARK                         _______ _______ _______ _____ _____    ______ ____
ROOT
ATOM      1  P   UNL     1       9.471   0.475  21.740  0.00  0.00    +0.335 P 
ATOM      2  O   UNL     1       8.072   0.815  22.258  0.00  0.00    -0.258 OA
ENDROOT
BRANCH   1   3
ATOM      3  O   UNL     1       9.809   2.154  21.501  0.00  0.00    -0.324 OA
ATOM      4  H   UNL     1      10.536   2.264  20.860  0.00  0.00    +0.220 HD
ENDBRANCH   1   3
BRANCH   1   5
ATOM      5  O   UNL     1      10.418   0.548  23.073  0.00  0.00    -0.324 OA
ATOM      6  H   UNL     1      10.428  -0.353  23.458  0.00  0.00    +0.220 HD
ENDBRANCH   1   5
BRANCH   1   7
ATOM      7  C   UNL     1       9.113  -1.302  21.993  0.00  0.00    +0.197 C 
BRANCH   7   8
ATOM      8  C   UNL     1      10.175  -1.873  22.871  0.00  0.00    +0.235 C 
ATOM      9  O   UNL     1       9.956  -2.283  24.008  0.00  0.00    -0.300 OA
ENDBRANCH   7   8
ENDBRANCH   1   7
TORSDOF 4
ENDMDL
