MODEL 1
REMARK VINA RESULT:      -5.4      0.000      0.000
REMARK  Name = 
REMARK  12 active torsions:
REMARK  status: ('A' for Active; 'I' for Inactive)
REMARK    1  A    between atoms: C_1  and  C_2
REMARK    2  A    between atoms: N_4  and  C_5
REMARK    3  A    between atoms: C_7  and  O_9
REMARK    4  A    between atoms: C_11  and  P_24
REMARK    5  A    between atoms: C_14  and  C_16
REMARK    6  A    between atoms: C_16  and  O_18
REMARK    7  A    between atoms: C_16  and  C_19
REMARK    8  A    between atoms: C_19  and  O_21
REMARK    9  A    between atoms: C_19  and  C_22
REMARK   10  A    between atoms: C_22  and  O_23
REMARK   11  A    between atoms: P_24  and  O_25
REMARK   12  A    between atoms: P_24  and  O_26
REMARK                            x       y       z     vdW  Elec       q    Type
REMARK                         _______ _______ _______ _____ _____    ______ ____
ROOT
ATOM      1  C   UNL     1       8.744  -1.487  23.517  0.00  0.00    +0.133 C 
ATOM      2  C   UNL     1       7.927  -0.276  24.000  0.00  0.00    +0.173 C 
ATOM      3  O   UNL     1       7.423   0.456  22.872  0.00  0.00    -0.357 OA
ATOM      4  C   UNL     1       8.448   0.973  21.969  0.00  0.00    +0.234 C 
ATOM      5  C   UNL     1       9.345  -0.151  21.461  0.00  0.00    +0.077 C 
ATOM      6  C   UNL     1       9.901  -0.951  22.634  0.00  0.00    +0.140 C 
ENDROOT
BRANCH   1   9
ATOM      7  C   UNL     1       6.881  -4.546  22.227  0.00  0.00    +0.109 C 
ATOM      8  C   UNL     1       7.897  -3.790  23.034  0.00  0.00    +0.210 C 
ATOM      9  N   UNL     1       7.905  -2.438  22.792  0.00  0.00    -0.308 N 
ATOM     10  H   UNL     1       7.070  -2.042  22.348  0.00  0.00    +0.149 HD
ATOM     11  O   UNL     1       8.669  -4.334  23.814  0.00  0.00    -0.276 OA
ENDBRANCH   1   9
BRANCH   4  12
ATOM     12  P   UNL     1       9.349   2.316  22.825  0.00  0.00    +0.356 P 
ATOM     13  O   UNL     1      10.111   3.453  23.550  0.00  0.00    -0.256 OA
BRANCH  12  14
ATOM     14  O   UNL     1       8.275   3.358  22.121  0.00  0.00    -0.322 OA
ATOM     15  H   UNL     1       7.666   3.714  22.792  0.00  0.00    +0.220 HD
ENDBRANCH  12  14
BRANCH  12  16
ATOM     16  O   UNL     1      10.414   2.316  21.568  0.00  0.00    -0.322 OA
ATOM     17  H   UNL     1      10.851   1.441  21.556  0.00  0.00    +0.220 HD
ENDBRANCH  12  16
ENDBRANCH   4  12
BRANCH   6  18
ATOM     18  O   UNL     1      10.715  -0.058  23.415  0.00  0.00    -0.390 OA
ATOM     19  H   UNL     1      10.116   0.606  23.808  0.00  0.00    +0.210 HD
ENDBRANCH   6  18
BRANCH   2  20
ATOM     20  C   UNL     1       6.752  -0.707  24.914  0.00  0.00    +0.176 C 
BRANCH  20  21
ATOM     21  O   UNL     1       5.643  -1.073  24.073  0.00  0.00    -0.387 OA
ATOM     22  H   UNL     1       5.468  -0.278  23.527  0.00  0.00    +0.210 HD
ENDBRANCH  20  21
BRANCH  20  23
ATOM     23  C   UNL     1       6.338   0.410  25.906  0.00  0.00    +0.171 C 
BRANCH  23  24
ATOM     24  O   UNL     1       7.295   1.480  25.882  0.00  0.00    -0.387 OA
ATOM     25  H   UNL     1       7.640   1.548  24.965  0.00  0.00    +0.210 HD
ENDBRANCH  23  24
BRANCH  23  26
ATOM     26  C   UNL     1       4.965   1.025  25.586  0.00  0.00    +0.189 C 
BRANCH  26  27
ATOM     27  O   UNL     1       4.921   1.554  24.263  0.00  0.00    -0.392 OA
ATOM     28  H   UNL     1       4.914   0.775  23.675  0.00  0.00    +0.210 HD
ENDBRANCH  26  27
ENDBRANCH  23  26
ENDBRANCH  20  23
ENDBRANCH   2  20
TORSDOF 11
ENDMDL
MODEL 2
REMARK VINA RESULT:      -5.4      3.587      6.241
REMARK  Name = 
REMARK  12 active torsions:
REMARK  status: ('A' for Active; 'I' for Inactive)
REMARK    1  A    between atoms: C_1  and  C_2
REMARK    2  A    between atoms: N_4  and  C_5
REMARK    3  A    between atoms: C_7  and  O_9
REMARK    4  A    between atoms: C_11  and  P_24
REMARK    5  A    between atoms: C_14  and  C_16
REMARK    6  A    between atoms: C_16  and  O_18
REMARK    7  A    between atoms: C_16  and  C_19
REMARK    8  A    between atoms: C_19  and  O_21
REMARK    9  A    between atoms: C_19  and  C_22
REMARK   10  A    between atoms: C_22  and  O_23
REMARK   11  A    between atoms: P_24  and  O_25
REMARK   12  A    between atoms: P_24  and  O_26
REMARK                            x       y       z     vdW  Elec       q    Type
REMARK                         _______ _______ _______ _____ _____    ______ ____
ROOT
ATOM      1  C   UNL     1       8.743  -3.273  24.029  0.00  0.00    +0.133 C 
ATOM      2  C   UNL     1       7.208  -3.325  24.125  0.00  0.00    +0.173 C 
ATOM      3  O   UNL     1       6.784  -2.859  25.416  0.00  0.00    -0.357 OA
ATOM      4  C   UNL     1       7.303  -3.626  26.546  0.00  0.00    +0.234 C 
ATOM      5  C   UNL     1       8.827  -3.672  26.520  0.00  0.00    +0.077 C 
ATOM      6  C   UNL     1       9.315  -4.163  25.162  0.00  0.00    +0.140 C 
ENDROOT
BRANCH   1   9
ATOM      7  C   UNL     1      10.369   0.121  23.456  0.00  0.00    +0.109 C 
ATOM      8  C   UNL     1      10.082  -1.330  23.199  0.00  0.00    +0.210 C 
ATOM      9  N   UNL     1       9.235  -1.900  24.117  0.00  0.00    -0.308 N 
ATOM     10  H   UNL     1       8.662  -1.261  24.678  0.00  0.00    +0.149 HD
ATOM     11  O   UNL     1      10.584  -1.957  22.274  0.00  0.00    -0.276 OA
ENDBRANCH   1   9
BRANCH   4  12
ATOM     12  P   UNL     1       6.507  -5.274  26.540  0.00  0.00    +0.356 P 
ATOM     13  O   UNL     1       5.834  -6.668  26.534  0.00  0.00    -0.256 OA
BRANCH  12  14
ATOM     14  O   UNL     1       5.464  -4.671  27.672  0.00  0.00    -0.322 OA
ATOM     15  H   UNL     1       5.589  -3.709  27.762  0.00  0.00    +0.220 HD
ENDBRANCH  12  14
BRANCH  12  16
ATOM     16  O   UNL     1       7.651  -5.759  27.623  0.00  0.00    -0.322 OA
ATOM     17  H   UNL     1       7.351  -6.609  28.003  0.00  0.00    +0.220 HD
ENDBRANCH  12  16
ENDBRANCH   4  12
BRANCH   6  18
ATOM     18  O   UNL     1       8.833  -5.508  24.994  0.00  0.00    -0.390 OA
ATOM     19  H   UNL     1       9.600  -6.103  25.103  0.00  0.00    +0.210 HD
ENDBRANCH   6  18
BRANCH   2  20
ATOM     20  C   UNL     1       6.536  -2.477  23.015  0.00  0.00    +0.176 C 
BRANCH  20  21
ATOM     21  O   UNL     1       6.051  -1.261  23.612  0.00  0.00    -0.387 OA
ATOM     22  H   UNL     1       6.513  -0.543  23.131  0.00  0.00    +0.210 HD
ENDBRANCH  20  21
BRANCH  20  23
ATOM     23  C   UNL     1       5.382  -3.237  22.312  0.00  0.00    +0.171 C 
BRANCH  23  24
ATOM     24  O   UNL     1       5.739  -3.542  20.955  0.00  0.00    -0.387 OA
ATOM     25  H   UNL     1       6.485  -4.180  20.980  0.00  0.00    +0.210 HD
ENDBRANCH  23  24
BRANCH  23  26
ATOM     26  C   UNL     1       5.031  -4.569  22.995  0.00  0.00    +0.189 C 
BRANCH  26  27
ATOM     27  O   UNL     1       3.637  -4.853  22.910  0.00  0.00    -0.392 OA
ATOM     28  H   UNL     1       3.194  -4.099  23.344  0.00  0.00    +0.210 HD
ENDBRANCH  26  27
ENDBRANCH  23  26
ENDBRANCH  20  23
ENDBRANCH   2  20
TORSDOF 11
ENDMDL
MODEL 3
REMARK VINA RESULT:      -5.2      2.096      4.508
REMARK  Name = 
REMARK  12 active torsions:
REMARK  status: ('A' for Active; 'I' for Inactive)
REMARK    1  A    between atoms: C_1  and  C_2
REMARK    2  A    between atoms: N_4  and  C_5
REMARK    3  A    between atoms: C_7  and  O_9
REMARK    4  A    between atoms: C_11  and  P_24
REMARK    5  A    between atoms: C_14  and  C_16
REMARK    6  A    between atoms: C_16  and  O_18
REMARK    7  A    between atoms: C_16  and  C_19
REMARK    8  A    between atoms: C_19  and  O_21
REMARK    9  A    between atoms: C_19  and  C_22
REMARK   10  A    between atoms: C_22  and  O_23
REMARK   11  A    between atoms: P_24  and  O_25
REMARK   12  A    between atoms: P_24  and  O_26
REMARK                            x       y       z     vdW  Elec       q    Type
REMARK                         _______ _______ _______ _____ _____    ______ ____
ROOT
ATOM      1  C   UNL     1       6.931  -1.973  22.863  0.00  0.00    +0.133 C 
ATOM      2  C   UNL     1       8.177  -1.151  23.234  0.00  0.00    +0.173 C 
ATOM      3  O   UNL     1       8.772  -1.679  24.431  0.00  0.00    -0.357 OA
ATOM      4  C   UNL     1       7.899  -1.673  25.602  0.00  0.00    +0.234 C 
ATOM      5  C   UNL     1       6.607  -2.433  25.324  0.00  0.00    +0.077 C 
ATOM      6  C   UNL     1       5.946  -1.898  24.058  0.00  0.00    +0.140 C 
ENDROOT
BRANCH   1   9
ATOM      7  C   UNL     1       7.094  -5.535  21.529  0.00  0.00    +0.109 C 
ATOM      8  C   UNL     1       6.472  -4.199  21.819  0.00  0.00    +0.210 C 
ATOM      9  N   UNL     1       7.283  -3.353  22.535  0.00  0.00    -0.308 N 
ATOM     10  H   UNL     1       8.285  -3.567  22.543  0.00  0.00    +0.149 HD
ATOM     11  O   UNL     1       5.335  -3.904  21.475  0.00  0.00    -0.276 OA
ENDBRANCH   1   9
BRANCH   4  12
ATOM     12  P   UNL     1       7.647   0.062  26.127  0.00  0.00    +0.356 P 
ATOM     13  O   UNL     1       7.433   1.529  26.571  0.00  0.00    -0.256 OA
BRANCH  12  14
ATOM     14  O   UNL     1       8.946  -0.150  27.127  0.00  0.00    -0.322 OA
ATOM     15  H   UNL     1       8.745  -0.829  27.796  0.00  0.00    +0.220 HD
ENDBRANCH  12  14
BRANCH  12  16
ATOM     16  O   UNL     1       6.529  -0.494  27.202  0.00  0.00    -0.322 OA
ATOM     17  H   UNL     1       6.030  -1.211  26.760  0.00  0.00    +0.220 HD
ENDBRANCH  12  16
ENDBRANCH   4  12
BRANCH   6  18
ATOM     18  O   UNL     1       5.603  -0.523  24.301  0.00  0.00    -0.390 OA
ATOM     19  H   UNL     1       6.388  -0.097  24.697  0.00  0.00    +0.210 HD
ENDBRANCH   6  18
BRANCH   2  20
ATOM     20  C   UNL     1       9.221  -1.146  22.088  0.00  0.00    +0.176 C 
BRANCH  20  21
ATOM     21  O   UNL     1      10.280  -2.053  22.443  0.00  0.00    -0.387 OA
ATOM     22  H   UNL     1      10.843  -1.550  23.069  0.00  0.00    +0.210 HD
ENDBRANCH  20  21
BRANCH  20  23
ATOM     23  C   UNL     1       9.786   0.271  21.814  0.00  0.00    +0.171 C 
BRANCH  23  24
ATOM     24  O   UNL     1       8.876   1.023  20.997  0.00  0.00    -0.387 OA
ATOM     25  H   UNL     1       9.090   0.828  20.058  0.00  0.00    +0.210 HD
ENDBRANCH  23  24
BRANCH  23  26
ATOM     26  C   UNL     1      10.020   1.087  23.096  0.00  0.00    +0.189 C 
BRANCH  26  27
ATOM     27  O   UNL     1      10.957   0.451  23.962  0.00  0.00    -0.392 OA
ATOM     28  H   UNL     1      10.682   0.698  24.865  0.00  0.00    +0.210 HD
ENDBRANCH  26  27
ENDBRANCH  23  26
ENDBRANCH  20  23
ENDBRANCH   2  20
TORSDOF 11
ENDMDL
MODEL 4
REMARK VINA RESULT:      -5.1      2.345      3.804
REMARK  Name = 
REMARK  12 active torsions:
REMARK  status: ('A' for Active; 'I' for Inactive)
REMARK    1  A    between atoms: C_1  and  C_2
REMARK    2  A    between atoms: N_4  and  C_5
REMARK    3  A    between atoms: C_7  and  O_9
REMARK    4  A    between atoms: C_11  and  P_24
REMARK    5  A    between atoms: C_14  and  C_16
REMARK    6  A    between atoms: C_16  and  O_18
REMARK    7  A    between atoms: C_16  and  C_19
REMARK    8  A    between atoms: C_19  and  O_21
REMARK    9  A    between atoms: C_19  and  C_22
REMARK   10  A    between atoms: C_22  and  O_23
REMARK   11  A    between atoms: P_24  and  O_25
REMARK   12  A    between atoms: P_24  and  O_26
REMARK                            x       y       z     vdW  Elec       q    Type
REMARK                         _______ _______ _______ _____ _____    ______ ____
ROOT
ATOM      1  C   UNL     1       8.526  -3.123  22.902  0.00  0.00    +0.133 C 
ATOM      2  C   UNL     1       8.951  -2.792  24.344  0.00  0.00    +0.173 C 
ATOM      3  O   UNL     1       8.239  -1.635  24.810  0.00  0.00    -0.357 OA
ATOM      4  C   UNL     1       8.451  -0.425  24.020  0.00  0.00    +0.234 C 
ATOM      5  C   UNL     1       8.096  -0.660  22.556  0.00  0.00    +0.077 C 
ATOM      6  C   UNL     1       8.836  -1.883  22.025  0.00  0.00    +0.140 C 
ENDROOT
BRANCH   1   9
ATOM      7  C   UNL     1       5.172  -4.846  22.380  0.00  0.00    +0.109 C 
ATOM      8  C   UNL     1       6.652  -4.638  22.234  0.00  0.00    +0.210 C 
ATOM      9  N   UNL     1       7.114  -3.494  22.837  0.00  0.00    -0.308 N 
ATOM     10  H   UNL     1       6.513  -3.071  23.550  0.00  0.00    +0.149 HD
ATOM     11  O   UNL     1       7.375  -5.403  21.607  0.00  0.00    -0.276 OA
ENDBRANCH   1   9
BRANCH   4  12
ATOM     12  P   UNL     1      10.169   0.146  24.289  0.00  0.00    +0.356 P 
ATOM     13  O   UNL     1      11.622   0.629  24.515  0.00  0.00    -0.256 OA
BRANCH  12  14
ATOM     14  O   UNL     1       9.780   0.265  25.891  0.00  0.00    -0.322 OA
ATOM     15  H   UNL     1       9.058  -0.353  26.106  0.00  0.00    +0.220 HD
ENDBRANCH  12  14
BRANCH  12  16
ATOM     16  O   UNL     1       9.659   1.661  23.891  0.00  0.00    -0.322 OA
ATOM     17  H   UNL     1       9.055   1.961  24.600  0.00  0.00    +0.220 HD
ENDBRANCH  12  16
ENDBRANCH   4  12
BRANCH   6  18
ATOM     18  O   UNL     1      10.244  -1.596  22.094  0.00  0.00    -0.390 OA
ATOM     19  H   UNL     1      10.559  -1.917  22.961  0.00  0.00    +0.210 HD
ENDBRANCH   6  18
BRANCH   2  20
ATOM     20  C   UNL     1       8.700  -3.985  25.302  0.00  0.00    +0.176 C 
BRANCH  20  21
ATOM     21  O   UNL     1       8.462  -5.157  24.503  0.00  0.00    -0.387 OA
ATOM     22  H   UNL     1       7.488  -5.200  24.403  0.00  0.00    +0.210 HD
ENDBRANCH  20  21
BRANCH  20  23
ATOM     23  C   UNL     1       7.511  -3.728  26.262  0.00  0.00    +0.171 C 
BRANCH  23  24
ATOM     24  O   UNL     1       6.301  -3.524  25.516  0.00  0.00    -0.387 OA
ATOM     25  H   UNL     1       5.652  -3.096  26.117  0.00  0.00    +0.210 HD
ENDBRANCH  23  24
BRANCH  23  26
ATOM     26  C   UNL     1       7.253  -4.896  27.229  0.00  0.00    +0.189 C 
BRANCH  26  27
ATOM     27  O   UNL     1       8.226  -5.927  27.082  0.00  0.00    -0.392 OA
ATOM     28  H   UNL     1       7.800  -6.734  27.429  0.00  0.00    +0.210 HD
ENDBRANCH  26  27
ENDBRANCH  23  26
ENDBRANCH  20  23
ENDBRANCH   2  20
TORSDOF 11
ENDMDL
MODEL 5
REMARK VINA RESULT:      -5.0      2.426      4.694
REMARK  Name = 
REMARK  12 active torsions:
REMARK  status: ('A' for Active; 'I' for Inactive)
REMARK    1  A    between atoms: C_1  and  C_2
REMARK    2  A    between atoms: N_4  and  C_5
REMARK    3  A    between atoms: C_7  and  O_9
REMARK    4  A    between atoms: C_11  and  P_24
REMARK    5  A    between atoms: C_14  and  C_16
REMARK    6  A    between atoms: C_16  and  O_18
REMARK    7  A    between atoms: C_16  and  C_19
REMARK    8  A    between atoms: C_19  and  O_21
REMARK    9  A    between atoms: C_19  and  C_22
REMARK   10  A    between atoms: C_22  and  O_23
REMARK   11  A    between atoms: P_24  and  O_25
REMARK   12  A    between atoms: P_24  and  O_26
REMARK                            x       y       z     vdW  Elec       q    Type
REMARK                         _______ _______ _______ _____ _____    ______ ____
ROOT
ATOM      1  C   UNL     1       6.676  -2.330  24.405  0.00  0.00    +0.133 C 
ATOM      2  C   UNL     1       7.110  -2.534  22.943  0.00  0.00    +0.173 C 
ATOM      3  O   UNL     1       8.472  -2.988  22.896  0.00  0.00    -0.357 OA
ATOM      4  C   UNL     1       9.442  -2.078  23.501  0.00  0.00    +0.234 C 
ATOM      5  C   UNL     1       9.078  -1.776  24.950  0.00  0.00    +0.077 C 
ATOM      6  C   UNL     1       7.635  -1.290  25.039  0.00  0.00    +0.140 C 
ENDROOT
BRANCH   1   9
ATOM      7  C   UNL     1       6.088  -5.199  26.837  0.00  0.00    +0.109 C 
ATOM      8  C   UNL     1       6.008  -3.791  26.322  0.00  0.00    +0.210 C 
ATOM      9  N   UNL     1       6.681  -3.592  25.142  0.00  0.00    -0.308 N 
ATOM     10  H   UNL     1       6.902  -4.425  24.588  0.00  0.00    +0.149 HD
ATOM     11  O   UNL     1       5.422  -2.895  26.917  0.00  0.00    -0.276 OA
ENDBRANCH   1   9
BRANCH   4  12
ATOM     12  P   UNL     1       9.580  -0.593  22.441  0.00  0.00    +0.356 P 
ATOM     13  O   UNL     1       9.696   0.664  21.544  0.00  0.00    -0.256 OA
BRANCH  12  14
ATOM     14  O   UNL     1      10.666  -1.452  21.538  0.00  0.00    -0.322 OA
ATOM     15  H   UNL     1      11.424  -1.715  22.090  0.00  0.00    +0.220 HD
ENDBRANCH  12  14
BRANCH  12  16
ATOM     16  O   UNL     1      10.689  -0.011  23.511  0.00  0.00    -0.322 OA
ATOM     17  H   UNL     1      10.232   0.115  24.366  0.00  0.00    +0.220 HD
ENDBRANCH  12  16
ENDBRANCH   4  12
BRANCH   6  18
ATOM     18  O   UNL     1       7.551  -0.059  24.299  0.00  0.00    -0.390 OA
ATOM     19  H   UNL     1       7.021  -0.241  23.499  0.00  0.00    +0.210 HD
ENDBRANCH   6  18
BRANCH   2  20
ATOM     20  C   UNL     1       6.194  -3.547  22.210  0.00  0.00    +0.176 C 
BRANCH  20  21
ATOM     21  O   UNL     1       5.005  -3.728  23.001  0.00  0.00    -0.387 OA
ATOM     22  H   UNL     1       4.594  -2.840  23.044  0.00  0.00    +0.210 HD
ENDBRANCH  20  21
BRANCH  20  23
ATOM     23  C   UNL     1       6.897  -4.906  21.964  0.00  0.00    +0.171 C 
BRANCH  23  24
ATOM     24  O   UNL     1       7.169  -5.561  23.213  0.00  0.00    -0.387 OA
ATOM     25  H   UNL     1       7.492  -4.879  23.841  0.00  0.00    +0.210 HD
ENDBRANCH  23  24
BRANCH  23  26
ATOM     26  C   UNL     1       6.056  -5.878  21.119  0.00  0.00    +0.189 C 
BRANCH  26  27
ATOM     27  O   UNL     1       4.870  -6.278  21.801  0.00  0.00    -0.392 OA
ATOM     28  H   UNL     1       5.177  -6.679  22.636  0.00  0.00    +0.210 HD
ENDBRANCH  26  27
ENDBRANCH  23  26
ENDBRANCH  20  23
ENDBRANCH   2  20
TORSDOF 11
ENDMDL
MODEL 6
REMARK VINA RESULT:      -4.8      5.417      8.071
REMARK  Name = 
REMARK  12 active torsions:
REMARK  status: ('A' for Active; 'I' for Inactive)
REMARK    1  A    between atoms: C_1  and  C_2
REMARK    2  A    between atoms: N_4  and  C_5
REMARK    3  A    between atoms: C_7  and  O_9
REMARK    4  A    between atoms: C_11  and  P_24
REMARK    5  A    between atoms: C_14  and  C_16
REMARK    6  A    between atoms: C_16  and  O_18
REMARK    7  A    between atoms: C_16  and  C_19
REMARK    8  A    between atoms: C_19  and  O_21
REMARK    9  A    between atoms: C_19  and  C_22
REMARK   10  A    between atoms: C_22  and  O_23
REMARK   11  A    between atoms: P_24  and  O_25
REMARK   12  A    between atoms: P_24  and  O_26
REMARK                            x       y       z     vdW  Elec       q    Type
REMARK                         _______ _______ _______ _____ _____    ______ ____
ROOT
ATOM      1  C   UNL     1       5.374  -4.779  24.903  0.00  0.00    +0.133 C 
ATOM      2  C   UNL     1       6.102  -5.337  26.138  0.00  0.00    +0.173 C 
ATOM      3  O   UNL     1       5.667  -6.682  26.396  0.00  0.00    -0.357 OA
ATOM      4  C   UNL     1       4.236  -6.825  26.649  0.00  0.00    +0.234 C 
ATOM      5  C   UNL     1       3.417  -6.260  25.493  0.00  0.00    +0.077 C 
ATOM      6  C   UNL     1       3.852  -4.830  25.191  0.00  0.00    +0.140 C 
ENDROOT
BRANCH   1   9
ATOM      7  C   UNL     1       6.123  -5.949  21.358  0.00  0.00    +0.109 C 
ATOM      8  C   UNL     1       5.613  -5.023  22.425  0.00  0.00    +0.210 C 
ATOM      9  N   UNL     1       5.723  -5.528  23.698  0.00  0.00    -0.308 N 
ATOM     10  H   UNL     1       6.380  -6.302  23.834  0.00  0.00    +0.149 HD
ATOM     11  O   UNL     1       5.116  -3.931  22.180  0.00  0.00    -0.276 OA
ENDBRANCH   1   9
BRANCH   4  12
ATOM     12  P   UNL     1       3.857  -6.068  28.271  0.00  0.00    +0.356 P 
ATOM     13  O   UNL     1       3.537  -5.426  29.644  0.00  0.00    -0.256 OA
BRANCH  12  14
ATOM     14  O   UNL     1       4.159  -7.554  28.931  0.00  0.00    -0.322 OA
ATOM     15  H   UNL     1       3.753  -8.250  28.385  0.00  0.00    +0.220 HD
ENDBRANCH  12  14
BRANCH  12  16
ATOM     16  O   UNL     1       2.265  -6.354  27.961  0.00  0.00    -0.322 OA
ATOM     17  H   UNL     1       2.221  -6.941  27.179  0.00  0.00    +0.220 HD
ENDBRANCH  12  16
ENDBRANCH   4  12
BRANCH   6  18
ATOM     18  O   UNL     1       3.566  -4.040  26.359  0.00  0.00    -0.390 OA
ATOM     19  H   UNL     1       4.294  -4.191  26.992  0.00  0.00    +0.210 HD
ENDBRANCH   6  18
BRANCH   2  20
ATOM     20  C   UNL     1       7.641  -5.309  25.957  0.00  0.00    +0.176 C 
BRANCH  20  21
ATOM     21  O   UNL     1       8.245  -5.678  27.210  0.00  0.00    -0.387 OA
ATOM     22  H   UNL     1       7.528  -6.114  27.716  0.00  0.00    +0.210 HD
ENDBRANCH  20  21
BRANCH  20  23
ATOM     23  C   UNL     1       8.154  -3.922  25.492  0.00  0.00    +0.171 C 
BRANCH  23  24
ATOM     24  O   UNL     1       8.402  -3.075  26.625  0.00  0.00    -0.387 OA
ATOM     25  H   UNL     1       9.338  -3.204  26.892  0.00  0.00    +0.210 HD
ENDBRANCH  23  24
BRANCH  23  26
ATOM     26  C   UNL     1       9.465  -4.000  24.692  0.00  0.00    +0.189 C 
BRANCH  26  27
ATOM     27  O   UNL     1      10.223  -5.157  25.034  0.00  0.00    -0.392 OA
ATOM     28  H   UNL     1      10.296  -5.137  26.007  0.00  0.00    +0.210 HD
ENDBRANCH  26  27
ENDBRANCH  23  26
ENDBRANCH  20  23
ENDBRANCH   2  20
TORSDOF 11
ENDMDL
MODEL 7
REMARK VINA RESULT:      -4.7      3.598      6.542
REMARK  Name = 
REMARK  12 active torsions:
REMARK  status: ('A' for Active; 'I' for Inactive)
REMARK    1  A    between atoms: C_1  and  C_2
REMARK    2  A    between atoms: N_4  and  C_5
REMARK    3  A    between atoms: C_7  and  O_9
REMARK    4  A    between atoms: C_11  and  P_24
REMARK    5  A    between atoms: C_14  and  C_16
REMARK    6  A    between atoms: C_16  and  O_18
REMARK    7  A    between atoms: C_16  and  C_19
REMARK    8  A    between atoms: C_19  and  O_21
REMARK    9  A    between atoms: C_19  and  C_22
REMARK   10  A    between atoms: C_22  and  O_23
REMARK   11  A    between atoms: P_24  and  O_25
REMARK   12  A    between atoms: P_24  and  O_26
REMARK                            x       y       z     vdW  Elec       q    Type
REMARK                         _______ _______ _______ _____ _____    ______ ____
ROOT
ATOM      1  C   UNL     1       7.026  -2.773  23.381  0.00  0.00    +0.133 C 
ATOM      2  C   UNL     1       6.714  -3.719  24.553  0.00  0.00    +0.173 C 
ATOM      3  O   UNL     1       7.127  -5.055  24.227  0.00  0.00    -0.357 OA
ATOM      4  C   UNL     1       6.484  -5.623  23.045  0.00  0.00    +0.234 C 
ATOM      5  C   UNL     1       6.700  -4.734  21.825  0.00  0.00    +0.077 C 
ATOM      6  C   UNL     1       6.271  -3.304  22.135  0.00  0.00    +0.140 C 
ENDROOT
BRANCH   1   9
ATOM      7  C   UNL     1      10.585  -1.667  22.603  0.00  0.00    +0.109 C 
ATOM      8  C   UNL     1       9.090  -1.549  22.674  0.00  0.00    +0.210 C 
ATOM      9  N   UNL     1       8.465  -2.678  23.143  0.00  0.00    -0.308 N 
ATOM     10  H   UNL     1       9.043  -3.346  23.663  0.00  0.00    +0.149 HD
ATOM     11  O   UNL     1       8.482  -0.548  22.317  0.00  0.00    -0.276 OA
ENDBRANCH   1   9
BRANCH   4  12
ATOM     12  P   UNL     1       4.724  -5.936  23.438  0.00  0.00    +0.356 P 
ATOM     13  O   UNL     1       3.235  -6.200  23.770  0.00  0.00    -0.256 OA
BRANCH  12  14
ATOM     14  O   UNL     1       5.180  -7.479  23.819  0.00  0.00    -0.322 OA
ATOM     15  H   UNL     1       5.049  -7.641  24.770  0.00  0.00    +0.220 HD
ENDBRANCH  12  14
BRANCH  12  16
ATOM     16  O   UNL     1       4.486  -6.234  21.835  0.00  0.00    -0.322 OA
ATOM     17  H   UNL     1       4.050  -7.107  21.762  0.00  0.00    +0.220 HD
ENDBRANCH  12  16
ENDBRANCH   4  12
BRANCH   6  18
ATOM     18  O   UNL     1       4.860  -3.330  22.415  0.00  0.00    -0.390 OA
ATOM     19  H   UNL     1       4.518  -4.183  22.084  0.00  0.00    +0.210 HD
ENDBRANCH   6  18
BRANCH   2  20
ATOM     20  C   UNL     1       7.410  -3.259  25.860  0.00  0.00    +0.176 C 
BRANCH  20  21
ATOM     21  O   UNL     1       8.764  -3.746  25.840  0.00  0.00    -0.387 OA
ATOM     22  H   UNL     1       9.098  -3.598  26.750  0.00  0.00    +0.210 HD
ENDBRANCH  20  21
BRANCH  20  23
ATOM     23  C   UNL     1       6.670  -3.756  27.128  0.00  0.00    +0.171 C 
BRANCH  23  24
ATOM     24  O   UNL     1       5.331  -3.239  27.160  0.00  0.00    -0.387 OA
ATOM     25  H   UNL     1       4.717  -4.005  27.186  0.00  0.00    +0.210 HD
ENDBRANCH  23  24
BRANCH  23  26
ATOM     26  C   UNL     1       6.563  -5.289  27.203  0.00  0.00    +0.189 C 
BRANCH  26  27
ATOM     27  O   UNL     1       7.846  -5.908  27.181  0.00  0.00    -0.392 OA
ATOM     28  H   UNL     1       8.265  -5.663  28.028  0.00  0.00    +0.210 HD
ENDBRANCH  26  27
ENDBRANCH  23  26
ENDBRANCH  20  23
ENDBRANCH   2  20
TORSDOF 11
ENDMDL
MODEL 8
REMARK VINA RESULT:      -4.7      2.590      3.547
REMARK  Name = 
REMARK  12 active torsions:
REMARK  status: ('A' for Active; 'I' for Inactive)
REMARK    1  A    between atoms: C_1  and  C_2
REMARK    2  A    between atoms: N_4  and  C_5
REMARK    3  A    between atoms: C_7  and  O_9
REMARK    4  A    between atoms: C_11  and  P_24
REMARK    5  A    between atoms: C_14  and  C_16
REMARK    6  A    between atoms: C_16  and  O_18
REMARK    7  A    between atoms: C_16  and  C_19
REMARK    8  A    between atoms: C_19  and  O_21
REMARK    9  A    between atoms: C_19  and  C_22
REMARK   10  A    between atoms: C_22  and  O_23
REMARK   11  A    between atoms: P_24  and  O_25
REMARK   12  A    between atoms: P_24  and  O_26
REMARK                            x       y       z     vdW  Elec       q    Type
REMARK                         _______ _______ _______ _____ _____    ______ ____
ROOT
ATOM      1  C   UNL     1       7.295  -4.301  25.242  0.00  0.00    +0.133 C 
ATOM      2  C   UNL     1       7.169  -2.769  25.186  0.00  0.00    +0.173 C 
ATOM      3  O   UNL     1       6.788  -2.358  23.862  0.00  0.00    -0.357 OA
ATOM      4  C   UNL     1       7.724  -2.743  22.809  0.00  0.00    +0.234 C 
ATOM      5  C   UNL     1       7.952  -4.250  22.805  0.00  0.00    +0.077 C 
ATOM      6  C   UNL     1       8.359  -4.724  24.197  0.00  0.00    +0.140 C 
ENDROOT
BRANCH   1   9
ATOM      7  C   UNL     1       4.110  -6.382  25.394  0.00  0.00    +0.109 C 
ATOM      8  C   UNL     1       5.489  -5.942  25.793  0.00  0.00    +0.210 C 
ATOM      9  N   UNL     1       6.008  -4.949  24.999  0.00  0.00    -0.308 N 
ATOM     10  H   UNL     1       5.342  -4.411  24.436  0.00  0.00    +0.149 HD
ATOM     11  O   UNL     1       6.107  -6.445  26.724  0.00  0.00    -0.276 OA
ENDBRANCH   1   9
BRANCH   4  12
ATOM     12  P   UNL     1       9.254  -1.758  23.006  0.00  0.00    +0.356 P 
ATOM     13  O   UNL     1      10.548  -0.925  23.172  0.00  0.00    -0.256 OA
BRANCH  12  14
ATOM     14  O   UNL     1       8.278  -0.423  23.042  0.00  0.00    -0.322 OA
ATOM     15  H   UNL     1       7.343  -0.691  22.985  0.00  0.00    +0.220 HD
ENDBRANCH  12  14
BRANCH  12  16
ATOM     16  O   UNL     1       9.410  -1.793  21.366  0.00  0.00    -0.322 OA
ATOM     17  H   UNL     1       9.388  -0.867  21.051  0.00  0.00    +0.220 HD
ENDBRANCH  12  16
ENDBRANCH   4  12
BRANCH   6  18
ATOM     18  O   UNL     1       9.611  -4.091  24.516  0.00  0.00    -0.390 OA
ATOM     19  H   UNL     1      10.238  -4.801  24.754  0.00  0.00    +0.210 HD
ENDBRANCH   6  18
BRANCH   2  20
ATOM     20  C   UNL     1       6.137  -2.241  26.216  0.00  0.00    +0.176 C 
BRANCH  20  21
ATOM     21  O   UNL     1       4.819  -2.479  25.690  0.00  0.00    -0.387 OA
ATOM     22  H   UNL     1       4.233  -2.491  26.476  0.00  0.00    +0.210 HD
ENDBRANCH  20  21
BRANCH  20  23
ATOM     23  C   UNL     1       6.336  -0.736  26.529  0.00  0.00    +0.171 C 
BRANCH  23  24
ATOM     24  O   UNL     1       7.629  -0.299  26.084  0.00  0.00    -0.387 OA
ATOM     25  H   UNL     1       7.523   0.066  25.178  0.00  0.00    +0.210 HD
ENDBRANCH  23  24
BRANCH  23  26
ATOM     26  C   UNL     1       5.295   0.166  25.845  0.00  0.00    +0.189 C 
BRANCH  26  27
ATOM     27  O   UNL     1       5.474   0.199  24.432  0.00  0.00    -0.392 OA
ATOM     28  H   UNL     1       6.441   0.224  24.296  0.00  0.00    +0.210 HD
ENDBRANCH  26  27
ENDBRANCH  23  26
ENDBRANCH  20  23
ENDBRANCH   2  20
TORSDOF 11
ENDMDL
MODEL 9
REMARK VINA RESULT:      -4.7      3.178      5.630
REMARK  Name = 
REMARK  12 active torsions:
REMARK  status: ('A' for Active; 'I' for Inactive)
REMARK    1  A    between atoms: C_1  and  C_2
REMARK    2  A    between atoms: N_4  and  C_5
REMARK    3  A    between atoms: C_7  and  O_9
REMARK    4  A    between atoms: C_11  and  P_24
REMARK    5  A    between atoms: C_14  and  C_16
REMARK    6  A    between atoms: C_16  and  O_18
REMARK    7  A    between atoms: C_16  and  C_19
REMARK    8  A    between atoms: C_19  and  O_21
REMARK    9  A    between atoms: C_19  and  C_22
REMARK   10  A    between atoms: C_22  and  O_23
REMARK   11  A    between atoms: P_24  and  O_25
REMARK   12  A    between atoms: P_24  and  O_26
REMARK                            x       y       z     vdW  Elec       q    Type
REMARK                         _______ _______ _______ _____ _____    ______ ____
ROOT
ATOM      1  C   UNL     1       8.264  -2.904  23.976  0.00  0.00    +0.133 C 
ATOM      2  C   UNL     1       6.906  -2.796  24.692  0.00  0.00    +0.173 C 
ATOM      3  O   UNL     1       7.111  -2.629  26.105  0.00  0.00    -0.357 OA
ATOM      4  C   UNL     1       7.842  -3.716  26.750  0.00  0.00    +0.234 C 
ATOM      5  C   UNL     1       9.196  -3.935  26.083  0.00  0.00    +0.077 C 
ATOM      6  C   UNL     1       9.018  -4.117  24.580  0.00  0.00    +0.140 C 
ENDROOT
BRANCH   1   9
ATOM      7  C   UNL     1      10.502   0.134  23.469  0.00  0.00    +0.109 C 
ATOM      8  C   UNL     1       9.903  -1.206  23.149  0.00  0.00    +0.210 C 
ATOM      9  N   UNL     1       9.033  -1.668  24.105  0.00  0.00    -0.308 N 
ATOM     10  H   UNL     1       8.650  -0.976  24.757  0.00  0.00    +0.149 HD
ATOM     11  O   UNL     1      10.189  -1.841  22.142  0.00  0.00    -0.276 OA
ENDBRANCH   1   9
BRANCH   4  12
ATOM     12  P   UNL     1       6.772  -5.201  26.770  0.00  0.00    +0.356 P 
ATOM     13  O   UNL     1       5.867  -6.457  26.787  0.00  0.00    -0.256 OA
BRANCH  12  14
ATOM     14  O   UNL     1       6.221  -4.669  28.235  0.00  0.00    -0.322 OA
ATOM     15  H   UNL     1       6.710  -5.106  28.955  0.00  0.00    +0.220 HD
ENDBRANCH  12  14
BRANCH  12  16
ATOM     16  O   UNL     1       8.054  -6.038  27.379  0.00  0.00    -0.322 OA
ATOM     17  H   UNL     1       7.696  -6.732  27.968  0.00  0.00    +0.220 HD
ENDBRANCH  12  16
ENDBRANCH   4  12
BRANCH   6  18
ATOM     18  O   UNL     1       8.234  -5.306  24.382  0.00  0.00    -0.390 OA
ATOM     19  H   UNL     1       8.828  -6.068  24.523  0.00  0.00    +0.210 HD
ENDBRANCH   6  18
BRANCH   2  20
ATOM     20  C   UNL     1       6.062  -1.618  24.142  0.00  0.00    +0.176 C 
BRANCH  20  21
ATOM     21  O   UNL     1       6.267  -1.548  22.719  0.00  0.00    -0.387 OA
ATOM     22  H   UNL     1       7.229  -1.688  22.597  0.00  0.00    +0.210 HD
ENDBRANCH  20  21
BRANCH  20  23
ATOM     23  C   UNL     1       6.424  -0.269  24.813  0.00  0.00    +0.171 C 
BRANCH  23  24
ATOM     24  O   UNL     1       6.752   0.712  23.817  0.00  0.00    -0.387 OA
ATOM     25  H   UNL     1       7.185   0.243  23.070  0.00  0.00    +0.210 HD
ENDBRANCH  23  24
BRANCH  23  26
ATOM     26  C   UNL     1       5.279   0.313  25.658  0.00  0.00    +0.189 C 
BRANCH  26  27
ATOM     27  O   UNL     1       5.327  -0.156  27.003  0.00  0.00    -0.392 OA
ATOM     28  H   UNL     1       6.150  -0.676  27.065  0.00  0.00    +0.210 HD
ENDBRANCH  26  27
ENDBRANCH  23  26
ENDBRANCH  20  23
ENDBRANCH   2  20
TORSDOF 11
ENDMDL
