MODEL 1
REMARK VINA RESULT:      -6.2      0.000      0.000
REMARK  Name = 
REMARK  5 active torsions:
REMARK  status: ('A' for Active; 'I' for Inactive)
REMARK    1  A    between atoms: O_1  and  C_2
REMARK    2  A    between atoms: C_2  and  C_4
REMARK    3  A    between atoms: N_6  and  C_7
REMARK    4  A    between atoms: C_8  and  C_9
REMARK    5  A    between atoms: C_9  and  O_10
REMARK                            x       y       z     vdW  Elec       q    Type
REMARK                         _______ _______ _______ _____ _____    ______ ____
ROOT
ATOM      1  C   UNL     1       7.242  -3.716  24.180  0.00  0.00    +0.087 A 
ATOM      2  S   UNL     1       7.185  -3.916  25.869  0.00  0.00    -0.076 S 
ATOM      3  C   UNL     1       6.136  -5.230  25.752  0.00  0.00    +0.009 A 
ATOM      4  C   UNL     1       5.573  -5.895  26.971  0.00  0.00    +0.124 C 
ATOM      5  N   UNL     1       4.929  -7.172  26.625  0.00  0.00    -0.311 NA
ATOM      6  H   UNL     1       4.384  -7.486  27.426  0.00  0.00    +0.122 HD
ATOM      7  C   UNL     1       4.042  -7.017  25.458  0.00  0.00    +0.086 C 
ATOM      8  C   UNL     1       4.837  -6.658  24.182  0.00  0.00    +0.052 C 
ATOM      9  C   UNL     1       5.825  -5.550  24.445  0.00  0.00    -0.019 A 
ATOM     10  C   UNL     1       6.531  -4.703  23.502  0.00  0.00    +0.091 A 
ENDROOT
BRANCH   1  12
ATOM     11  C   UNL     1       9.387  -2.661  23.601  0.00  0.00    +0.326 C 
ATOM     12  N   UNL     1       8.008  -2.690  23.641  0.00  0.00    -0.270 N 
ATOM     13  H   UNL     1       7.521  -1.843  23.338  0.00  0.00    +0.156 HD
ATOM     14  O   UNL     1      10.218  -3.413  24.103  0.00  0.00    -0.263 OA
BRANCH  11  15
ATOM     15  C   UNL     1       9.968  -1.476  22.818  0.00  0.00    +0.393 C 
ATOM     16  O   UNL     1      10.383  -0.464  23.347  0.00  0.00    -0.240 OA
BRANCH  15  17
ATOM     17  O   UNL     1       9.922  -1.726  21.494  0.00  0.00    -0.474 OA
ATOM     18  H   UNL     1       9.271  -2.454  21.339  0.00  0.00    +0.296 HD
ENDBRANCH  15  17
ENDBRANCH  11  15
ENDBRANCH   1  12
BRANCH  10  19
ATOM     19  C   UNL     1       6.489  -4.762  22.042  0.00  0.00    +0.339 C 
ATOM     20  O   UNL     1       7.031  -5.645  21.392  0.00  0.00    -0.245 OA
BRANCH  19  21
ATOM     21  O   UNL     1       5.752  -3.793  21.443  0.00  0.00    -0.477 OA
ATOM     22  H   UNL     1       5.564  -3.048  22.039  0.00  0.00    +0.295 HD
ENDBRANCH  19  21
ENDBRANCH  10  19
TORSDOF 5
ENDMDL
MODEL 2
REMARK VINA RESULT:      -6.0      3.720      6.989
REMARK  Name = 
REMARK  5 active torsions:
REMARK  status: ('A' for Active; 'I' for Inactive)
REMARK    1  A    between atoms: O_1  and  C_2
REMARK    2  A    between atoms: C_2  and  C_4
REMARK    3  A    between atoms: N_6  and  C_7
REMARK    4  A    between atoms: C_8  and  C_9
REMARK    5  A    between atoms: C_9  and  O_10
REMARK                            x       y       z     vdW  Elec       q    Type
REMARK                         _______ _______ _______ _____ _____    ______ ____
ROOT
ATOM      1  C   UNL     1       9.043  -1.762  24.756  0.00  0.00    +0.087 A 
ATOM      2  S   UNL     1       9.591  -1.851  23.147  0.00  0.00    -0.076 S 
ATOM      3  C   UNL     1       9.390  -0.195  22.909  0.00  0.00    +0.009 A 
ATOM      4  C   UNL     1       9.633   0.442  21.574  0.00  0.00    +0.124 C 
ATOM      5  N   UNL     1       9.672   1.908  21.689  0.00  0.00    -0.311 NA
ATOM      6  H   UNL     1       9.628   2.306  20.752  0.00  0.00    +0.122 HD
ATOM      7  C   UNL     1       8.539   2.406  22.488  0.00  0.00    +0.086 C 
ATOM      8  C   UNL     1       8.625   1.928  23.956  0.00  0.00    +0.052 C 
ATOM      9  C   UNL     1       8.925   0.454  24.037  0.00  0.00    -0.019 A 
ATOM     10  C   UNL     1       8.783  -0.455  25.159  0.00  0.00    +0.091 A 
ENDROOT
BRANCH   1  12
ATOM     11  C   UNL     1       7.833  -3.662  25.745  0.00  0.00    +0.326 C 
ATOM     12  N   UNL     1       8.975  -2.922  25.517  0.00  0.00    -0.270 N 
ATOM     13  H   UNL     1       9.814  -3.201  26.031  0.00  0.00    +0.156 HD
ATOM     14  O   UNL     1       6.661  -3.430  25.461  0.00  0.00    -0.263 OA
BRANCH  11  15
ATOM     15  C   UNL     1       8.075  -4.975  26.499  0.00  0.00    +0.393 C 
ATOM     16  O   UNL     1       7.255  -5.870  26.565  0.00  0.00    -0.240 OA
BRANCH  15  17
ATOM     17  O   UNL     1       9.294  -4.963  27.076  0.00  0.00    -0.474 OA
ATOM     18  H   UNL     1       9.534  -5.893  27.312  0.00  0.00    +0.296 HD
ENDBRANCH  15  17
ENDBRANCH  11  15
ENDBRANCH   1  12
BRANCH  10  19
ATOM     19  C   UNL     1       8.356  -0.135  26.520  0.00  0.00    +0.339 C 
ATOM     20  O   UNL     1       7.275   0.376  26.779  0.00  0.00    -0.245 OA
BRANCH  19  21
ATOM     21  O   UNL     1       9.222  -0.496  27.500  0.00  0.00    -0.477 OA
ATOM     22  H   UNL     1       9.992   0.096  27.552  0.00  0.00    +0.295 HD
ENDBRANCH  19  21
ENDBRANCH  10  19
TORSDOF 5
ENDMDL
MODEL 3
REMARK VINA RESULT:      -5.9      3.564      6.245
REMARK  Name = 
REMARK  5 active torsions:
REMARK  status: ('A' for Active; 'I' for Inactive)
REMARK    1  A    between atoms: O_1  and  C_2
REMARK    2  A    between atoms: C_2  and  C_4
REMARK    3  A    between atoms: N_6  and  C_7
REMARK    4  A    between atoms: C_8  and  C_9
REMARK    5  A    between atoms: C_9  and  O_10
REMARK                            x       y       z     vdW  Elec       q    Type
REMARK                         _______ _______ _______ _____ _____    ______ ____
ROOT
ATOM      1  C   UNL     1       8.709  -2.054  23.515  0.00  0.00    +0.087 A 
ATOM      2  S   UNL     1      10.120  -1.280  22.962  0.00  0.00    -0.076 S 
ATOM      3  C   UNL     1       9.280   0.127  22.564  0.00  0.00    +0.009 A 
ATOM      4  C   UNL     1       9.960   1.285  21.899  0.00  0.00    +0.124 C 
ATOM      5  N   UNL     1       9.103   2.481  21.919  0.00  0.00    -0.311 NA
ATOM      6  H   UNL     1       9.501   3.173  21.286  0.00  0.00    +0.122 HD
ATOM      7  C   UNL     1       7.732   2.155  21.491  0.00  0.00    +0.086 C 
ATOM      8  C   UNL     1       7.037   1.199  22.487  0.00  0.00    +0.052 C 
ATOM      9  C   UNL     1       7.932   0.045  22.856  0.00  0.00    -0.019 A 
ATOM     10  C   UNL     1       7.596  -1.219  23.485  0.00  0.00    +0.091 A 
ENDROOT
BRANCH   1  12
ATOM     11  C   UNL     1       8.741  -3.721  25.324  0.00  0.00    +0.326 C 
ATOM     12  N   UNL     1       8.790  -3.355  23.994  0.00  0.00    -0.270 N 
ATOM     13  H   UNL     1       9.001  -4.096  23.321  0.00  0.00    +0.156 HD
ATOM     14  O   UNL     1       8.741  -3.034  26.342  0.00  0.00    -0.263 OA
BRANCH  11  15
ATOM     15  C   UNL     1       8.707  -5.236  25.559  0.00  0.00    +0.393 C 
ATOM     16  O   UNL     1       7.942  -5.777  26.333  0.00  0.00    -0.240 OA
BRANCH  15  17
ATOM     17  O   UNL     1       9.648  -5.844  24.807  0.00  0.00    -0.474 OA
ATOM     18  H   UNL     1      10.370  -6.155  25.408  0.00  0.00    +0.296 HD
ENDBRANCH  15  17
ENDBRANCH  11  15
ENDBRANCH   1  12
BRANCH  10  19
ATOM     19  C   UNL     1       6.286  -1.656  23.968  0.00  0.00    +0.339 C 
ATOM     20  O   UNL     1       5.689  -1.099  24.879  0.00  0.00    -0.245 OA
BRANCH  19  21
ATOM     21  O   UNL     1       5.738  -2.699  23.295  0.00  0.00    -0.477 OA
ATOM     22  H   UNL     1       6.119  -2.809  22.407  0.00  0.00    +0.295 HD
ENDBRANCH  19  21
ENDBRANCH  10  19
TORSDOF 5
ENDMDL
MODEL 4
REMARK VINA RESULT:      -5.8      2.987      6.305
REMARK  Name = 
REMARK  5 active torsions:
REMARK  status: ('A' for Active; 'I' for Inactive)
REMARK    1  A    between atoms: O_1  and  C_2
REMARK    2  A    between atoms: C_2  and  C_4
REMARK    3  A    between atoms: N_6  and  C_7
REMARK    4  A    between atoms: C_8  and  C_9
REMARK    5  A    between atoms: C_9  and  O_10
REMARK                            x       y       z     vdW  Elec       q    Type
REMARK                         _______ _______ _______ _____ _____    ______ ____
ROOT
ATOM      1  C   UNL     1       7.083  -4.808  23.931  0.00  0.00    +0.087 A 
ATOM      2  S   UNL     1       6.631  -3.867  22.586  0.00  0.00    -0.076 S 
ATOM      3  C   UNL     1       8.014  -2.910  22.698  0.00  0.00    +0.009 A 
ATOM      4  C   UNL     1       8.232  -1.736  21.791  0.00  0.00    +0.124 C 
ATOM      5  N   UNL     1       9.616  -1.247  21.887  0.00  0.00    -0.311 NA
ATOM      6  H   UNL     1       9.669  -0.339  21.428  0.00  0.00    +0.122 HD
ATOM      7  C   UNL     1      10.032  -1.111  23.294  0.00  0.00    +0.086 C 
ATOM      8  C   UNL     1      10.086  -2.482  24.007  0.00  0.00    +0.052 C 
ATOM      9  C   UNL     1       8.845  -3.291  23.734  0.00  0.00    -0.019 A 
ATOM     10  C   UNL     1       8.336  -4.461  24.427  0.00  0.00    +0.091 A 
ENDROOT
BRANCH   1  12
ATOM     11  C   UNL     1       5.295  -5.734  25.344  0.00  0.00    +0.326 C 
ATOM     12  N   UNL     1       6.250  -5.836  24.352  0.00  0.00    -0.270 N 
ATOM     13  H   UNL     1       6.419  -6.770  23.971  0.00  0.00    +0.156 HD
ATOM     14  O   UNL     1       5.049  -4.820  26.125  0.00  0.00    -0.263 OA
BRANCH  11  15
ATOM     15  C   UNL     1       4.419  -6.984  25.503  0.00  0.00    +0.393 C 
ATOM     16  O   UNL     1       3.961  -7.603  24.565  0.00  0.00    -0.240 OA
BRANCH  15  17
ATOM     17  O   UNL     1       4.232  -7.256  26.811  0.00  0.00    -0.474 OA
ATOM     18  H   UNL     1       5.012  -7.771  27.134  0.00  0.00    +0.296 HD
ENDBRANCH  15  17
ENDBRANCH  11  15
ENDBRANCH   1  12
BRANCH  10  19
ATOM     19  C   UNL     1       8.952  -5.175  25.545  0.00  0.00    +0.339 C 
ATOM     20  O   UNL     1       8.494  -5.162  26.680  0.00  0.00    -0.245 OA
BRANCH  19  21
ATOM     21  O   UNL     1      10.048  -5.909  25.231  0.00  0.00    -0.477 OA
ATOM     22  H   UNL     1       9.929  -6.855  25.424  0.00  0.00    +0.295 HD
ENDBRANCH  19  21
ENDBRANCH  10  19
TORSDOF 5
ENDMDL
MODEL 5
REMARK VINA RESULT:      -5.8      2.683      3.937
REMARK  Name = 
REMARK  5 active torsions:
REMARK  status: ('A' for Active; 'I' for Inactive)
REMARK    1  A    between atoms: O_1  and  C_2
REMARK    2  A    between atoms: C_2  and  C_4
REMARK    3  A    between atoms: N_6  and  C_7
REMARK    4  A    between atoms: C_8  and  C_9
REMARK    5  A    between atoms: C_9  and  O_10
REMARK                            x       y       z     vdW  Elec       q    Type
REMARK                         _______ _______ _______ _____ _____    ______ ____
ROOT
ATOM      1  C   UNL     1       7.970  -0.424  23.471  0.00  0.00    +0.087 A 
ATOM      2  S   UNL     1       6.435  -0.200  24.173  0.00  0.00    -0.076 S 
ATOM      3  C   UNL     1       6.237  -1.851  24.446  0.00  0.00    +0.009 A 
ATOM      4  C   UNL     1       4.965  -2.406  25.012  0.00  0.00    +0.124 C 
ATOM      5  N   UNL     1       5.139  -3.809  25.422  0.00  0.00    -0.311 NA
ATOM      6  H   UNL     1       4.219  -4.208  25.601  0.00  0.00    +0.122 HD
ATOM      7  C   UNL     1       5.816  -4.586  24.369  0.00  0.00    +0.086 C 
ATOM      8  C   UNL     1       7.265  -4.097  24.142  0.00  0.00    +0.052 C 
ATOM      9  C   UNL     1       7.325  -2.595  24.032  0.00  0.00    -0.019 A 
ATOM     10  C   UNL     1       8.388  -1.751  23.517  0.00  0.00    +0.091 A 
ENDROOT
BRANCH   1  12
ATOM     11  C   UNL     1       9.667   1.342  23.697  0.00  0.00    +0.326 C 
ATOM     12  N   UNL     1       8.673   0.680  23.006  0.00  0.00    -0.270 N 
ATOM     13  H   UNL     1       8.368   1.099  22.124  0.00  0.00    +0.156 HD
ATOM     14  O   UNL     1      10.060   1.211  24.853  0.00  0.00    -0.263 OA
BRANCH  11  15
ATOM     15  C   UNL     1      10.374   2.436  22.887  0.00  0.00    +0.393 C 
ATOM     16  O   UNL     1      11.061   3.303  23.389  0.00  0.00    -0.240 OA
BRANCH  15  17
ATOM     17  O   UNL     1      10.098   2.294  21.574  0.00  0.00    -0.474 OA
ATOM     18  H   UNL     1      10.047   1.327  21.372  0.00  0.00    +0.296 HD
ENDBRANCH  15  17
ENDBRANCH  11  15
ENDBRANCH   1  12
BRANCH  10  19
ATOM     19  C   UNL     1       9.699  -2.168  23.023  0.00  0.00    +0.339 C 
ATOM     20  O   UNL     1      10.451  -2.899  23.654  0.00  0.00    -0.245 OA
BRANCH  19  21
ATOM     21  O   UNL     1      10.015  -1.732  21.777  0.00  0.00    -0.477 OA
ATOM     22  H   UNL     1       9.640  -2.297  21.080  0.00  0.00    +0.295 HD
ENDBRANCH  19  21
ENDBRANCH  10  19
TORSDOF 5
ENDMDL
MODEL 6
REMARK VINA RESULT:      -5.7      2.127      2.834
REMARK  Name = 
REMARK  5 active torsions:
REMARK  status: ('A' for Active; 'I' for Inactive)
REMARK    1  A    between atoms: O_1  and  C_2
REMARK    2  A    between atoms: C_2  and  C_4
REMARK    3  A    between atoms: N_6  and  C_7
REMARK    4  A    between atoms: C_8  and  C_9
REMARK    5  A    between atoms: C_9  and  O_10
REMARK                            x       y       z     vdW  Elec       q    Type
REMARK                         _______ _______ _______ _____ _____    ______ ____
ROOT
ATOM      1  C   UNL     1       7.241  -3.408  22.953  0.00  0.00    +0.087 A 
ATOM      2  S   UNL     1       5.683  -3.501  22.273  0.00  0.00    -0.076 S 
ATOM      3  C   UNL     1       5.143  -4.558  23.470  0.00  0.00    +0.009 A 
ATOM      4  C   UNL     1       3.767  -5.151  23.430  0.00  0.00    +0.124 C 
ATOM      5  N   UNL     1       3.435  -5.798  24.709  0.00  0.00    -0.311 NA
ATOM      6  H   UNL     1       2.597  -6.361  24.577  0.00  0.00    +0.122 HD
ATOM      7  C   UNL     1       4.540  -6.659  25.168  0.00  0.00    +0.086 C 
ATOM      8  C   UNL     1       5.805  -5.835  25.500  0.00  0.00    +0.052 C 
ATOM      9  C   UNL     1       6.116  -4.845  24.408  0.00  0.00    -0.019 A 
ATOM     10  C   UNL     1       7.342  -4.112  24.150  0.00  0.00    +0.091 A 
ENDROOT
BRANCH   1  12
ATOM     11  C   UNL     1       8.354  -1.261  22.505  0.00  0.00    +0.326 C 
ATOM     12  N   UNL     1       8.207  -2.623  22.338  0.00  0.00    -0.270 N 
ATOM     13  H   UNL     1       8.797  -3.066  21.629  0.00  0.00    +0.156 HD
ATOM     14  O   UNL     1       7.647  -0.447  23.092  0.00  0.00    -0.263 OA
BRANCH  11  15
ATOM     15  C   UNL     1       9.594  -0.674  21.818  0.00  0.00    +0.393 C 
ATOM     16  O   UNL     1       9.641   0.456  21.375  0.00  0.00    -0.240 OA
BRANCH  15  17
ATOM     17  O   UNL     1      10.578  -1.595  21.770  0.00  0.00    -0.474 OA
ATOM     18  H   UNL     1      11.337  -1.265  22.312  0.00  0.00    +0.296 HD
ENDBRANCH  15  17
ENDBRANCH  11  15
ENDBRANCH   1  12
BRANCH  10  19
ATOM     19  C   UNL     1       8.573  -4.125  24.939  0.00  0.00    +0.339 C 
ATOM     20  O   UNL     1       9.653  -4.485  24.489  0.00  0.00    -0.245 OA
BRANCH  19  21
ATOM     21  O   UNL     1       8.455  -3.654  26.206  0.00  0.00    -0.477 OA
ATOM     22  H   UNL     1       7.577  -3.274  26.381  0.00  0.00    +0.295 HD
ENDBRANCH  19  21
ENDBRANCH  10  19
TORSDOF 5
ENDMDL
MODEL 7
REMARK VINA RESULT:      -5.7      3.264      6.587
REMARK  Name = 
REMARK  5 active torsions:
REMARK  status: ('A' for Active; 'I' for Inactive)
REMARK    1  A    between atoms: O_1  and  C_2
REMARK    2  A    between atoms: C_2  and  C_4
REMARK    3  A    between atoms: N_6  and  C_7
REMARK    4  A    between atoms: C_8  and  C_9
REMARK    5  A    between atoms: C_9  and  O_10
REMARK                            x       y       z     vdW  Elec       q    Type
REMARK                         _______ _______ _______ _____ _____    ______ ____
ROOT
ATOM      1  C   UNL     1       8.695  -1.612  25.723  0.00  0.00    +0.087 A 
ATOM      2  S   UNL     1       7.942  -0.225  26.361  0.00  0.00    -0.076 S 
ATOM      3  C   UNL     1       8.562   0.762  25.143  0.00  0.00    +0.009 A 
ATOM      4  C   UNL     1       8.336   2.243  25.142  0.00  0.00    +0.124 C 
ATOM      5  N   UNL     1       8.719   2.834  23.850  0.00  0.00    -0.311 NA
ATOM      6  H   UNL     1       8.751   3.846  23.956  0.00  0.00    +0.122 HD
ATOM      7  C   UNL     1      10.039   2.342  23.415  0.00  0.00    +0.086 C 
ATOM      8  C   UNL     1      10.013   0.825  23.123  0.00  0.00    +0.052 C 
ATOM      9  C   UNL     1       9.329   0.064  24.229  0.00  0.00    -0.019 A 
ATOM     10  C   UNL     1       9.355  -1.356  24.525  0.00  0.00    +0.091 A 
ENDROOT
BRANCH   1  12
ATOM     11  C   UNL     1       7.427  -3.647  26.273  0.00  0.00    +0.326 C 
ATOM     12  N   UNL     1       8.535  -2.831  26.370  0.00  0.00    -0.270 N 
ATOM     13  H   UNL     1       9.250  -3.104  27.049  0.00  0.00    +0.156 HD
ATOM     14  O   UNL     1       6.339  -3.458  25.735  0.00  0.00    -0.263 OA
BRANCH  11  15
ATOM     15  C   UNL     1       7.581  -5.002  26.977  0.00  0.00    +0.393 C 
ATOM     16  O   UNL     1       7.003  -5.289  28.006  0.00  0.00    -0.240 OA
BRANCH  15  17
ATOM     17  O   UNL     1       8.449  -5.782  26.301  0.00  0.00    -0.474 OA
ATOM     18  H   UNL     1       8.813  -5.256  25.546  0.00  0.00    +0.296 HD
ENDBRANCH  15  17
ENDBRANCH  11  15
ENDBRANCH   1  12
BRANCH  10  19
ATOM     19  C   UNL     1      10.025  -2.413  23.769  0.00  0.00    +0.339 C 
ATOM     20  O   UNL     1      10.119  -3.566  24.170  0.00  0.00    -0.245 OA
BRANCH  19  21
ATOM     21  O   UNL     1      10.496  -2.047  22.550  0.00  0.00    -0.477 OA
ATOM     22  H   UNL     1      10.974  -1.200  22.576  0.00  0.00    +0.295 HD
ENDBRANCH  19  21
ENDBRANCH  10  19
TORSDOF 5
ENDMDL
MODEL 8
REMARK VINA RESULT:      -5.7      3.380      4.787
REMARK  Name = 
REMARK  5 active torsions:
REMARK  status: ('A' for Active; 'I' for Inactive)
REMARK    1  A    between atoms: O_1  and  C_2
REMARK    2  A    between atoms: C_2  and  C_4
REMARK    3  A    between atoms: N_6  and  C_7
REMARK    4  A    between atoms: C_8  and  C_9
REMARK    5  A    between atoms: C_9  and  O_10
REMARK                            x       y       z     vdW  Elec       q    Type
REMARK                         _______ _______ _______ _____ _____    ______ ____
ROOT
ATOM      1  C   UNL     1       8.686  -1.149  23.540  0.00  0.00    +0.087 A 
ATOM      2  S   UNL     1       8.185  -2.480  22.605  0.00  0.00    -0.076 S 
ATOM      3  C   UNL     1       8.119  -3.494  23.950  0.00  0.00    +0.009 A 
ATOM      4  C   UNL     1       7.797  -4.952  23.818  0.00  0.00    +0.124 C 
ATOM      5  N   UNL     1       7.518  -5.550  25.134  0.00  0.00    -0.311 NA
ATOM      6  H   UNL     1       7.512  -6.563  25.031  0.00  0.00    +0.122 HD
ATOM      7  C   UNL     1       8.543  -5.161  26.118  0.00  0.00    +0.086 C 
ATOM      8  C   UNL     1       8.513  -3.642  26.402  0.00  0.00    +0.052 C 
ATOM      9  C   UNL     1       8.455  -2.847  25.123  0.00  0.00    -0.019 A 
ATOM     10  C   UNL     1       8.724  -1.438  24.901  0.00  0.00    +0.091 A 
ENDROOT
BRANCH   1  12
ATOM     11  C   UNL     1       7.966   0.988  22.557  0.00  0.00    +0.326 C 
ATOM     12  N   UNL     1       8.930   0.068  22.916  0.00  0.00    -0.270 N 
ATOM     13  H   UNL     1       9.886   0.260  22.607  0.00  0.00    +0.156 HD
ATOM     14  O   UNL     1       6.740   0.912  22.581  0.00  0.00    -0.263 OA
BRANCH  11  15
ATOM     15  C   UNL     1       8.528   2.308  22.016  0.00  0.00    +0.393 C 
ATOM     16  O   UNL     1       7.928   3.363  22.072  0.00  0.00    -0.240 OA
BRANCH  15  17
ATOM     17  O   UNL     1       9.744   2.107  21.468  0.00  0.00    -0.474 OA
ATOM     18  H   UNL     1       9.640   2.090  20.484  0.00  0.00    +0.296 HD
ENDBRANCH  15  17
ENDBRANCH  11  15
ENDBRANCH   1  12
BRANCH  10  19
ATOM     19  C   UNL     1       9.073  -0.427  25.898  0.00  0.00    +0.339 C 
ATOM     20  O   UNL     1       8.471  -0.295  26.955  0.00  0.00    -0.245 OA
BRANCH  19  21
ATOM     21  O   UNL     1      10.158   0.332  25.600  0.00  0.00    -0.477 OA
ATOM     22  H   UNL     1      10.142   0.658  24.684  0.00  0.00    +0.295 HD
ENDBRANCH  19  21
ENDBRANCH  10  19
TORSDOF 5
ENDMDL
MODEL 9
REMARK VINA RESULT:      -5.6      3.079      6.728
REMARK  Name = 
REMARK  5 active torsions:
REMARK  status: ('A' for Active; 'I' for Inactive)
REMARK    1  A    between atoms: O_1  and  C_2
REMARK    2  A    between atoms: C_2  and  C_4
REMARK    3  A    between atoms: N_6  and  C_7
REMARK    4  A    between atoms: C_8  and  C_9
REMARK    5  A    between atoms: C_9  and  O_10
REMARK                            x       y       z     vdW  Elec       q    Type
REMARK                         _______ _______ _______ _____ _____    ______ ____
ROOT
ATOM      1  C   UNL     1       8.568  -1.016  24.222  0.00  0.00    +0.087 A 
ATOM      2  S   UNL     1       7.811   0.048  25.313  0.00  0.00    -0.076 S 
ATOM      3  C   UNL     1       8.494   1.404  24.579  0.00  0.00    +0.009 A 
ATOM      4  C   UNL     1       8.290   2.781  25.132  0.00  0.00    +0.124 C 
ATOM      5  N   UNL     1       8.734   3.805  24.173  0.00  0.00    -0.311 NA
ATOM      6  H   UNL     1       8.777   4.701  24.654  0.00  0.00    +0.122 HD
ATOM      7  C   UNL     1      10.063   3.476  23.627  0.00  0.00    +0.086 C 
ATOM      8  C   UNL     1      10.027   2.183  22.781  0.00  0.00    +0.052 C 
ATOM      9  C   UNL     1       9.287   1.081  23.495  0.00  0.00    -0.019 A 
ATOM     10  C   UNL     1       9.281  -0.346  23.231  0.00  0.00    +0.091 A 
ENDROOT
BRANCH   1  12
ATOM     11  C   UNL     1       7.583  -3.159  23.521  0.00  0.00    +0.326 C 
ATOM     12  N   UNL     1       8.365  -2.384  24.353  0.00  0.00    -0.270 N 
ATOM     13  H   UNL     1       8.743  -2.841  25.187  0.00  0.00    +0.156 HD
ATOM     14  O   UNL     1       6.830  -2.839  22.606  0.00  0.00    -0.263 OA
BRANCH  11  15
ATOM     15  C   UNL     1       7.654  -4.663  23.813  0.00  0.00    +0.393 C 
ATOM     16  O   UNL     1       6.703  -5.411  23.704  0.00  0.00    -0.240 OA
BRANCH  15  17
ATOM     17  O   UNL     1       8.896  -5.000  24.218  0.00  0.00    -0.474 OA
ATOM     18  H   UNL     1       9.374  -4.172  24.471  0.00  0.00    +0.296 HD
ENDBRANCH  15  17
ENDBRANCH  11  15
ENDBRANCH   1  12
BRANCH  10  19
ATOM     19  C   UNL     1       9.966  -1.058  22.153  0.00  0.00    +0.339 C 
ATOM     20  O   UNL     1      10.826  -1.906  22.352  0.00  0.00    -0.245 OA
BRANCH  19  21
ATOM     21  O   UNL     1       9.544  -0.758  20.899  0.00  0.00    -0.477 OA
ATOM     22  H   UNL     1      10.278  -0.699  20.264  0.00  0.00    +0.295 HD
ENDBRANCH  19  21
ENDBRANCH  10  19
TORSDOF 5
ENDMDL
