MODEL 1
REMARK VINA RESULT:      -7.5      0.000      0.000
REMARK  Name = 
REMARK  8 active torsions:
REMARK  status: ('A' for Active; 'I' for Inactive)
REMARK    1  A    between atoms: C_1  and  C_2
REMARK    2  A    between atoms: C_2  and  C_3
REMARK    3  A    between atoms: C_6  and  C_7
REMARK    4  A    between atoms: C_6  and  C_8
REMARK    5  A    between atoms: C_11  and  N_12
REMARK    6  A    between atoms: C_13  and  C_15
REMARK    7  A    between atoms: C_18  and  C_21
REMARK    8  A    between atoms: C_21  and  O_22
REMARK                            x       y       z     vdW  Elec       q    Type
REMARK                         _______ _______ _______ _____ _____    ______ ____
ROOT
ATOM      1  C   UNL     1       3.802  -5.392  23.177  0.00  0.00    +0.020 C 
ATOM      2  C   UNL     1       5.282  -5.501  23.596  0.00  0.00    +0.008 C 
ATOM      3  C   UNL     1       5.900  -4.100  23.716  0.00  0.00    -0.034 A 
ATOM      4  C   UNL     1       6.470  -3.646  24.919  0.00  0.00    -0.032 A 
ATOM      5  C   UNL     1       7.040  -2.354  24.957  0.00  0.00    +0.028 A 
ATOM      6  C   UNL     1       7.071  -1.510  23.853  0.00  0.00    +0.034 A 
ATOM      7  C   UNL     1       6.500  -1.961  22.665  0.00  0.00    +0.023 A 
ATOM      8  C   UNL     1       6.506  -4.497  26.195  0.00  0.00    +0.008 C 
ATOM      9  C   UNL     1       7.972  -4.740  26.615  0.00  0.00    +0.020 C 
ATOM     10  C   UNL     1       5.747  -3.768  27.326  0.00  0.00    +0.020 C 
ATOM     11  C   UNL     1       5.858  -5.852  26.030  0.00  0.00    -0.019 C 
ATOM     12  C   UNL     1       5.921  -3.235  22.599  0.00  0.00    +0.006 A 
ATOM     13  C   UNL     1       5.317  -6.291  24.887  0.00  0.00    -0.019 C 
ATOM     14  C   UNL     1       6.069  -6.322  22.553  0.00  0.00    +0.020 C 
ENDROOT
BRANCH   6  15
ATOM     15  N   UNL     1       7.663  -0.226  23.876  0.00  0.00    -0.281 N 
ATOM     16  H   UNL     1       7.033   0.546  23.710  0.00  0.00    +0.155 HD
ATOM     17  C   UNL     1       9.015   0.049  24.020  0.00  0.00    +0.248 C 
ATOM     18  O   UNL     1       9.921  -0.764  24.161  0.00  0.00    -0.270 OA
BRANCH  17  19
ATOM     19  C   UNL     1       9.406   1.484  23.963  0.00  0.00    +0.037 A 
ATOM     20  C   UNL     1       8.480   2.427  24.434  0.00  0.00    +0.014 A 
ATOM     21  C   UNL     1       8.769   3.789  24.387  0.00  0.00    +0.016 A 
ATOM     22  C   UNL     1       9.992   4.224  23.869  0.00  0.00    +0.059 A 
ATOM     23  C   UNL     1      10.908   3.289  23.360  0.00  0.00    +0.016 A 
ATOM     24  C   UNL     1      10.616   1.920  23.409  0.00  0.00    +0.014 A 
BRANCH  22  25
ATOM     25  C   UNL     1      10.249   5.687  23.830  0.00  0.00    +0.337 C 
ATOM     26  O   UNL     1      11.138   6.218  24.472  0.00  0.00    -0.245 OA
BRANCH  25  27
ATOM     27  O   UNL     1       9.443   6.358  22.985  0.00  0.00    -0.477 OA
ATOM     28  H   UNL     1       8.625   6.712  23.380  0.00  0.00    +0.295 HD
ENDBRANCH  25  27
ENDBRANCH  22  25
ENDBRANCH  17  19
ENDBRANCH   6  15
TORSDOF 4
ENDMDL
MODEL 2
REMARK VINA RESULT:      -7.1      1.426      2.967
REMARK  Name = 
REMARK  8 active torsions:
REMARK  status: ('A' for Active; 'I' for Inactive)
REMARK    1  A    between atoms: C_1  and  C_2
REMARK    2  A    between atoms: C_2  and  C_3
REMARK    3  A    between atoms: C_6  and  C_7
REMARK    4  A    between atoms: C_6  and  C_8
REMARK    5  A    between atoms: C_11  and  N_12
REMARK    6  A    between atoms: C_13  and  C_15
REMARK    7  A    between atoms: C_18  and  C_21
REMARK    8  A    between atoms: C_21  and  O_22
REMARK                            x       y       z     vdW  Elec       q    Type
REMARK                         _______ _______ _______ _____ _____    ______ ____
ROOT
ATOM      1  C   UNL     1       6.775  -5.702  27.065  0.00  0.00    +0.020 C 
ATOM      2  C   UNL     1       5.876  -4.825  26.171  0.00  0.00    +0.008 C 
ATOM      3  C   UNL     1       6.635  -3.564  25.736  0.00  0.00    -0.034 A 
ATOM      4  C   UNL     1       6.840  -3.258  24.378  0.00  0.00    -0.032 A 
ATOM      5  C   UNL     1       7.530  -2.070  24.045  0.00  0.00    +0.028 A 
ATOM      6  C   UNL     1       8.010  -1.183  25.000  0.00  0.00    +0.034 A 
ATOM      7  C   UNL     1       7.811  -1.493  26.344  0.00  0.00    +0.023 A 
ATOM      8  C   UNL     1       6.341  -4.155  23.239  0.00  0.00    +0.008 C 
ATOM      9  C   UNL     1       5.344  -3.371  22.359  0.00  0.00    +0.020 C 
ATOM     10  C   UNL     1       7.539  -4.626  22.386  0.00  0.00    +0.020 C 
ATOM     11  C   UNL     1       5.628  -5.397  23.723  0.00  0.00    -0.019 C 
ATOM     12  C   UNL     1       7.136  -2.666  26.705  0.00  0.00    +0.006 A 
ATOM     13  C   UNL     1       5.427  -5.692  25.013  0.00  0.00    -0.019 C 
ATOM     14  C   UNL     1       4.601  -4.418  26.939  0.00  0.00    +0.020 C 
ENDROOT
BRANCH   6  15
ATOM     15  N   UNL     1       8.678   0.021  24.674  0.00  0.00    -0.281 N 
ATOM     16  H   UNL     1       9.684  -0.044  24.612  0.00  0.00    +0.155 HD
ATOM     17  C   UNL     1       8.090   1.267  24.520  0.00  0.00    +0.248 C 
ATOM     18  O   UNL     1       6.899   1.538  24.629  0.00  0.00    -0.270 OA
BRANCH  17  19
ATOM     19  C   UNL     1       9.009   2.399  24.224  0.00  0.00    +0.037 A 
ATOM     20  C   UNL     1      10.273   2.087  23.700  0.00  0.00    +0.014 A 
ATOM     21  C   UNL     1      11.194   3.095  23.424  0.00  0.00    +0.016 A 
ATOM     22  C   UNL     1      10.860   4.430  23.666  0.00  0.00    +0.059 A 
ATOM     23  C   UNL     1       9.612   4.747  24.226  0.00  0.00    +0.016 A 
ATOM     24  C   UNL     1       8.686   3.733  24.504  0.00  0.00    +0.014 A 
BRANCH  22  25
ATOM     25  C   UNL     1      11.880   5.467  23.365  0.00  0.00    +0.337 C 
ATOM     26  O   UNL     1      12.272   6.266  24.196  0.00  0.00    -0.245 OA
BRANCH  25  27
ATOM     27  O   UNL     1      12.363   5.407  22.109  0.00  0.00    -0.477 OA
ATOM     28  H   UNL     1      11.699   5.251  21.413  0.00  0.00    +0.295 HD
ENDBRANCH  25  27
ENDBRANCH  22  25
ENDBRANCH  17  19
ENDBRANCH   6  15
TORSDOF 4
ENDMDL
MODEL 3
REMARK VINA RESULT:      -7.1      3.817      9.362
REMARK  Name = 
REMARK  8 active torsions:
REMARK  status: ('A' for Active; 'I' for Inactive)
REMARK    1  A    between atoms: C_1  and  C_2
REMARK    2  A    between atoms: C_2  and  C_3
REMARK    3  A    between atoms: C_6  and  C_7
REMARK    4  A    between atoms: C_6  and  C_8
REMARK    5  A    between atoms: C_11  and  N_12
REMARK    6  A    between atoms: C_13  and  C_15
REMARK    7  A    between atoms: C_18  and  C_21
REMARK    8  A    between atoms: C_21  and  O_22
REMARK                            x       y       z     vdW  Elec       q    Type
REMARK                         _______ _______ _______ _____ _____    ______ ____
ROOT
ATOM      1  C   UNL     1      11.212   0.689  24.485  0.00  0.00    +0.020 C 
ATOM      2  C   UNL     1       9.881   1.014  23.778  0.00  0.00    +0.008 C 
ATOM      3  C   UNL     1       8.886  -0.138  23.973  0.00  0.00    -0.034 A 
ATOM      4  C   UNL     1       7.635   0.063  24.585  0.00  0.00    -0.032 A 
ATOM      5  C   UNL     1       6.756  -1.036  24.717  0.00  0.00    +0.028 A 
ATOM      6  C   UNL     1       7.069  -2.310  24.259  0.00  0.00    +0.034 A 
ATOM      7  C   UNL     1       8.311  -2.507  23.660  0.00  0.00    +0.023 A 
ATOM      8  C   UNL     1       7.178   1.430  25.112  0.00  0.00    +0.008 C 
ATOM      9  C   UNL     1       5.900   1.872  24.367  0.00  0.00    +0.020 C 
ATOM     10  C   UNL     1       6.896   1.333  26.628  0.00  0.00    +0.020 C 
ATOM     11  C   UNL     1       8.207   2.520  24.923  0.00  0.00    -0.019 C 
ATOM     12  C   UNL     1       9.205  -1.438  23.522  0.00  0.00    +0.006 A 
ATOM     13  C   UNL     1       9.396   2.335  24.339  0.00  0.00    -0.019 C 
ATOM     14  C   UNL     1      10.122   1.235  22.271  0.00  0.00    +0.020 C 
ENDROOT
BRANCH   6  15
ATOM     15  N   UNL     1       6.185  -3.409  24.363  0.00  0.00    -0.281 N 
ATOM     16  H   UNL     1       6.246  -3.937  25.223  0.00  0.00    +0.155 HD
ATOM     17  C   UNL     1       5.322  -3.861  23.375  0.00  0.00    +0.248 C 
ATOM     18  O   UNL     1       5.171  -3.386  22.256  0.00  0.00    -0.270 OA
BRANCH  17  19
ATOM     19  C   UNL     1       4.521  -5.073  23.702  0.00  0.00    +0.037 A 
ATOM     20  C   UNL     1       3.254  -5.190  23.109  0.00  0.00    +0.014 A 
ATOM     21  C   UNL     1       2.440  -6.285  23.390  0.00  0.00    +0.016 A 
ATOM     22  C   UNL     1       2.886  -7.279  24.266  0.00  0.00    +0.059 A 
ATOM     23  C   UNL     1       4.136  -7.148  24.893  0.00  0.00    +0.016 A 
ATOM     24  C   UNL     1       4.954  -6.047  24.609  0.00  0.00    +0.014 A 
BRANCH  22  25
ATOM     25  C   UNL     1       1.976  -8.421  24.542  0.00  0.00    +0.337 C 
ATOM     26  O   UNL     1       0.842  -8.480  24.104  0.00  0.00    -0.245 OA
BRANCH  25  27
ATOM     27  O   UNL     1       2.540  -9.400  25.276  0.00  0.00    -0.477 OA
ATOM     28  H   UNL     1       3.300  -9.128  25.822  0.00  0.00    +0.295 HD
ENDBRANCH  25  27
ENDBRANCH  22  25
ENDBRANCH  17  19
ENDBRANCH   6  15
TORSDOF 4
ENDMDL
MODEL 4
REMARK VINA RESULT:      -7.1      1.286      2.294
REMARK  Name = 
REMARK  8 active torsions:
REMARK  status: ('A' for Active; 'I' for Inactive)
REMARK    1  A    between atoms: C_1  and  C_2
REMARK    2  A    between atoms: C_2  and  C_3
REMARK    3  A    between atoms: C_6  and  C_7
REMARK    4  A    between atoms: C_6  and  C_8
REMARK    5  A    between atoms: C_11  and  N_12
REMARK    6  A    between atoms: C_13  and  C_15
REMARK    7  A    between atoms: C_18  and  C_21
REMARK    8  A    between atoms: C_21  and  O_22
REMARK                            x       y       z     vdW  Elec       q    Type
REMARK                         _______ _______ _______ _____ _____    ______ ____
ROOT
ATOM      1  C   UNL     1       4.171  -5.320  26.504  0.00  0.00    +0.020 C 
ATOM      2  C   UNL     1       4.101  -4.849  25.037  0.00  0.00    +0.008 C 
ATOM      3  C   UNL     1       4.963  -3.593  24.846  0.00  0.00    -0.034 A 
ATOM      4  C   UNL     1       6.023  -3.559  23.921  0.00  0.00    -0.032 A 
ATOM      5  C   UNL     1       6.764  -2.365  23.779  0.00  0.00    +0.028 A 
ATOM      6  C   UNL     1       6.488  -1.214  24.507  0.00  0.00    +0.034 A 
ATOM      7  C   UNL     1       5.442  -1.253  25.426  0.00  0.00    +0.023 A 
ATOM      8  C   UNL     1       6.407  -4.764  23.052  0.00  0.00    +0.008 C 
ATOM      9  C   UNL     1       6.255  -4.397  21.560  0.00  0.00    +0.020 C 
ATOM     10  C   UNL     1       7.867  -5.172  23.349  0.00  0.00    +0.020 C 
ATOM     11  C   UNL     1       5.548  -5.981  23.304  0.00  0.00    -0.019 C 
ATOM     12  C   UNL     1       4.694  -2.425  25.594  0.00  0.00    +0.006 A 
ATOM     13  C   UNL     1       4.536  -6.019  24.179  0.00  0.00    -0.019 C 
ATOM     14  C   UNL     1       2.642  -4.535  24.651  0.00  0.00    +0.020 C 
ENDROOT
BRANCH   6  15
ATOM     15  N   UNL     1       7.208  -0.006  24.351  0.00  0.00    -0.281 N 
ATOM     16  H   UNL     1       6.782   0.677  23.740  0.00  0.00    +0.155 HD
ATOM     17  C   UNL     1       8.456   0.278  24.885  0.00  0.00    +0.248 C 
ATOM     18  O   UNL     1       9.141  -0.458  25.586  0.00  0.00    -0.270 OA
BRANCH  17  19
ATOM     19  C   UNL     1       9.036   1.604  24.540  0.00  0.00    +0.037 A 
ATOM     20  C   UNL     1       8.342   2.746  24.970  0.00  0.00    +0.014 A 
ATOM     21  C   UNL     1       8.814   4.020  24.660  0.00  0.00    +0.016 A 
ATOM     22  C   UNL     1       9.989   4.166  23.917  0.00  0.00    +0.059 A 
ATOM     23  C   UNL     1      10.666   3.029  23.450  0.00  0.00    +0.016 A 
ATOM     24  C   UNL     1      10.192   1.748  23.762  0.00  0.00    +0.014 A 
BRANCH  22  25
ATOM     25  C   UNL     1      10.444   5.545  23.603  0.00  0.00    +0.337 C 
ATOM     26  O   UNL     1      11.555   5.953  23.890  0.00  0.00    -0.245 OA
BRANCH  25  27
ATOM     27  O   UNL     1       9.535   6.278  22.932  0.00  0.00    -0.477 OA
ATOM     28  H   UNL     1       8.778   5.780  22.574  0.00  0.00    +0.295 HD
ENDBRANCH  25  27
ENDBRANCH  22  25
ENDBRANCH  17  19
ENDBRANCH   6  15
TORSDOF 4
ENDMDL
MODEL 5
REMARK VINA RESULT:      -7.0      3.112      9.154
REMARK  Name = 
REMARK  8 active torsions:
REMARK  status: ('A' for Active; 'I' for Inactive)
REMARK    1  A    between atoms: C_1  and  C_2
REMARK    2  A    between atoms: C_2  and  C_3
REMARK    3  A    between atoms: C_6  and  C_7
REMARK    4  A    between atoms: C_6  and  C_8
REMARK    5  A    between atoms: C_11  and  N_12
REMARK    6  A    between atoms: C_13  and  C_15
REMARK    7  A    between atoms: C_18  and  C_21
REMARK    8  A    between atoms: C_21  and  O_22
REMARK                            x       y       z     vdW  Elec       q    Type
REMARK                         _______ _______ _______ _____ _____    ______ ____
ROOT
ATOM      1  C   UNL     1       7.554   4.831  23.188  0.00  0.00    +0.020 C 
ATOM      2  C   UNL     1       8.359   3.963  24.176  0.00  0.00    +0.008 C 
ATOM      3  C   UNL     1       7.774   2.545  24.229  0.00  0.00    -0.034 A 
ATOM      4  C   UNL     1       8.552   1.415  23.917  0.00  0.00    -0.032 A 
ATOM      5  C   UNL     1       7.958   0.135  24.004  0.00  0.00    +0.028 A 
ATOM      6  C   UNL     1       6.639  -0.060  24.395  0.00  0.00    +0.034 A 
ATOM      7  C   UNL     1       5.871   1.063  24.697  0.00  0.00    +0.023 A 
ATOM      8  C   UNL     1      10.022   1.509  23.490  0.00  0.00    +0.008 C 
ATOM      9  C   UNL     1      10.906   0.748  24.502  0.00  0.00    +0.020 C 
ATOM     10  C   UNL     1      10.193   0.901  22.080  0.00  0.00    +0.020 C 
ATOM     11  C   UNL     1      10.537   2.928  23.424  0.00  0.00    -0.019 C 
ATOM     12  C   UNL     1       6.430   2.344  24.612  0.00  0.00    +0.006 A 
ATOM     13  C   UNL     1       9.804   4.007  23.724  0.00  0.00    -0.019 C 
ATOM     14  C   UNL     1       8.318   4.589  25.585  0.00  0.00    +0.020 C 
ENDROOT
BRANCH   6  15
ATOM     15  N   UNL     1       6.046  -1.338  24.511  0.00  0.00    -0.281 N 
ATOM     16  H   UNL     1       5.665  -1.559  25.421  0.00  0.00    +0.155 HD
ATOM     17  C   UNL     1       6.017  -2.319  23.531  0.00  0.00    +0.248 C 
ATOM     18  O   UNL     1       6.488  -2.246  22.402  0.00  0.00    -0.270 OA
BRANCH  17  19
ATOM     19  C   UNL     1       5.375  -3.609  23.906  0.00  0.00    +0.037 A 
ATOM     20  C   UNL     1       5.509  -4.035  25.237  0.00  0.00    +0.014 A 
ATOM     21  C   UNL     1       4.956  -5.245  25.652  0.00  0.00    +0.016 A 
ATOM     22  C   UNL     1       4.259  -6.042  24.739  0.00  0.00    +0.059 A 
ATOM     23  C   UNL     1       4.155  -5.640  23.398  0.00  0.00    +0.016 A 
ATOM     24  C   UNL     1       4.711  -4.424  22.982  0.00  0.00    +0.014 A 
BRANCH  22  25
ATOM     25  C   UNL     1       3.698  -7.328  25.227  0.00  0.00    +0.337 C 
ATOM     26  O   UNL     1       3.192  -8.150  24.485  0.00  0.00    -0.245 OA
BRANCH  25  27
ATOM     27  O   UNL     1       3.845  -7.517  26.553  0.00  0.00    -0.477 OA
ATOM     28  H   UNL     1       4.423  -6.876  27.005  0.00  0.00    +0.295 HD
ENDBRANCH  25  27
ENDBRANCH  22  25
ENDBRANCH  17  19
ENDBRANCH   6  15
TORSDOF 4
ENDMDL
MODEL 6
REMARK VINA RESULT:      -6.3      3.663      9.217
REMARK  Name = 
REMARK  8 active torsions:
REMARK  status: ('A' for Active; 'I' for Inactive)
REMARK    1  A    between atoms: C_1  and  C_2
REMARK    2  A    between atoms: C_2  and  C_3
REMARK    3  A    between atoms: C_6  and  C_7
REMARK    4  A    between atoms: C_6  and  C_8
REMARK    5  A    between atoms: C_11  and  N_12
REMARK    6  A    between atoms: C_13  and  C_15
REMARK    7  A    between atoms: C_18  and  C_21
REMARK    8  A    between atoms: C_21  and  O_22
REMARK                            x       y       z     vdW  Elec       q    Type
REMARK                         _______ _______ _______ _____ _____    ______ ____
ROOT
ATOM      1  C   UNL     1       7.330   4.579  23.358  0.00  0.00    +0.020 C 
ATOM      2  C   UNL     1       8.489   4.018  24.207  0.00  0.00    +0.008 C 
ATOM      3  C   UNL     1       8.110   2.641  24.771  0.00  0.00    -0.034 A 
ATOM      4  C   UNL     1       8.877   1.495  24.496  0.00  0.00    -0.032 A 
ATOM      5  C   UNL     1       8.485   0.261  25.063  0.00  0.00    +0.028 A 
ATOM      6  C   UNL     1       7.377   0.130  25.891  0.00  0.00    +0.034 A 
ATOM      7  C   UNL     1       6.616   1.266  26.156  0.00  0.00    +0.023 A 
ATOM      8  C   UNL     1      10.129   1.525  23.609  0.00  0.00    +0.008 C 
ATOM      9  C   UNL     1      11.357   1.076  24.429  0.00  0.00    +0.020 C 
ATOM     10  C   UNL     1       9.930   0.585  22.400  0.00  0.00    +0.020 C 
ATOM     11  C   UNL     1      10.438   2.897  23.055  0.00  0.00    -0.019 C 
ATOM     12  C   UNL     1       6.977   2.502  25.602  0.00  0.00    +0.006 A 
ATOM     13  C   UNL     1       9.714   3.992  23.317  0.00  0.00    -0.019 C 
ATOM     14  C   UNL     1       8.808   4.980  25.370  0.00  0.00    +0.020 C 
ENDROOT
BRANCH   6  15
ATOM     15  N   UNL     1       6.994  -1.096  26.484  0.00  0.00    -0.281 N 
ATOM     16  H   UNL     1       7.627  -1.455  27.185  0.00  0.00    +0.155 HD
ATOM     17  C   UNL     1       5.895  -1.866  26.134  0.00  0.00    +0.248 C 
ATOM     18  O   UNL     1       5.068  -1.617  25.265  0.00  0.00    -0.270 OA
BRANCH  17  19
ATOM     19  C   UNL     1       5.725  -3.148  26.871  0.00  0.00    +0.037 A 
ATOM     20  C   UNL     1       6.710  -4.132  26.694  0.00  0.00    +0.014 A 
ATOM     21  C   UNL     1       6.601  -5.366  27.333  0.00  0.00    +0.016 A 
ATOM     22  C   UNL     1       5.506  -5.627  28.161  0.00  0.00    +0.059 A 
ATOM     23  C   UNL     1       4.498  -4.662  28.312  0.00  0.00    +0.016 A 
ATOM     24  C   UNL     1       4.608  -3.423  27.670  0.00  0.00    +0.014 A 
BRANCH  22  25
ATOM     25  C   UNL     1       5.431  -6.961  28.811  0.00  0.00    +0.337 C 
ATOM     26  O   UNL     1       6.396  -7.504  29.317  0.00  0.00    -0.245 OA
BRANCH  25  27
ATOM     27  O   UNL     1       4.190  -7.487  28.831  0.00  0.00    -0.477 OA
ATOM     28  H   UNL     1       3.871  -7.772  29.706  0.00  0.00    +0.295 HD
ENDBRANCH  25  27
ENDBRANCH  22  25
ENDBRANCH  17  19
ENDBRANCH   6  15
TORSDOF 4
ENDMDL
MODEL 7
REMARK VINA RESULT:      -6.3      2.846      9.036
REMARK  Name = 
REMARK  8 active torsions:
REMARK  status: ('A' for Active; 'I' for Inactive)
REMARK    1  A    between atoms: C_1  and  C_2
REMARK    2  A    between atoms: C_2  and  C_3
REMARK    3  A    between atoms: C_6  and  C_7
REMARK    4  A    between atoms: C_6  and  C_8
REMARK    5  A    between atoms: C_11  and  N_12
REMARK    6  A    between atoms: C_13  and  C_15
REMARK    7  A    between atoms: C_18  and  C_21
REMARK    8  A    between atoms: C_21  and  O_22
REMARK                            x       y       z     vdW  Elec       q    Type
REMARK                         _______ _______ _______ _____ _____    ______ ____
ROOT
ATOM      1  C   UNL     1      10.689   5.965  25.072  0.00  0.00    +0.020 C 
ATOM      2  C   UNL     1       9.206   5.872  24.659  0.00  0.00    +0.008 C 
ATOM      3  C   UNL     1       8.833   4.413  24.359  0.00  0.00    -0.034 A 
ATOM      4  C   UNL     1       7.805   3.756  25.058  0.00  0.00    -0.032 A 
ATOM      5  C   UNL     1       7.498   2.418  24.718  0.00  0.00    +0.028 A 
ATOM      6  C   UNL     1       8.163   1.723  23.715  0.00  0.00    +0.034 A 
ATOM      7  C   UNL     1       9.185   2.376  23.030  0.00  0.00    +0.023 A 
ATOM      8  C   UNL     1       6.994   4.429  26.172  0.00  0.00    +0.008 C 
ATOM      9  C   UNL     1       5.502   4.470  25.776  0.00  0.00    +0.020 C 
ATOM     10  C   UNL     1       7.168   3.642  27.489  0.00  0.00    +0.020 C 
ATOM     11  C   UNL     1       7.422   5.852  26.448  0.00  0.00    -0.019 C 
ATOM     12  C   UNL     1       9.516   3.699  23.349  0.00  0.00    +0.006 A 
ATOM     13  C   UNL     1       8.397   6.484  25.785  0.00  0.00    -0.019 C 
ATOM     14  C   UNL     1       8.949   6.737  23.408  0.00  0.00    +0.020 C 
ENDROOT
BRANCH   6  15
ATOM     15  N   UNL     1       7.844   0.394  23.351  0.00  0.00    -0.281 N 
ATOM     16  H   UNL     1       7.295   0.295  22.509  0.00  0.00    +0.155 HD
ATOM     17  C   UNL     1       8.143  -0.748  24.079  0.00  0.00    +0.248 C 
ATOM     18  O   UNL     1       8.738  -0.804  25.149  0.00  0.00    -0.270 OA
BRANCH  17  19
ATOM     19  C   UNL     1       7.658  -2.037  23.514  0.00  0.00    +0.037 A 
ATOM     20  C   UNL     1       6.517  -1.997  22.697  0.00  0.00    +0.014 A 
ATOM     21  C   UNL     1       5.993  -3.169  22.155  0.00  0.00    +0.016 A 
ATOM     22  C   UNL     1       6.607  -4.395  22.423  0.00  0.00    +0.059 A 
ATOM     23  C   UNL     1       7.725  -4.447  23.271  0.00  0.00    +0.016 A 
ATOM     24  C   UNL     1       8.251  -3.269  23.815  0.00  0.00    +0.014 A 
BRANCH  22  25
ATOM     25  C   UNL     1       6.003  -5.617  21.831  0.00  0.00    +0.337 C 
ATOM     26  O   UNL     1       5.882  -5.777  20.630  0.00  0.00    -0.245 OA
BRANCH  25  27
ATOM     27  O   UNL     1       5.652  -6.546  22.742  0.00  0.00    -0.477 OA
ATOM     28  H   UNL     1       4.999  -7.202  22.439  0.00  0.00    +0.295 HD
ENDBRANCH  25  27
ENDBRANCH  22  25
ENDBRANCH  17  19
ENDBRANCH   6  15
TORSDOF 4
ENDMDL
MODEL 8
REMARK VINA RESULT:      -6.2      3.029      9.129
REMARK  Name = 
REMARK  8 active torsions:
REMARK  status: ('A' for Active; 'I' for Inactive)
REMARK    1  A    between atoms: C_1  and  C_2
REMARK    2  A    between atoms: C_2  and  C_3
REMARK    3  A    between atoms: C_6  and  C_7
REMARK    4  A    between atoms: C_6  and  C_8
REMARK    5  A    between atoms: C_11  and  N_12
REMARK    6  A    between atoms: C_13  and  C_15
REMARK    7  A    between atoms: C_18  and  C_21
REMARK    8  A    between atoms: C_21  and  O_22
REMARK                            x       y       z     vdW  Elec       q    Type
REMARK                         _______ _______ _______ _____ _____    ______ ____
ROOT
ATOM      1  C   UNL     1      10.038   5.435  23.735  0.00  0.00    +0.020 C 
ATOM      2  C   UNL     1       8.496   5.450  23.759  0.00  0.00    +0.008 C 
ATOM      3  C   UNL     1       7.953   4.016  23.676  0.00  0.00    -0.034 A 
ATOM      4  C   UNL     1       7.121   3.484  24.677  0.00  0.00    -0.032 A 
ATOM      5  C   UNL     1       6.639   2.163  24.531  0.00  0.00    +0.028 A 
ATOM      6  C   UNL     1       6.943   1.367  23.433  0.00  0.00    +0.034 A 
ATOM      7  C   UNL     1       7.773   1.896  22.447  0.00  0.00    +0.023 A 
ATOM      8  C   UNL     1       6.708   4.277  25.924  0.00  0.00    +0.008 C 
ATOM      9  C   UNL     1       5.171   4.427  25.956  0.00  0.00    +0.020 C 
ATOM     10  C   UNL     1       7.192   3.540  27.192  0.00  0.00    +0.020 C 
ATOM     11  C   UNL     1       7.294   5.669  25.970  0.00  0.00    -0.019 C 
ATOM     12  C   UNL     1       8.271   3.199  22.568  0.00  0.00    +0.006 A 
ATOM     13  C   UNL     1       8.083   6.183  25.019  0.00  0.00    -0.019 C 
ATOM     14  C   UNL     1       7.956   6.274  22.571  0.00  0.00    +0.020 C 
ENDROOT
BRANCH   6  15
ATOM     15  N   UNL     1       6.443   0.055  23.266  0.00  0.00    -0.281 N 
ATOM     16  H   UNL     1       5.441  -0.017  23.152  0.00  0.00    +0.155 HD
ATOM     17  C   UNL     1       7.182  -1.117  23.326  0.00  0.00    +0.248 C 
ATOM     18  O   UNL     1       8.388  -1.218  23.523  0.00  0.00    -0.270 OA
BRANCH  17  19
ATOM     19  C   UNL     1       6.422  -2.387  23.167  0.00  0.00    +0.037 A 
ATOM     20  C   UNL     1       5.377  -2.633  24.072  0.00  0.00    +0.014 A 
ATOM     21  C   UNL     1       4.640  -3.813  23.998  0.00  0.00    +0.016 A 
ATOM     22  C   UNL     1       4.938  -4.761  23.015  0.00  0.00    +0.059 A 
ATOM     23  C   UNL     1       6.007  -4.539  22.132  0.00  0.00    +0.016 A 
ATOM     24  C   UNL     1       6.747  -3.352  22.206  0.00  0.00    +0.014 A 
BRANCH  22  25
ATOM     25  C   UNL     1       4.131  -6.008  22.985  0.00  0.00    +0.337 C 
ATOM     26  O   UNL     1       2.973  -6.034  22.610  0.00  0.00    -0.245 OA
BRANCH  25  27
ATOM     27  O   UNL     1       4.814  -7.106  23.362  0.00  0.00    -0.477 OA
ATOM     28  H   UNL     1       4.854  -7.821  22.702  0.00  0.00    +0.295 HD
ENDBRANCH  25  27
ENDBRANCH  22  25
ENDBRANCH  17  19
ENDBRANCH   6  15
TORSDOF 4
ENDMDL
MODEL 9
REMARK VINA RESULT:      -6.2      1.170      1.603
REMARK  Name = 
REMARK  8 active torsions:
REMARK  status: ('A' for Active; 'I' for Inactive)
REMARK    1  A    between atoms: C_1  and  C_2
REMARK    2  A    between atoms: C_2  and  C_3
REMARK    3  A    between atoms: C_6  and  C_7
REMARK    4  A    between atoms: C_6  and  C_8
REMARK    5  A    between atoms: C_11  and  N_12
REMARK    6  A    between atoms: C_13  and  C_15
REMARK    7  A    between atoms: C_18  and  C_21
REMARK    8  A    between atoms: C_21  and  O_22
REMARK                            x       y       z     vdW  Elec       q    Type
REMARK                         _______ _______ _______ _____ _____    ______ ____
ROOT
ATOM      1  C   UNL     1       5.530  -5.539  21.843  0.00  0.00    +0.020 C 
ATOM      2  C   UNL     1       6.413  -5.353  23.093  0.00  0.00    +0.008 C 
ATOM      3  C   UNL     1       6.663  -3.859  23.343  0.00  0.00    -0.034 A 
ATOM      4  C   UNL     1       6.292  -3.241  24.551  0.00  0.00    -0.032 A 
ATOM      5  C   UNL     1       6.569  -1.866  24.726  0.00  0.00    +0.028 A 
ATOM      6  C   UNL     1       7.201  -1.095  23.758  0.00  0.00    +0.034 A 
ATOM      7  C   UNL     1       7.561  -1.709  22.560  0.00  0.00    +0.023 A 
ATOM      8  C   UNL     1       5.603  -3.996  25.695  0.00  0.00    +0.008 C 
ATOM      9  C   UNL     1       6.488  -3.944  26.959  0.00  0.00    +0.020 C 
ATOM     10  C   UNL     1       4.229  -3.355  25.987  0.00  0.00    +0.020 C 
ATOM     11  C   UNL     1       5.353  -5.454  25.384  0.00  0.00    -0.019 C 
ATOM     12  C   UNL     1       7.294  -3.069  22.356  0.00  0.00    +0.006 A 
ATOM     13  C   UNL     1       5.707  -6.049  24.239  0.00  0.00    -0.019 C 
ATOM     14  C   UNL     1       7.762  -6.075  22.901  0.00  0.00    +0.020 C 
ENDROOT
BRANCH   6  15
ATOM     15  N   UNL     1       7.506   0.275  23.935  0.00  0.00    -0.281 N 
ATOM     16  H   UNL     1       6.906   0.921  23.441  0.00  0.00    +0.155 HD
ATOM     17  C   UNL     1       8.581   0.789  24.645  0.00  0.00    +0.248 C 
ATOM     18  O   UNL     1       9.440   0.151  25.243  0.00  0.00    -0.270 OA
BRANCH  17  19
ATOM     19  C   UNL     1       8.722   2.270  24.649  0.00  0.00    +0.037 A 
ATOM     20  C   UNL     1       9.649   2.835  23.758  0.00  0.00    +0.014 A 
ATOM     21  C   UNL     1       9.851   4.213  23.726  0.00  0.00    +0.016 A 
ATOM     22  C   UNL     1       9.126   5.044  24.585  0.00  0.00    +0.059 A 
ATOM     23  C   UNL     1       8.226   4.483  25.506  0.00  0.00    +0.016 A 
ATOM     24  C   UNL     1       8.023   3.097  25.536  0.00  0.00    +0.014 A 
BRANCH  22  25
ATOM     25  C   UNL     1       9.386   6.505  24.521  0.00  0.00    +0.337 C 
ATOM     26  O   UNL     1      10.070   7.089  25.341  0.00  0.00    -0.245 OA
BRANCH  25  27
ATOM     27  O   UNL     1       8.838   7.108  23.447  0.00  0.00    -0.477 OA
ATOM     28  H   UNL     1       7.951   7.485  23.588  0.00  0.00    +0.295 HD
ENDBRANCH  25  27
ENDBRANCH  22  25
ENDBRANCH  17  19
ENDBRANCH   6  15
TORSDOF 4
ENDMDL
