MODEL 1
REMARK VINA RESULT:      -6.2      0.000      0.000
REMARK  Name = 
REMARK  6 active torsions:
REMARK  status: ('A' for Active; 'I' for Inactive)
REMARK    1  A    between atoms: O_1  and  C_2
REMARK    2  A    between atoms: C_2  and  C_3
REMARK    3  A    between atoms: C_3  and  C_4
REMARK    4  A    between atoms: C_4  and  C_5
REMARK    5  A    between atoms: C_5  and  N_6
REMARK    6  A    between atoms: N_13  and  C_14
REMARK                            x       y       z     vdW  Elec       q    Type
REMARK                         _______ _______ _______ _____ _____    ______ ____
ROOT
ATOM      1  N   UNL     1       6.030  -5.038  25.109  0.00  0.00    -0.315 N 
ATOM      2  C   UNL     1       6.484  -4.478  23.952  0.00  0.00    +0.169 A 
ATOM      3  N   UNL     1       7.311  -3.415  23.839  0.00  0.00    -0.196 NA
ATOM      4  C   UNL     1       7.620  -3.090  22.610  0.00  0.00    +0.202 A 
ATOM      5  N   UNL     1       7.144  -3.806  21.516  0.00  0.00    -0.293 N 
ATOM      6  H   UNL     1       7.356  -3.506  20.580  0.00  0.00    +0.172 HD
ATOM      7  C   UNL     1       6.255  -4.873  21.585  0.00  0.00    +0.280 A 
ATOM      8  O   UNL     1       5.817  -5.411  20.573  0.00  0.00    -0.265 OA
ATOM      9  N   UNL     1       8.445  -2.038  22.305  0.00  0.00    -0.285 N 
ATOM     10  H   UNL     1       8.892  -2.004  21.402  0.00  0.00    +0.155 HD
ATOM     11  C   UNL     1       5.924  -5.227  22.946  0.00  0.00    +0.172 A 
ATOM     12  N   UNL     1       5.115  -6.216  23.447  0.00  0.00    -0.229 NA
ATOM     13  C   UNL     1       5.192  -6.066  24.755  0.00  0.00    +0.201 A 
ENDROOT
BRANCH   9  14
ATOM     14  C   UNL     1       8.619  -0.877  23.083  0.00  0.00    +0.034 A 
ATOM     15  C   UNL     1       7.661   0.147  23.120  0.00  0.00    +0.023 A 
ATOM     16  C   UNL     1       7.830   1.266  23.937  0.00  0.00    +0.002 A 
ATOM     17  C   UNL     1       8.953   1.368  24.752  0.00  0.00    +0.000 A 
ATOM     18  C   UNL     1       9.907   0.352  24.742  0.00  0.00    +0.002 A 
ATOM     19  C   UNL     1       9.742  -0.761  23.912  0.00  0.00    +0.023 A 
ENDBRANCH   9  14
BRANCH   1  20
ATOM     20  C   UNL     1       6.374  -4.643  26.458  0.00  0.00    +0.125 C 
BRANCH  20  21
ATOM     21  C   UNL     1       7.646  -5.307  26.991  0.00  0.00    +0.024 C 
BRANCH  21  22
ATOM     22  C   UNL     1       8.915  -4.511  26.659  0.00  0.00    +0.029 C 
BRANCH  22  23
ATOM     23  C   UNL     1       9.771  -5.212  25.613  0.00  0.00    +0.156 C 
BRANCH  23  24
ATOM     24  O   UNL     1      10.129  -4.294  24.590  0.00  0.00    -0.395 OA
ATOM     25  H   UNL     1      11.043  -4.502  24.329  0.00  0.00    +0.209 HD
ENDBRANCH  23  24
ENDBRANCH  22  23
ENDBRANCH  21  22
ENDBRANCH  20  21
ENDBRANCH   1  20
TORSDOF 6
ENDMDL
MODEL 2
REMARK VINA RESULT:      -6.1      1.814      2.210
REMARK  Name = 
REMARK  6 active torsions:
REMARK  status: ('A' for Active; 'I' for Inactive)
REMARK    1  A    between atoms: O_1  and  C_2
REMARK    2  A    between atoms: C_2  and  C_3
REMARK    3  A    between atoms: C_3  and  C_4
REMARK    4  A    between atoms: C_4  and  C_5
REMARK    5  A    between atoms: C_5  and  N_6
REMARK    6  A    between atoms: N_13  and  C_14
REMARK                            x       y       z     vdW  Elec       q    Type
REMARK                         _______ _______ _______ _____ _____    ______ ____
ROOT
ATOM      1  N   UNL     1       5.024  -2.924  24.659  0.00  0.00    -0.315 N 
ATOM      2  C   UNL     1       5.947  -3.040  23.663  0.00  0.00    +0.169 A 
ATOM      3  N   UNL     1       7.127  -2.387  23.575  0.00  0.00    -0.196 NA
ATOM      4  C   UNL     1       7.848  -2.699  22.528  0.00  0.00    +0.202 A 
ATOM      5  N   UNL     1       7.428  -3.645  21.598  0.00  0.00    -0.293 N 
ATOM      6  H   UNL     1       7.977  -3.829  20.777  0.00  0.00    +0.172 HD
ATOM      7  C   UNL     1       6.203  -4.302  21.625  0.00  0.00    +0.280 A 
ATOM      8  O   UNL     1       5.866  -5.070  20.729  0.00  0.00    -0.265 OA
ATOM      9  N   UNL     1       9.072  -2.134  22.275  0.00  0.00    -0.285 N 
ATOM     10  H   UNL     1       9.712  -2.600  21.652  0.00  0.00    +0.155 HD
ATOM     11  C   UNL     1       5.417  -3.956  22.786  0.00  0.00    +0.172 A 
ATOM     12  N   UNL     1       4.181  -4.388  23.198  0.00  0.00    -0.229 NA
ATOM     13  C   UNL     1       3.969  -3.737  24.325  0.00  0.00    +0.201 A 
ENDROOT
BRANCH   9  14
ATOM     14  C   UNL     1       9.485  -0.850  22.680  0.00  0.00    +0.034 A 
ATOM     15  C   UNL     1      10.042  -0.608  23.944  0.00  0.00    +0.023 A 
ATOM     16  C   UNL     1      10.491   0.663  24.305  0.00  0.00    +0.002 A 
ATOM     17  C   UNL     1      10.411   1.713  23.395  0.00  0.00    +0.000 A 
ATOM     18  C   UNL     1       9.875   1.488  22.129  0.00  0.00    +0.002 A 
ATOM     19  C   UNL     1       9.413   0.217  21.775  0.00  0.00    +0.023 A 
ENDBRANCH   9  14
BRANCH   1  20
ATOM     20  C   UNL     1       5.133  -2.115  25.854  0.00  0.00    +0.125 C 
BRANCH  20  21
ATOM     21  C   UNL     1       6.284  -2.526  26.776  0.00  0.00    +0.024 C 
BRANCH  21  22
ATOM     22  C   UNL     1       6.222  -4.005  27.179  0.00  0.00    +0.029 C 
BRANCH  22  23
ATOM     23  C   UNL     1       7.490  -4.755  26.793  0.00  0.00    +0.156 C 
BRANCH  23  24
ATOM     24  O   UNL     1       7.675  -5.866  27.660  0.00  0.00    -0.395 OA
ATOM     25  H   UNL     1       8.630  -5.944  27.822  0.00  0.00    +0.209 HD
ENDBRANCH  23  24
ENDBRANCH  22  23
ENDBRANCH  21  22
ENDBRANCH  20  21
ENDBRANCH   1  20
TORSDOF 6
ENDMDL
MODEL 3
REMARK VINA RESULT:      -6.0      2.528      3.270
REMARK  Name = 
REMARK  6 active torsions:
REMARK  status: ('A' for Active; 'I' for Inactive)
REMARK    1  A    between atoms: O_1  and  C_2
REMARK    2  A    between atoms: C_2  and  C_3
REMARK    3  A    between atoms: C_3  and  C_4
REMARK    4  A    between atoms: C_4  and  C_5
REMARK    5  A    between atoms: C_5  and  N_6
REMARK    6  A    between atoms: N_13  and  C_14
REMARK                            x       y       z     vdW  Elec       q    Type
REMARK                         _______ _______ _______ _____ _____    ______ ____
ROOT
ATOM      1  N   UNL     1       5.246  -2.370  25.016  0.00  0.00    -0.315 N 
ATOM      2  C   UNL     1       6.092  -2.602  23.972  0.00  0.00    +0.169 A 
ATOM      3  N   UNL     1       7.280  -1.999  23.746  0.00  0.00    -0.196 NA
ATOM      4  C   UNL     1       7.916  -2.422  22.683  0.00  0.00    +0.202 A 
ATOM      5  N   UNL     1       7.404  -3.430  21.871  0.00  0.00    -0.293 N 
ATOM      6  H   UNL     1       7.889  -3.701  21.033  0.00  0.00    +0.172 HD
ATOM      7  C   UNL     1       6.167  -4.040  22.039  0.00  0.00    +0.280 A 
ATOM      8  O   UNL     1       5.746  -4.870  21.239  0.00  0.00    -0.265 OA
ATOM      9  N   UNL     1       9.134  -1.922  22.299  0.00  0.00    -0.285 N 
ATOM     10  H   UNL     1       9.715  -2.461  21.676  0.00  0.00    +0.155 HD
ATOM     11  C   UNL     1       5.476  -3.571  23.218  0.00  0.00    +0.172 A 
ATOM     12  N   UNL     1       4.261  -3.924  23.749  0.00  0.00    -0.229 NA
ATOM     13  C   UNL     1       4.149  -3.173  24.827  0.00  0.00    +0.201 A 
ENDROOT
BRANCH   9  14
ATOM     14  C   UNL     1       9.609  -0.623  22.560  0.00  0.00    +0.034 A 
ATOM     15  C   UNL     1       9.406   0.440  21.669  0.00  0.00    +0.023 A 
ATOM     16  C   UNL     1       9.842   1.731  21.971  0.00  0.00    +0.002 A 
ATOM     17  C   UNL     1      10.470   1.985  23.187  0.00  0.00    +0.000 A 
ATOM     18  C   UNL     1      10.666   0.944  24.092  0.00  0.00    +0.002 A 
ATOM     19  C   UNL     1      10.241  -0.350  23.781  0.00  0.00    +0.023 A 
ENDBRANCH   9  14
BRANCH   1  20
ATOM     20  C   UNL     1       5.463  -1.466  26.125  0.00  0.00    +0.125 C 
BRANCH  20  21
ATOM     21  C   UNL     1       5.261   0.009  25.770  0.00  0.00    +0.024 C 
BRANCH  21  22
ATOM     22  C   UNL     1       6.568   0.811  25.802  0.00  0.00    +0.029 C 
BRANCH  22  23
ATOM     23  C   UNL     1       6.884   1.442  24.453  0.00  0.00    +0.156 C 
BRANCH  23  24
ATOM     24  O   UNL     1       6.106   0.823  23.438  0.00  0.00    -0.395 OA
ATOM     25  H   UNL     1       5.254   1.292  23.408  0.00  0.00    +0.209 HD
ENDBRANCH  23  24
ENDBRANCH  22  23
ENDBRANCH  21  22
ENDBRANCH  20  21
ENDBRANCH   1  20
TORSDOF 6
ENDMDL
MODEL 4
REMARK VINA RESULT:      -5.6      1.777      2.143
REMARK  Name = 
REMARK  6 active torsions:
REMARK  status: ('A' for Active; 'I' for Inactive)
REMARK    1  A    between atoms: O_1  and  C_2
REMARK    2  A    between atoms: C_2  and  C_3
REMARK    3  A    between atoms: C_3  and  C_4
REMARK    4  A    between atoms: C_4  and  C_5
REMARK    5  A    between atoms: C_5  and  N_6
REMARK    6  A    between atoms: N_13  and  C_14
REMARK                            x       y       z     vdW  Elec       q    Type
REMARK                         _______ _______ _______ _____ _____    ______ ____
ROOT
ATOM      1  N   UNL     1       5.409  -4.836  25.252  0.00  0.00    -0.315 N 
ATOM      2  C   UNL     1       6.107  -4.471  24.140  0.00  0.00    +0.169 A 
ATOM      3  N   UNL     1       7.071  -3.527  24.065  0.00  0.00    -0.196 NA
ATOM      4  C   UNL     1       7.608  -3.387  22.880  0.00  0.00    +0.202 A 
ATOM      5  N   UNL     1       7.221  -4.169  21.797  0.00  0.00    -0.293 N 
ATOM      6  H   UNL     1       7.615  -4.007  20.886  0.00  0.00    +0.172 HD
ATOM      7  C   UNL     1       6.202  -5.115  21.819  0.00  0.00    +0.280 A 
ATOM      8  O   UNL     1       5.862  -5.717  20.804  0.00  0.00    -0.265 OA
ATOM      9  N   UNL     1       8.600  -2.476  22.618  0.00  0.00    -0.285 N 
ATOM     10  H   UNL     1       9.183  -2.599  21.805  0.00  0.00    +0.155 HD
ATOM     11  C   UNL     1       5.619  -5.267  23.131  0.00  0.00    +0.172 A 
ATOM     12  N   UNL     1       4.621  -6.093  23.583  0.00  0.00    -0.229 NA
ATOM     13  C   UNL     1       4.511  -5.799  24.863  0.00  0.00    +0.201 A 
ENDROOT
BRANCH   9  14
ATOM     14  C   UNL     1       8.797  -1.257  23.296  0.00  0.00    +0.034 A 
ATOM     15  C   UNL     1       7.937  -0.163  23.130  0.00  0.00    +0.023 A 
ATOM     16  C   UNL     1       8.122   1.019  23.851  0.00  0.00    +0.002 A 
ATOM     17  C   UNL     1       9.162   1.115  24.770  0.00  0.00    +0.000 A 
ATOM     18  C   UNL     1      10.017   0.032  24.961  0.00  0.00    +0.002 A 
ATOM     19  C   UNL     1       9.838  -1.145  24.227  0.00  0.00    +0.023 A 
ENDBRANCH   9  14
BRANCH   1  20
ATOM     20  C   UNL     1       5.585  -4.325  26.595  0.00  0.00    +0.125 C 
BRANCH  20  21
ATOM     21  C   UNL     1       6.663  -5.057  27.398  0.00  0.00    +0.024 C 
BRANCH  21  22
ATOM     22  C   UNL     1       6.152  -5.563  28.753  0.00  0.00    +0.029 C 
BRANCH  22  23
ATOM     23  C   UNL     1       4.948  -6.483  28.602  0.00  0.00    +0.156 C 
BRANCH  23  24
ATOM     24  O   UNL     1       5.384  -7.797  28.281  0.00  0.00    -0.395 OA
ATOM     25  H   UNL     1       5.045  -7.999  27.392  0.00  0.00    +0.209 HD
ENDBRANCH  23  24
ENDBRANCH  22  23
ENDBRANCH  21  22
ENDBRANCH  20  21
ENDBRANCH   1  20
TORSDOF 6
ENDMDL
MODEL 5
REMARK VINA RESULT:      -5.5      2.672      6.504
REMARK  Name = 
REMARK  6 active torsions:
REMARK  status: ('A' for Active; 'I' for Inactive)
REMARK    1  A    between atoms: O_1  and  C_2
REMARK    2  A    between atoms: C_2  and  C_3
REMARK    3  A    between atoms: C_3  and  C_4
REMARK    4  A    between atoms: C_4  and  C_5
REMARK    5  A    between atoms: C_5  and  N_6
REMARK    6  A    between atoms: N_13  and  C_14
REMARK                            x       y       z     vdW  Elec       q    Type
REMARK                         _______ _______ _______ _____ _____    ______ ____
ROOT
ATOM      1  N   UNL     1       7.426   1.091  23.727  0.00  0.00    -0.315 N 
ATOM      2  C   UNL     1       7.521   0.043  24.594  0.00  0.00    +0.169 A 
ATOM      3  N   UNL     1       7.508  -1.271  24.276  0.00  0.00    -0.196 NA
ATOM      4  C   UNL     1       7.642  -2.081  25.296  0.00  0.00    +0.202 A 
ATOM      5  N   UNL     1       7.805  -1.611  26.595  0.00  0.00    -0.293 N 
ATOM      6  H   UNL     1       7.856  -2.255  27.365  0.00  0.00    +0.172 HD
ATOM      7  C   UNL     1       7.774  -0.273  26.970  0.00  0.00    +0.280 A 
ATOM      8  O   UNL     1       7.849   0.067  28.147  0.00  0.00    -0.265 OA
ATOM      9  N   UNL     1       7.651  -3.446  25.162  0.00  0.00    -0.285 N 
ATOM     10  H   UNL     1       8.047  -4.012  25.895  0.00  0.00    +0.155 HD
ATOM     11  C   UNL     1       7.631   0.614  25.839  0.00  0.00    +0.172 A 
ATOM     12  N   UNL     1       7.580   1.983  25.769  0.00  0.00    -0.229 NA
ATOM     13  C   UNL     1       7.444   2.237  24.482  0.00  0.00    +0.201 A 
ENDROOT
BRANCH   9  14
ATOM     14  C   UNL     1       6.999  -4.178  24.150  0.00  0.00    +0.034 A 
ATOM     15  C   UNL     1       7.706  -4.912  23.187  0.00  0.00    +0.023 A 
ATOM     16  C   UNL     1       7.040  -5.671  22.223  0.00  0.00    +0.002 A 
ATOM     17  C   UNL     1       5.649  -5.726  22.223  0.00  0.00    +0.000 A 
ATOM     18  C   UNL     1       4.930  -5.017  23.183  0.00  0.00    +0.002 A 
ATOM     19  C   UNL     1       5.600  -4.246  24.138  0.00  0.00    +0.023 A 
ENDBRANCH   9  14
BRANCH   1  20
ATOM     20  C   UNL     1       7.341   1.020  22.284  0.00  0.00    +0.125 C 
BRANCH  20  21
ATOM     21  C   UNL     1       8.600   1.512  21.566  0.00  0.00    +0.024 C 
BRANCH  21  22
ATOM     22  C   UNL     1       9.832   0.651  21.870  0.00  0.00    +0.029 C 
BRANCH  22  23
ATOM     23  C   UNL     1       9.618  -0.807  21.487  0.00  0.00    +0.156 C 
BRANCH  23  24
ATOM     24  O   UNL     1      10.072  -1.652  22.535  0.00  0.00    -0.395 OA
ATOM     25  H   UNL     1       9.619  -1.366  23.346  0.00  0.00    +0.209 HD
ENDBRANCH  23  24
ENDBRANCH  22  23
ENDBRANCH  21  22
ENDBRANCH  20  21
ENDBRANCH   1  20
TORSDOF 6
ENDMDL
MODEL 6
REMARK VINA RESULT:      -5.5      3.249      6.471
REMARK  Name = 
REMARK  6 active torsions:
REMARK  status: ('A' for Active; 'I' for Inactive)
REMARK    1  A    between atoms: O_1  and  C_2
REMARK    2  A    between atoms: C_2  and  C_3
REMARK    3  A    between atoms: C_3  and  C_4
REMARK    4  A    between atoms: C_4  and  C_5
REMARK    5  A    between atoms: C_5  and  N_6
REMARK    6  A    between atoms: N_13  and  C_14
REMARK                            x       y       z     vdW  Elec       q    Type
REMARK                         _______ _______ _______ _____ _____    ______ ____
ROOT
ATOM      1  N   UNL     1       7.831   1.388  22.516  0.00  0.00    -0.315 N 
ATOM      2  C   UNL     1       7.152   0.829  23.558  0.00  0.00    +0.169 A 
ATOM      3  N   UNL     1       7.493  -0.287  24.239  0.00  0.00    -0.196 NA
ATOM      4  C   UNL     1       6.684  -0.599  25.219  0.00  0.00    +0.202 A 
ATOM      5  N   UNL     1       5.575   0.179  25.537  0.00  0.00    -0.293 N 
ATOM      6  H   UNL     1       4.943  -0.110  26.262  0.00  0.00    +0.172 HD
ATOM      7  C   UNL     1       5.162   1.304  24.833  0.00  0.00    +0.280 A 
ATOM      8  O   UNL     1       4.129   1.900  25.124  0.00  0.00    -0.265 OA
ATOM      9  N   UNL     1       6.874  -1.700  26.016  0.00  0.00    -0.285 N 
ATOM     10  H   UNL     1       6.426  -1.740  26.918  0.00  0.00    +0.155 HD
ATOM     11  C   UNL     1       6.063   1.644  23.757  0.00  0.00    +0.172 A 
ATOM     12  N   UNL     1       6.035   2.674  22.851  0.00  0.00    -0.229 NA
ATOM     13  C   UNL     1       7.109   2.483  22.110  0.00  0.00    +0.201 A 
ENDROOT
BRANCH   9  14
ATOM     14  C   UNL     1       7.519  -2.891  25.633  0.00  0.00    +0.034 A 
ATOM     15  C   UNL     1       8.645  -3.382  26.310  0.00  0.00    +0.023 A 
ATOM     16  C   UNL     1       9.238  -4.592  25.945  0.00  0.00    +0.002 A 
ATOM     17  C   UNL     1       8.698  -5.345  24.907  0.00  0.00    +0.000 A 
ATOM     18  C   UNL     1       7.569  -4.881  24.233  0.00  0.00    +0.002 A 
ATOM     19  C   UNL     1       6.986  -3.663  24.592  0.00  0.00    +0.023 A 
ENDBRANCH   9  14
BRANCH   1  20
ATOM     20  C   UNL     1       9.083   0.932  21.952  0.00  0.00    +0.125 C 
BRANCH  20  21
ATOM     21  C   UNL     1      10.259   1.876  22.213  0.00  0.00    +0.024 C 
BRANCH  21  22
ATOM     22  C   UNL     1      10.549   2.063  23.708  0.00  0.00    +0.029 C 
BRANCH  22  23
ATOM     23  C   UNL     1      10.973   0.760  24.374  0.00  0.00    +0.156 C 
BRANCH  23  24
ATOM     24  O   UNL     1      10.156   0.513  25.510  0.00  0.00    -0.395 OA
ATOM     25  H   UNL     1       9.941   1.377  25.898  0.00  0.00    +0.209 HD
ENDBRANCH  23  24
ENDBRANCH  22  23
ENDBRANCH  21  22
ENDBRANCH  20  21
ENDBRANCH   1  20
TORSDOF 6
ENDMDL
MODEL 7
REMARK VINA RESULT:      -5.5      2.946      6.432
REMARK  Name = 
REMARK  6 active torsions:
REMARK  status: ('A' for Active; 'I' for Inactive)
REMARK    1  A    between atoms: O_1  and  C_2
REMARK    2  A    between atoms: C_2  and  C_3
REMARK    3  A    between atoms: C_3  and  C_4
REMARK    4  A    between atoms: C_4  and  C_5
REMARK    5  A    between atoms: C_5  and  N_6
REMARK    6  A    between atoms: N_13  and  C_14
REMARK                            x       y       z     vdW  Elec       q    Type
REMARK                         _______ _______ _______ _____ _____    ______ ____
ROOT
ATOM      1  N   UNL     1       6.118  -4.177  23.536  0.00  0.00    -0.315 N 
ATOM      2  C   UNL     1       6.763  -4.711  24.612  0.00  0.00    +0.169 A 
ATOM      3  N   UNL     1       6.190  -5.237  25.717  0.00  0.00    -0.196 NA
ATOM      4  C   UNL     1       7.034  -5.712  26.598  0.00  0.00    +0.202 A 
ATOM      5  N   UNL     1       8.409  -5.688  26.388  0.00  0.00    -0.293 N 
ATOM      6  H   UNL     1       9.037  -6.014  27.102  0.00  0.00    +0.172 HD
ATOM      7  C   UNL     1       9.040  -5.114  25.291  0.00  0.00    +0.280 A 
ATOM      8  O   UNL     1      10.264  -5.063  25.207  0.00  0.00    -0.265 OA
ATOM      9  N   UNL     1       6.632  -6.281  27.779  0.00  0.00    -0.285 N 
ATOM     10  H   UNL     1       7.264  -6.889  28.276  0.00  0.00    +0.155 HD
ATOM     11  C   UNL     1       8.101  -4.599  24.322  0.00  0.00    +0.172 A 
ATOM     12  N   UNL     1       8.302  -3.985  23.111  0.00  0.00    -0.229 NA
ATOM     13  C   UNL     1       7.086  -3.734  22.669  0.00  0.00    +0.201 A 
ENDROOT
BRANCH   9  14
ATOM     14  C   UNL     1       5.450  -5.972  28.481  0.00  0.00    +0.034 A 
ATOM     15  C   UNL     1       5.299  -4.777  29.199  0.00  0.00    +0.023 A 
ATOM     16  C   UNL     1       4.101  -4.468  29.846  0.00  0.00    +0.002 A 
ATOM     17  C   UNL     1       3.022  -5.343  29.763  0.00  0.00    +0.000 A 
ATOM     18  C   UNL     1       3.148  -6.527  29.039  0.00  0.00    +0.002 A 
ATOM     19  C   UNL     1       4.354  -6.841  28.405  0.00  0.00    +0.023 A 
ENDBRANCH   9  14
BRANCH   1  20
ATOM     20  C   UNL     1       4.688  -4.104  23.329  0.00  0.00    +0.125 C 
BRANCH  20  21
ATOM     21  C   UNL     1       4.040  -5.452  23.004  0.00  0.00    +0.024 C 
BRANCH  21  22
ATOM     22  C   UNL     1       2.927  -5.828  23.991  0.00  0.00    +0.029 C 
BRANCH  22  23
ATOM     23  C   UNL     1       3.071  -7.258  24.496  0.00  0.00    +0.156 C 
BRANCH  23  24
ATOM     24  O   UNL     1       4.425  -7.510  24.847  0.00  0.00    -0.395 OA
ATOM     25  H   UNL     1       4.539  -7.216  25.767  0.00  0.00    +0.209 HD
ENDBRANCH  23  24
ENDBRANCH  22  23
ENDBRANCH  21  22
ENDBRANCH  20  21
ENDBRANCH   1  20
TORSDOF 6
ENDMDL
MODEL 8
REMARK VINA RESULT:      -5.5      2.750      4.156
REMARK  Name = 
REMARK  6 active torsions:
REMARK  status: ('A' for Active; 'I' for Inactive)
REMARK    1  A    between atoms: O_1  and  C_2
REMARK    2  A    between atoms: C_2  and  C_3
REMARK    3  A    between atoms: C_3  and  C_4
REMARK    4  A    between atoms: C_4  and  C_5
REMARK    5  A    between atoms: C_5  and  N_6
REMARK    6  A    between atoms: N_13  and  C_14
REMARK                            x       y       z     vdW  Elec       q    Type
REMARK                         _______ _______ _______ _____ _____    ______ ____
ROOT
ATOM      1  N   UNL     1       6.781  -2.414  26.652  0.00  0.00    -0.315 N 
ATOM      2  C   UNL     1       7.816  -2.551  25.775  0.00  0.00    +0.169 A 
ATOM      3  N   UNL     1       8.483  -1.555  25.150  0.00  0.00    -0.196 NA
ATOM      4  C   UNL     1       9.459  -1.953  24.375  0.00  0.00    +0.202 A 
ATOM      5  N   UNL     1       9.786  -3.298  24.231  0.00  0.00    -0.293 N 
ATOM      6  H   UNL     1      10.508  -3.580  23.591  0.00  0.00    +0.172 HD
ATOM      7  C   UNL     1       9.096  -4.354  24.815  0.00  0.00    +0.280 A 
ATOM      8  O   UNL     1       9.394  -5.522  24.584  0.00  0.00    -0.265 OA
ATOM      9  N   UNL     1      10.242  -1.081  23.662  0.00  0.00    -0.285 N 
ATOM     10  H   UNL     1      11.144  -1.386  23.328  0.00  0.00    +0.155 HD
ATOM     11  C   UNL     1       8.024  -3.905  25.673  0.00  0.00    +0.172 A 
ATOM     12  N   UNL     1       7.131  -4.609  26.440  0.00  0.00    -0.229 NA
ATOM     13  C   UNL     1       6.388  -3.679  27.008  0.00  0.00    +0.201 A 
ENDROOT
BRANCH   9  14
ATOM     14  C   UNL     1       9.845   0.184  23.190  0.00  0.00    +0.034 A 
ATOM     15  C   UNL     1       9.113   0.344  22.005  0.00  0.00    +0.023 A 
ATOM     16  C   UNL     1       8.685   1.603  21.582  0.00  0.00    +0.002 A 
ATOM     17  C   UNL     1       8.964   2.726  22.355  0.00  0.00    +0.000 A 
ATOM     18  C   UNL     1       9.676   2.586  23.544  0.00  0.00    +0.002 A 
ATOM     19  C   UNL     1      10.116   1.325  23.958  0.00  0.00    +0.023 A 
ENDBRANCH   9  14
BRANCH   1  20
ATOM     20  C   UNL     1       6.212  -1.174  27.135  0.00  0.00    +0.125 C 
BRANCH  20  21
ATOM     21  C   UNL     1       5.452  -0.385  26.067  0.00  0.00    +0.024 C 
BRANCH  21  22
ATOM     22  C   UNL     1       6.055   1.002  25.812  0.00  0.00    +0.029 C 
BRANCH  22  23
ATOM     23  C   UNL     1       6.059   1.361  24.332  0.00  0.00    +0.156 C 
BRANCH  23  24
ATOM     24  O   UNL     1       4.759   1.773  23.934  0.00  0.00    -0.395 OA
ATOM     25  H   UNL     1       4.277   0.973  23.665  0.00  0.00    +0.209 HD
ENDBRANCH  23  24
ENDBRANCH  22  23
ENDBRANCH  21  22
ENDBRANCH  20  21
ENDBRANCH   1  20
TORSDOF 6
ENDMDL
MODEL 9
REMARK VINA RESULT:      -5.5      3.326      6.924
REMARK  Name = 
REMARK  6 active torsions:
REMARK  status: ('A' for Active; 'I' for Inactive)
REMARK    1  A    between atoms: O_1  and  C_2
REMARK    2  A    between atoms: C_2  and  C_3
REMARK    3  A    between atoms: C_3  and  C_4
REMARK    4  A    between atoms: C_4  and  C_5
REMARK    5  A    between atoms: C_5  and  N_6
REMARK    6  A    between atoms: N_13  and  C_14
REMARK                            x       y       z     vdW  Elec       q    Type
REMARK                         _______ _______ _______ _____ _____    ______ ____
ROOT
ATOM      1  N   UNL     1       9.343   1.935  23.490  0.00  0.00    -0.315 N 
ATOM      2  C   UNL     1       8.707   1.509  24.618  0.00  0.00    +0.169 A 
ATOM      3  N   UNL     1       8.631   0.239  25.072  0.00  0.00    -0.196 NA
ATOM      4  C   UNL     1       7.982   0.098  26.200  0.00  0.00    +0.202 A 
ATOM      5  N   UNL     1       7.437   1.184  26.877  0.00  0.00    -0.293 N 
ATOM      6  H   UNL     1       6.901   1.043  27.716  0.00  0.00    +0.172 HD
ATOM      7  C   UNL     1       7.451   2.498  26.422  0.00  0.00    +0.280 A 
ATOM      8  O   UNL     1       6.883   3.396  27.036  0.00  0.00    -0.265 OA
ATOM      9  N   UNL     1       7.805  -1.119  26.807  0.00  0.00    -0.285 N 
ATOM     10  H   UNL     1       7.577  -1.153  27.788  0.00  0.00    +0.155 HD
ATOM     11  C   UNL     1       8.173   2.644  25.180  0.00  0.00    +0.172 A 
ATOM     12  N   UNL     1       8.437   3.753  24.417  0.00  0.00    -0.229 NA
ATOM     13  C   UNL     1       9.134   3.288  23.399  0.00  0.00    +0.201 A 
ENDROOT
BRANCH   9  14
ATOM     14  C   UNL     1       7.746  -2.364  26.152  0.00  0.00    +0.034 A 
ATOM     15  C   UNL     1       8.582  -3.433  26.504  0.00  0.00    +0.023 A 
ATOM     16  C   UNL     1       8.473  -4.675  25.876  0.00  0.00    +0.002 A 
ATOM     17  C   UNL     1       7.504  -4.875  24.897  0.00  0.00    +0.000 A 
ATOM     18  C   UNL     1       6.652  -3.829  24.546  0.00  0.00    +0.002 A 
ATOM     19  C   UNL     1       6.774  -2.582  25.167  0.00  0.00    +0.023 A 
ENDBRANCH   9  14
BRANCH   1  20
ATOM     20  C   UNL     1      10.110   1.125  22.568  0.00  0.00    +0.125 C 
BRANCH  20  21
ATOM     21  C   UNL     1       9.253   0.367  21.551  0.00  0.00    +0.024 C 
BRANCH  21  22
ATOM     22  C   UNL     1       9.246  -1.148  21.794  0.00  0.00    +0.029 C 
BRANCH  22  23
ATOM     23  C   UNL     1      10.465  -1.605  22.582  0.00  0.00    +0.156 C 
BRANCH  23  24
ATOM     24  O   UNL     1      10.106  -2.673  23.448  0.00  0.00    -0.395 OA
ATOM     25  H   UNL     1      10.158  -3.492  22.926  0.00  0.00    +0.209 HD
ENDBRANCH  23  24
ENDBRANCH  22  23
ENDBRANCH  21  22
ENDBRANCH  20  21
ENDBRANCH   1  20
TORSDOF 6
ENDMDL
