MODEL 1
REMARK VINA RESULT:      -6.6      0.000      0.000
REMARK  Name = 
REMARK  12 active torsions:
REMARK  status: ('A' for Active; 'I' for Inactive)
REMARK    1  A    between atoms: C_1  and  C_2
REMARK    2  A    between atoms: C_2  and  O_3
REMARK    3  A    between atoms: O_3  and  C_4
REMARK    4  A    between atoms: C_6  and  N_7
REMARK    5  A    between atoms: C_8  and  C_10
REMARK    6  A    between atoms: C_10  and  C_11
REMARK    7  A    between atoms: C_13  and  O_14
REMARK    8  A    between atoms: O_14  and  C_15
REMARK    9  A    between atoms: C_19  and  O_20
REMARK   10  A    between atoms: O_20  and  C_21
REMARK   11  A    between atoms: C_23  and  N_24
REMARK   12  A    between atoms: C_25  and  C_26
REMARK                            x       y       z     vdW  Elec       q    Type
REMARK                         _______ _______ _______ _____ _____    ______ ____
ROOT
ATOM      1  N   UNL     1       7.831  -1.878  22.113  0.00  0.00    -0.270 N 
ATOM      2  H   UNL     1       7.197  -1.095  22.205  0.00  0.00    +0.156 HD
ATOM      3  C   UNL     1       9.177  -1.543  22.109  0.00  0.00    +0.223 C 
ATOM      4  O   UNL     1      10.059  -2.232  22.610  0.00  0.00    -0.275 OA
ENDROOT
BRANCH   1   9
ATOM      5  C   UNL     1       6.364  -4.003  24.563  0.00  0.00    +0.236 A 
ATOM      6  C   UNL     1       5.934  -5.142  23.892  0.00  0.00    +0.134 A 
ATOM      7  C   UNL     1       6.186  -5.190  22.507  0.00  0.00    +0.051 A 
ATOM      8  C   UNL     1       6.983  -4.177  21.928  0.00  0.00    +0.068 A 
ATOM      9  C   UNL     1       7.305  -3.049  22.676  0.00  0.00    +0.131 A 
ATOM     10  N   UNL     1       6.960  -2.935  23.971  0.00  0.00    -0.197 NA
BRANCH   7  11
ATOM     11  N   UNL     1       5.832  -6.310  21.730  0.00  0.00    -0.357 N 
ATOM     12  H   UNL     1       6.469  -6.528  20.964  0.00  0.00    +0.142 HD
ATOM     13  H   UNL     1       5.598  -7.141  22.263  0.00  0.00    +0.142 HD
ENDBRANCH   7  11
BRANCH   6  14
ATOM     14  C   UNL     1       5.202  -6.172  24.586  0.00  0.00    +0.106 C 
ATOM     15  N   UNL     1       4.588  -7.012  25.106  0.00  0.00    -0.191 NA
ENDBRANCH   6  14
BRANCH   5  16
ATOM     16  O   UNL     1       6.129  -3.914  25.923  0.00  0.00    -0.476 OA
BRANCH  16  18
ATOM     17  C   UNL     1       8.056  -5.010  26.826  0.00  0.00    +0.048 C 
ATOM     18  C   UNL     1       7.334  -3.684  26.665  0.00  0.00    +0.227 C 
ENDBRANCH  16  18
ENDBRANCH   5  16
ENDBRANCH   1   9
BRANCH   3  19
ATOM     19  C   UNL     1       9.473  -0.211  21.406  0.00  0.00    +0.135 C 
BRANCH  19  20
ATOM     20  C   UNL     1       9.119   1.101  22.096  0.00  0.00    +0.007 A 
ATOM     21  C   UNL     1       9.868   1.629  23.175  0.00  0.00    +0.125 A 
ATOM     22  C   UNL     1       9.441   2.795  23.831  0.00  0.00    +0.064 A 
ATOM     23  C   UNL     1       8.309   3.486  23.416  0.00  0.00    +0.063 A 
ATOM     24 BR   UNL     1       7.814   5.049  24.377  0.00  0.00    -0.046 Br
ATOM     25  C   UNL     1       7.571   3.019  22.328  0.00  0.00    +0.134 A 
ATOM     26  C   UNL     1       7.961   1.823  21.702  0.00  0.00    +0.054 A 
BRANCH  21  27
ATOM     27  O   UNL     1      10.981   1.127  23.794  0.00  0.00    -0.495 OA
ATOM     28  C   UNL     1      10.878   0.352  24.971  0.00  0.00    +0.277 C 
ENDBRANCH  21  27
BRANCH  25  29
ATOM     29  O   UNL     1       6.496   3.782  21.957  0.00  0.00    -0.494 OA
ATOM     30  C   UNL     1       5.203   3.381  22.379  0.00  0.00    +0.277 C 
ENDBRANCH  25  29
ENDBRANCH  19  20
ENDBRANCH   3  19
TORSDOF 9
ENDMDL
MODEL 2
REMARK VINA RESULT:      -6.5      1.779      2.204
REMARK  Name = 
REMARK  12 active torsions:
REMARK  status: ('A' for Active; 'I' for Inactive)
REMARK    1  A    between atoms: C_1  and  C_2
REMARK    2  A    between atoms: C_2  and  O_3
REMARK    3  A    between atoms: O_3  and  C_4
REMARK    4  A    between atoms: C_6  and  N_7
REMARK    5  A    between atoms: C_8  and  C_10
REMARK    6  A    between atoms: C_10  and  C_11
REMARK    7  A    between atoms: C_13  and  O_14
REMARK    8  A    between atoms: O_14  and  C_15
REMARK    9  A    between atoms: C_19  and  O_20
REMARK   10  A    between atoms: O_20  and  C_21
REMARK   11  A    between atoms: C_23  and  N_24
REMARK   12  A    between atoms: C_25  and  C_26
REMARK                            x       y       z     vdW  Elec       q    Type
REMARK                         _______ _______ _______ _____ _____    ______ ____
ROOT
ATOM      1  N   UNL     1       8.259  -2.470  22.880  0.00  0.00    -0.270 N 
ATOM      2  H   UNL     1       7.682  -1.639  22.850  0.00  0.00    +0.156 HD
ATOM      3  C   UNL     1       9.564  -2.262  23.300  0.00  0.00    +0.223 C 
ATOM      4  O   UNL     1      10.206  -3.058  23.975  0.00  0.00    -0.275 OA
ENDROOT
BRANCH   1   9
ATOM      5  C   UNL     1       6.091  -4.653  24.672  0.00  0.00    +0.236 A 
ATOM      6  C   UNL     1       5.704  -5.646  23.780  0.00  0.00    +0.134 A 
ATOM      7  C   UNL     1       6.243  -5.570  22.480  0.00  0.00    +0.051 A 
ATOM      8  C   UNL     1       7.244  -4.609  22.217  0.00  0.00    +0.068 A 
ATOM      9  C   UNL     1       7.509  -3.621  23.161  0.00  0.00    +0.131 A 
ATOM     10  N   UNL     1       6.905  -3.610  24.363  0.00  0.00    -0.197 NA
BRANCH   7  11
ATOM     11  N   UNL     1       5.954  -6.542  21.502  0.00  0.00    -0.357 N 
ATOM     12  H   UNL     1       6.394  -7.451  21.648  0.00  0.00    +0.142 HD
ATOM     13  H   UNL     1       4.969  -6.640  21.278  0.00  0.00    +0.142 HD
ENDBRANCH   7  11
BRANCH   6  14
ATOM     14  C   UNL     1       4.740  -6.646  24.164  0.00  0.00    +0.106 C 
ATOM     15  N   UNL     1       3.992  -7.470  24.504  0.00  0.00    -0.191 NA
ENDBRANCH   6  14
BRANCH   5  16
ATOM     16  O   UNL     1       5.578  -4.688  25.955  0.00  0.00    -0.476 OA
BRANCH  16  18
ATOM     17  C   UNL     1       7.489  -5.434  27.188  0.00  0.00    +0.048 C 
ATOM     18  C   UNL     1       6.542  -4.275  26.934  0.00  0.00    +0.227 C 
ENDBRANCH  16  18
ENDBRANCH   5  16
ENDBRANCH   1   9
BRANCH   3  19
ATOM     19  C   UNL     1      10.149  -0.922  22.832  0.00  0.00    +0.135 C 
BRANCH  19  20
ATOM     20  C   UNL     1       9.731   0.368  23.529  0.00  0.00    +0.007 A 
ATOM     21  C   UNL     1       8.793   0.399  24.591  0.00  0.00    +0.125 A 
ATOM     22  C   UNL     1       8.379   1.626  25.133  0.00  0.00    +0.064 A 
ATOM     23  C   UNL     1       8.905   2.831  24.684  0.00  0.00    +0.063 A 
ATOM     24 BR   UNL     1       8.269   4.436  25.482  0.00  0.00    -0.046 Br
ATOM     25  C   UNL     1       9.862   2.836  23.670  0.00  0.00    +0.134 A 
ATOM     26  C   UNL     1      10.241   1.616  23.084  0.00  0.00    +0.054 A 
BRANCH  21  27
ATOM     27  O   UNL     1       8.106  -0.627  25.179  0.00  0.00    -0.495 OA
ATOM     28  C   UNL     1       8.365  -1.015  26.512  0.00  0.00    +0.277 C 
ENDBRANCH  21  27
BRANCH  25  29
ATOM     29  O   UNL     1      10.360   4.062  23.317  0.00  0.00    -0.494 OA
ATOM     30  C   UNL     1      11.766   4.246  23.318  0.00  0.00    +0.277 C 
ENDBRANCH  25  29
ENDBRANCH  19  20
ENDBRANCH   3  19
TORSDOF 9
ENDMDL
MODEL 3
REMARK VINA RESULT:      -6.4      2.503      3.442
REMARK  Name = 
REMARK  12 active torsions:
REMARK  status: ('A' for Active; 'I' for Inactive)
REMARK    1  A    between atoms: C_1  and  C_2
REMARK    2  A    between atoms: C_2  and  O_3
REMARK    3  A    between atoms: O_3  and  C_4
REMARK    4  A    between atoms: C_6  and  N_7
REMARK    5  A    between atoms: C_8  and  C_10
REMARK    6  A    between atoms: C_10  and  C_11
REMARK    7  A    between atoms: C_13  and  O_14
REMARK    8  A    between atoms: O_14  and  C_15
REMARK    9  A    between atoms: C_19  and  O_20
REMARK   10  A    between atoms: O_20  and  C_21
REMARK   11  A    between atoms: C_23  and  N_24
REMARK   12  A    between atoms: C_25  and  C_26
REMARK                            x       y       z     vdW  Elec       q    Type
REMARK                         _______ _______ _______ _____ _____    ______ ____
ROOT
ATOM      1  N   UNL     1       9.437  -0.992  23.791  0.00  0.00    -0.270 N 
ATOM      2  H   UNL     1      10.311  -0.540  24.025  0.00  0.00    +0.156 HD
ATOM      3  C   UNL     1       9.125  -0.996  22.440  0.00  0.00    +0.223 C 
ATOM      4  O   UNL     1       8.550  -1.916  21.868  0.00  0.00    -0.275 OA
ENDROOT
BRANCH   1   9
ATOM      5  C   UNL     1       7.587  -2.839  26.207  0.00  0.00    +0.236 A 
ATOM      6  C   UNL     1       8.147  -4.111  26.247  0.00  0.00    +0.134 A 
ATOM      7  C   UNL     1       9.249  -4.340  25.400  0.00  0.00    +0.051 A 
ATOM      8  C   UNL     1       9.805  -3.246  24.701  0.00  0.00    +0.068 A 
ATOM      9  C   UNL     1       9.127  -2.032  24.680  0.00  0.00    +0.131 A 
ATOM     10  N   UNL     1       8.000  -1.837  25.387  0.00  0.00    -0.197 NA
BRANCH   7  11
ATOM     11  N   UNL     1       9.923  -5.577  25.383  0.00  0.00    -0.357 N 
ATOM     12  H   UNL     1      10.017  -6.036  26.289  0.00  0.00    +0.142 HD
ATOM     13  H   UNL     1       9.602  -6.227  24.673  0.00  0.00    +0.142 HD
ENDBRANCH   7  11
BRANCH   6  14
ATOM     14  C   UNL     1       7.564  -5.147  27.062  0.00  0.00    +0.106 C 
ATOM     15  N   UNL     1       7.131  -6.009  27.712  0.00  0.00    -0.191 NA
ENDBRANCH   6  14
BRANCH   5  16
ATOM     16  O   UNL     1       6.498  -2.577  27.018  0.00  0.00    -0.476 OA
BRANCH  16  18
ATOM     17  C   UNL     1       4.631  -3.056  25.598  0.00  0.00    +0.048 C 
ATOM     18  C   UNL     1       5.422  -1.963  26.294  0.00  0.00    +0.227 C 
ENDBRANCH  16  18
ENDBRANCH   5  16
ENDBRANCH   1   9
BRANCH   3  19
ATOM     19  C   UNL     1       9.565   0.280  21.709  0.00  0.00    +0.135 C 
BRANCH  19  20
ATOM     20  C   UNL     1       9.533   1.617  22.440  0.00  0.00    +0.007 A 
ATOM     21  C   UNL     1       8.329   2.245  22.843  0.00  0.00    +0.125 A 
ATOM     22  C   UNL     1       8.358   3.519  23.431  0.00  0.00    +0.064 A 
ATOM     23  C   UNL     1       9.557   4.177  23.679  0.00  0.00    +0.063 A 
ATOM     24 BR   UNL     1       9.483   5.902  24.473  0.00  0.00    -0.046 Br
ATOM     25  C   UNL     1      10.764   3.570  23.334  0.00  0.00    +0.134 A 
ATOM     26  C   UNL     1      10.741   2.319  22.695  0.00  0.00    +0.054 A 
BRANCH  21  27
ATOM     27  O   UNL     1       7.034   1.835  22.680  0.00  0.00    -0.495 OA
ATOM     28  C   UNL     1       6.329   1.196  23.724  0.00  0.00    +0.277 C 
ENDBRANCH  21  27
BRANCH  25  29
ATOM     29  O   UNL     1      11.901   4.266  23.652  0.00  0.00    -0.494 OA
ATOM     30  C   UNL     1      12.558   4.991  22.626  0.00  0.00    +0.277 C 
ENDBRANCH  25  29
ENDBRANCH  19  20
ENDBRANCH   3  19
TORSDOF 9
ENDMDL
MODEL 4
REMARK VINA RESULT:      -6.3      3.506      7.948
REMARK  Name = 
REMARK  12 active torsions:
REMARK  status: ('A' for Active; 'I' for Inactive)
REMARK    1  A    between atoms: C_1  and  C_2
REMARK    2  A    between atoms: C_2  and  O_3
REMARK    3  A    between atoms: O_3  and  C_4
REMARK    4  A    between atoms: C_6  and  N_7
REMARK    5  A    between atoms: C_8  and  C_10
REMARK    6  A    between atoms: C_10  and  C_11
REMARK    7  A    between atoms: C_13  and  O_14
REMARK    8  A    between atoms: O_14  and  C_15
REMARK    9  A    between atoms: C_19  and  O_20
REMARK   10  A    between atoms: O_20  and  C_21
REMARK   11  A    between atoms: C_23  and  N_24
REMARK   12  A    between atoms: C_25  and  C_26
REMARK                            x       y       z     vdW  Elec       q    Type
REMARK                         _______ _______ _______ _____ _____    ______ ____
ROOT
ATOM      1  N   UNL     1       8.460  -2.025  23.065  0.00  0.00    -0.270 N 
ATOM      2  H   UNL     1       8.757  -2.585  22.277  0.00  0.00    +0.156 HD
ATOM      3  C   UNL     1       8.912  -2.468  24.299  0.00  0.00    +0.223 C 
ATOM      4  O   UNL     1       9.224  -1.728  25.225  0.00  0.00    -0.275 OA
ENDROOT
BRANCH   1   9
ATOM      5  C   UNL     1       6.946   1.194  22.939  0.00  0.00    +0.236 A 
ATOM      6  C   UNL     1       7.909   2.065  22.441  0.00  0.00    +0.134 A 
ATOM      7  C   UNL     1       9.156   1.501  22.107  0.00  0.00    +0.051 A 
ATOM      8  C   UNL     1       9.295   0.095  22.144  0.00  0.00    +0.068 A 
ATOM      9  C   UNL     1       8.291  -0.677  22.720  0.00  0.00    +0.131 A 
ATOM     10  N   UNL     1       7.143  -0.132  23.161  0.00  0.00    -0.197 NA
BRANCH   7  11
ATOM     11  N   UNL     1      10.195   2.277  21.557  0.00  0.00    -0.357 N 
ATOM     12  H   UNL     1       9.957   2.781  20.703  0.00  0.00    +0.142 HD
ATOM     13  H   UNL     1      10.672   2.879  22.220  0.00  0.00    +0.142 HD
ENDBRANCH   7  11
BRANCH   6  14
ATOM     14  C   UNL     1       7.647   3.480  22.355  0.00  0.00    +0.106 C 
ATOM     15  N   UNL     1       7.394   4.612  22.269  0.00  0.00    -0.191 NA
ENDBRANCH   6  14
BRANCH   5  16
ATOM     16  O   UNL     1       5.712   1.711  23.287  0.00  0.00    -0.476 OA
BRANCH  16  18
ATOM     17  C   UNL     1       5.607   2.767  25.432  0.00  0.00    +0.048 C 
ATOM     18  C   UNL     1       5.396   1.474  24.666  0.00  0.00    +0.227 C 
ENDBRANCH  16  18
ENDBRANCH   5  16
ENDBRANCH   1   9
BRANCH   3  19
ATOM     19  C   UNL     1       8.983  -3.998  24.410  0.00  0.00    +0.135 C 
BRANCH  19  20
ATOM     20  C   UNL     1       7.702  -4.799  24.612  0.00  0.00    +0.007 A 
ATOM     21  C   UNL     1       6.798  -5.085  23.560  0.00  0.00    +0.125 A 
ATOM     22  C   UNL     1       5.589  -5.749  23.824  0.00  0.00    +0.064 A 
ATOM     23  C   UNL     1       5.267  -6.183  25.104  0.00  0.00    +0.063 A 
ATOM     24 BR   UNL     1       3.601  -7.065  25.355  0.00  0.00    -0.046 Br
ATOM     25  C   UNL     1       6.152  -5.956  26.158  0.00  0.00    +0.134 A 
ATOM     26  C   UNL     1       7.339  -5.245  25.911  0.00  0.00    +0.054 A 
BRANCH  21  27
ATOM     27  O   UNL     1       6.860  -4.737  22.238  0.00  0.00    -0.495 OA
ATOM     28  C   UNL     1       6.252  -5.532  21.241  0.00  0.00    +0.277 C 
ENDBRANCH  21  27
BRANCH  25  29
ATOM     29  O   UNL     1       5.778  -6.455  27.377  0.00  0.00    -0.494 OA
ATOM     30  C   UNL     1       5.635  -5.553  28.462  0.00  0.00    +0.277 C 
ENDBRANCH  25  29
ENDBRANCH  19  20
ENDBRANCH   3  19
TORSDOF 9
ENDMDL
MODEL 5
REMARK VINA RESULT:      -6.3      2.138      2.447
REMARK  Name = 
REMARK  12 active torsions:
REMARK  status: ('A' for Active; 'I' for Inactive)
REMARK    1  A    between atoms: C_1  and  C_2
REMARK    2  A    between atoms: C_2  and  O_3
REMARK    3  A    between atoms: O_3  and  C_4
REMARK    4  A    between atoms: C_6  and  N_7
REMARK    5  A    between atoms: C_8  and  C_10
REMARK    6  A    between atoms: C_10  and  C_11
REMARK    7  A    between atoms: C_13  and  O_14
REMARK    8  A    between atoms: O_14  and  C_15
REMARK    9  A    between atoms: C_19  and  O_20
REMARK   10  A    between atoms: O_20  and  C_21
REMARK   11  A    between atoms: C_23  and  N_24
REMARK   12  A    between atoms: C_25  and  C_26
REMARK                            x       y       z     vdW  Elec       q    Type
REMARK                         _______ _______ _______ _____ _____    ______ ____
ROOT
ATOM      1  N   UNL     1       9.130  -1.506  23.619  0.00  0.00    -0.270 N 
ATOM      2  H   UNL     1      10.035  -1.070  23.737  0.00  0.00    +0.156 HD
ATOM      3  C   UNL     1       8.686  -1.586  22.307  0.00  0.00    +0.223 C 
ATOM      4  O   UNL     1       8.033  -2.520  21.855  0.00  0.00    -0.275 OA
ENDROOT
BRANCH   1   9
ATOM      5  C   UNL     1       7.417  -3.188  26.247  0.00  0.00    +0.236 A 
ATOM      6  C   UNL     1       8.011  -4.440  26.369  0.00  0.00    +0.134 A 
ATOM      7  C   UNL     1       9.086  -4.714  25.501  0.00  0.00    +0.051 A 
ATOM      8  C   UNL     1       9.588  -3.669  24.694  0.00  0.00    +0.068 A 
ATOM      9  C   UNL     1       8.879  -2.475  24.601  0.00  0.00    +0.131 A 
ATOM     10  N   UNL     1       7.774  -2.249  25.333  0.00  0.00    -0.197 NA
BRANCH   7  11
ATOM     11  N   UNL     1       9.790  -5.932  25.559  0.00  0.00    -0.357 N 
ATOM     12  H   UNL     1      10.382  -6.056  26.380  0.00  0.00    +0.142 HD
ATOM     13  H   UNL     1       9.226  -6.757  25.383  0.00  0.00    +0.142 HD
ENDBRANCH   7  11
BRANCH   6  14
ATOM     14  C   UNL     1       7.485  -5.417  27.288  0.00  0.00    +0.106 C 
ATOM     15  N   UNL     1       7.030  -6.175  28.045  0.00  0.00    -0.191 NA
ENDBRANCH   6  14
BRANCH   5  16
ATOM     16  O   UNL     1       6.353  -2.884  27.076  0.00  0.00    -0.476 OA
BRANCH  16  18
ATOM     17  C   UNL     1       4.572  -1.300  26.853  0.00  0.00    +0.048 C 
ATOM     18  C   UNL     1       5.156  -2.603  26.336  0.00  0.00    +0.227 C 
ENDBRANCH  16  18
ENDBRANCH   5  16
ENDBRANCH   1   9
BRANCH   3  19
ATOM     19  C   UNL     1       9.089  -0.375  21.453  0.00  0.00    +0.135 C 
BRANCH  19  20
ATOM     20  C   UNL     1       8.993   1.028  22.042  0.00  0.00    +0.007 A 
ATOM     21  C   UNL     1       9.949   1.549  22.948  0.00  0.00    +0.125 A 
ATOM     22  C   UNL     1       9.759   2.813  23.528  0.00  0.00    +0.064 A 
ATOM     23  C   UNL     1       8.666   3.605  23.198  0.00  0.00    +0.063 A 
ATOM     24 BR   UNL     1       8.500   5.298  24.047  0.00  0.00    -0.046 Br
ATOM     25  C   UNL     1       7.727   3.142  22.276  0.00  0.00    +0.134 A 
ATOM     26  C   UNL     1       7.880   1.855  21.734  0.00  0.00    +0.054 A 
BRANCH  21  27
ATOM     27  O   UNL     1      11.075   0.964  23.461  0.00  0.00    -0.495 OA
ATOM     28  C   UNL     1      11.201   0.703  24.843  0.00  0.00    +0.277 C 
ENDBRANCH  21  27
BRANCH  25  29
ATOM     29  O   UNL     1       6.704   4.002  21.975  0.00  0.00    -0.494 OA
ATOM     30  C   UNL     1       5.411   3.718  22.482  0.00  0.00    +0.277 C 
ENDBRANCH  25  29
ENDBRANCH  19  20
ENDBRANCH   3  19
TORSDOF 9
ENDMDL
MODEL 6
REMARK VINA RESULT:      -6.1      3.642      7.965
REMARK  Name = 
REMARK  12 active torsions:
REMARK  status: ('A' for Active; 'I' for Inactive)
REMARK    1  A    between atoms: C_1  and  C_2
REMARK    2  A    between atoms: C_2  and  O_3
REMARK    3  A    between atoms: O_3  and  C_4
REMARK    4  A    between atoms: C_6  and  N_7
REMARK    5  A    between atoms: C_8  and  C_10
REMARK    6  A    between atoms: C_10  and  C_11
REMARK    7  A    between atoms: C_13  and  O_14
REMARK    8  A    between atoms: O_14  and  C_15
REMARK    9  A    between atoms: C_19  and  O_20
REMARK   10  A    between atoms: O_20  and  C_21
REMARK   11  A    between atoms: C_23  and  N_24
REMARK   12  A    between atoms: C_25  and  C_26
REMARK                            x       y       z     vdW  Elec       q    Type
REMARK                         _______ _______ _______ _____ _____    ______ ____
ROOT
ATOM      1  N   UNL     1       8.741   0.112  23.653  0.00  0.00    -0.270 N 
ATOM      2  H   UNL     1       8.125  -0.382  24.284  0.00  0.00    +0.156 HD
ATOM      3  C   UNL     1       9.308  -0.669  22.657  0.00  0.00    +0.223 C 
ATOM      4  O   UNL     1       9.532  -0.277  21.517  0.00  0.00    -0.275 OA
ENDROOT
BRANCH   1   9
ATOM      5  C   UNL     1       9.087   3.650  23.473  0.00  0.00    +0.236 A 
ATOM      6  C   UNL     1       7.920   4.133  22.892  0.00  0.00    +0.134 A 
ATOM      7  C   UNL     1       6.940   3.177  22.560  0.00  0.00    +0.051 A 
ATOM      8  C   UNL     1       7.130   1.840  22.975  0.00  0.00    +0.068 A 
ATOM      9  C   UNL     1       8.363   1.453  23.490  0.00  0.00    +0.131 A 
ATOM     10  N   UNL     1       9.355   2.337  23.696  0.00  0.00    -0.197 NA
BRANCH   7  11
ATOM     11  N   UNL     1       5.702   3.552  22.002  0.00  0.00    -0.357 N 
ATOM     12  H   UNL     1       5.375   2.967  21.233  0.00  0.00    +0.142 HD
ATOM     13  H   UNL     1       4.964   3.718  22.678  0.00  0.00    +0.142 HD
ENDBRANCH   7  11
BRANCH   6  14
ATOM     14  C   UNL     1       7.776   5.534  22.584  0.00  0.00    +0.106 C 
ATOM     15  N   UNL     1       7.614   6.661  22.344  0.00  0.00    -0.191 NA
ENDBRANCH   6  14
BRANCH   5  16
ATOM     16  O   UNL     1      10.077   4.557  23.807  0.00  0.00    -0.476 OA
BRANCH  16  18
ATOM     17  C   UNL     1      12.334   5.275  23.462  0.00  0.00    +0.048 C 
ATOM     18  C   UNL     1      11.382   4.093  23.433  0.00  0.00    +0.227 C 
ENDBRANCH  16  18
ENDBRANCH   5  16
ENDBRANCH   1   9
BRANCH   3  19
ATOM     19  C   UNL     1       9.642  -2.095  23.117  0.00  0.00    +0.135 C 
BRANCH  19  20
ATOM     20  C   UNL     1       8.555  -2.958  23.747  0.00  0.00    +0.007 A 
ATOM     21  C   UNL     1       8.218  -2.888  25.121  0.00  0.00    +0.125 A 
ATOM     22  C   UNL     1       7.271  -3.772  25.664  0.00  0.00    +0.064 A 
ATOM     23  C   UNL     1       6.608  -4.700  24.870  0.00  0.00    +0.063 A 
ATOM     24 BR   UNL     1       5.350  -5.855  25.706  0.00  0.00    -0.046 Br
ATOM     25  C   UNL     1       6.884  -4.768  23.504  0.00  0.00    +0.134 A 
ATOM     26  C   UNL     1       7.869  -3.924  22.964  0.00  0.00    +0.054 A 
BRANCH  21  27
ATOM     27  O   UNL     1       8.745  -2.104  26.111  0.00  0.00    -0.495 OA
ATOM     28  C   UNL     1       7.959  -1.140  26.780  0.00  0.00    +0.277 C 
ENDBRANCH  21  27
BRANCH  25  29
ATOM     29  O   UNL     1       6.155  -5.679  22.787  0.00  0.00    -0.494 OA
ATOM     30  C   UNL     1       6.523  -5.931  21.442  0.00  0.00    +0.277 C 
ENDBRANCH  25  29
ENDBRANCH  19  20
ENDBRANCH   3  19
TORSDOF 9
ENDMDL
MODEL 7
REMARK VINA RESULT:      -6.1      2.085      3.659
REMARK  Name = 
REMARK  12 active torsions:
REMARK  status: ('A' for Active; 'I' for Inactive)
REMARK    1  A    between atoms: C_1  and  C_2
REMARK    2  A    between atoms: C_2  and  O_3
REMARK    3  A    between atoms: O_3  and  C_4
REMARK    4  A    between atoms: C_6  and  N_7
REMARK    5  A    between atoms: C_8  and  C_10
REMARK    6  A    between atoms: C_10  and  C_11
REMARK    7  A    between atoms: C_13  and  O_14
REMARK    8  A    between atoms: O_14  and  C_15
REMARK    9  A    between atoms: C_19  and  O_20
REMARK   10  A    between atoms: O_20  and  C_21
REMARK   11  A    between atoms: C_23  and  N_24
REMARK   12  A    between atoms: C_25  and  C_26
REMARK                            x       y       z     vdW  Elec       q    Type
REMARK                         _______ _______ _______ _____ _____    ______ ____
ROOT
ATOM      1  N   UNL     1       8.147  -0.824  23.220  0.00  0.00    -0.270 N 
ATOM      2  H   UNL     1       7.508  -0.069  23.010  0.00  0.00    +0.156 HD
ATOM      3  C   UNL     1       9.463  -0.437  23.426  0.00  0.00    +0.223 C 
ATOM      4  O   UNL     1      10.218  -0.966  24.234  0.00  0.00    -0.275 OA
ENDROOT
BRANCH   1   9
ATOM      5  C   UNL     1       7.218  -4.169  24.007  0.00  0.00    +0.236 A 
ATOM      6  C   UNL     1       6.637  -4.132  25.269  0.00  0.00    +0.134 A 
ATOM      7  C   UNL     1       6.541  -2.867  25.881  0.00  0.00    +0.051 A 
ATOM      8  C   UNL     1       6.882  -1.722  25.126  0.00  0.00    +0.068 A 
ATOM      9  C   UNL     1       7.515  -1.877  23.897  0.00  0.00    +0.131 A 
ATOM     10  N   UNL     1       7.728  -3.090  23.357  0.00  0.00    -0.197 NA
BRANCH   7  11
ATOM     11  N   UNL     1       5.936  -2.700  27.142  0.00  0.00    -0.357 N 
ATOM     12  H   UNL     1       6.366  -3.224  27.904  0.00  0.00    +0.142 HD
ATOM     13  H   UNL     1       5.766  -1.736  27.408  0.00  0.00    +0.142 HD
ENDBRANCH   7  11
BRANCH   6  14
ATOM     14  C   UNL     1       6.235  -5.348  25.930  0.00  0.00    +0.106 C 
ATOM     15  N   UNL     1       5.942  -6.322  26.496  0.00  0.00    -0.191 NA
ENDBRANCH   6  14
BRANCH   5  16
ATOM     16  O   UNL     1       7.339  -5.394  23.376  0.00  0.00    -0.476 OA
BRANCH  16  18
ATOM     17  C   UNL     1       6.499  -5.721  21.159  0.00  0.00    +0.048 C 
ATOM     18  C   UNL     1       6.159  -5.740  22.638  0.00  0.00    +0.227 C 
ENDBRANCH  16  18
ENDBRANCH   5  16
ENDBRANCH   1   9
BRANCH   3  19
ATOM     19  C   UNL     1       9.902   0.732  22.533  0.00  0.00    +0.135 C 
BRANCH  19  20
ATOM     20  C   UNL     1       9.812   2.159  23.063  0.00  0.00    +0.007 A 
ATOM     21  C   UNL     1       8.586   2.772  23.421  0.00  0.00    +0.125 A 
ATOM     22  C   UNL     1       8.556   4.119  23.815  0.00  0.00    +0.064 A 
ATOM     23  C   UNL     1       9.720   4.871  23.912  0.00  0.00    +0.063 A 
ATOM     24 BR   UNL     1       9.567   6.689  24.449  0.00  0.00    -0.046 Br
ATOM     25  C   UNL     1      10.951   4.288  23.609  0.00  0.00    +0.134 A 
ATOM     26  C   UNL     1      10.983   2.957  23.161  0.00  0.00    +0.054 A 
BRANCH  21  27
ATOM     27  O   UNL     1       7.314   2.270  23.374  0.00  0.00    -0.495 OA
ATOM     28  C   UNL     1       6.410   2.656  22.360  0.00  0.00    +0.277 C 
ENDBRANCH  21  27
BRANCH  25  29
ATOM     29  O   UNL     1      12.052   5.086  23.773  0.00  0.00    -0.494 OA
ATOM     30  C   UNL     1      12.853   5.374  22.640  0.00  0.00    +0.277 C 
ENDBRANCH  25  29
ENDBRANCH  19  20
ENDBRANCH   3  19
TORSDOF 9
ENDMDL
MODEL 8
REMARK VINA RESULT:      -6.0      3.747      8.019
REMARK  Name = 
REMARK  12 active torsions:
REMARK  status: ('A' for Active; 'I' for Inactive)
REMARK    1  A    between atoms: C_1  and  C_2
REMARK    2  A    between atoms: C_2  and  O_3
REMARK    3  A    between atoms: O_3  and  C_4
REMARK    4  A    between atoms: C_6  and  N_7
REMARK    5  A    between atoms: C_8  and  C_10
REMARK    6  A    between atoms: C_10  and  C_11
REMARK    7  A    between atoms: C_13  and  O_14
REMARK    8  A    between atoms: O_14  and  C_15
REMARK    9  A    between atoms: C_19  and  O_20
REMARK   10  A    between atoms: O_20  and  C_21
REMARK   11  A    between atoms: C_23  and  N_24
REMARK   12  A    between atoms: C_25  and  C_26
REMARK                            x       y       z     vdW  Elec       q    Type
REMARK                         _______ _______ _______ _____ _____    ______ ____
ROOT
ATOM      1  N   UNL     1       9.736  -0.212  24.097  0.00  0.00    -0.270 N 
ATOM      2  H   UNL     1       9.445  -0.446  25.037  0.00  0.00    +0.156 HD
ATOM      3  C   UNL     1       9.520  -1.206  23.154  0.00  0.00    +0.223 C 
ATOM      4  O   UNL     1       9.202  -0.993  21.989  0.00  0.00    -0.275 OA
ENDROOT
BRANCH   1   9
ATOM      5  C   UNL     1       8.341   3.062  24.123  0.00  0.00    +0.236 A 
ATOM      6  C   UNL     1       9.357   3.929  23.736  0.00  0.00    +0.134 A 
ATOM      7  C   UNL     1      10.600   3.342  23.425  0.00  0.00    +0.051 A 
ATOM      8  C   UNL     1      10.689   1.934  23.370  0.00  0.00    +0.068 A 
ATOM      9  C   UNL     1       9.630   1.162  23.840  0.00  0.00    +0.131 A 
ATOM     10  N   UNL     1       8.480   1.718  24.260  0.00  0.00    -0.197 NA
BRANCH   7  11
ATOM     11  N   UNL     1      11.691   4.115  22.984  0.00  0.00    -0.357 N 
ATOM     12  H   UNL     1      11.713   4.308  21.982  0.00  0.00    +0.142 HD
ATOM     13  H   UNL     1      11.863   4.956  23.525  0.00  0.00    +0.142 HD
ENDBRANCH   7  11
BRANCH   6  14
ATOM     14  C   UNL     1       9.148   5.355  23.736  0.00  0.00    +0.106 C 
ATOM     15  N   UNL     1       8.958   6.502  23.696  0.00  0.00    -0.191 NA
ENDBRANCH   6  14
BRANCH   5  16
ATOM     16  O   UNL     1       7.108   3.600  24.444  0.00  0.00    -0.476 OA
BRANCH  16  18
ATOM     17  C   UNL     1       7.187   4.185  26.764  0.00  0.00    +0.048 C 
ATOM     18  C   UNL     1       6.662   3.190  25.744  0.00  0.00    +0.227 C 
ENDBRANCH  16  18
ENDBRANCH   5  16
ENDBRANCH   1   9
BRANCH   3  19
ATOM     19  C   UNL     1       9.724  -2.624  23.705  0.00  0.00    +0.135 C 
BRANCH  19  20
ATOM     20  C   UNL     1       8.511  -3.473  24.069  0.00  0.00    +0.007 A 
ATOM     21  C   UNL     1       7.934  -3.475  25.362  0.00  0.00    +0.125 A 
ATOM     22  C   UNL     1       6.874  -4.346  25.663  0.00  0.00    +0.064 A 
ATOM     23  C   UNL     1       6.333  -5.189  24.700  0.00  0.00    +0.063 A 
ATOM     24 BR   UNL     1       4.906  -6.334  25.215  0.00  0.00    -0.046 Br
ATOM     25  C   UNL     1       6.849  -5.183  23.404  0.00  0.00    +0.134 A 
ATOM     26  C   UNL     1       7.945  -4.354  23.110  0.00  0.00    +0.054 A 
BRANCH  21  27
ATOM     27  O   UNL     1       8.300  -2.781  26.483  0.00  0.00    -0.495 OA
ATOM     28  C   UNL     1       7.815  -1.478  26.731  0.00  0.00    +0.277 C 
ENDBRANCH  21  27
BRANCH  25  29
ATOM     29  O   UNL     1       6.231  -6.011  22.505  0.00  0.00    -0.494 OA
ATOM     30  C   UNL     1       6.349  -5.719  21.123  0.00  0.00    +0.277 C 
ENDBRANCH  25  29
ENDBRANCH  19  20
ENDBRANCH   3  19
TORSDOF 9
ENDMDL
MODEL 9
REMARK VINA RESULT:      -5.8      2.052      2.618
REMARK  Name = 
REMARK  12 active torsions:
REMARK  status: ('A' for Active; 'I' for Inactive)
REMARK    1  A    between atoms: C_1  and  C_2
REMARK    2  A    between atoms: C_2  and  O_3
REMARK    3  A    between atoms: O_3  and  C_4
REMARK    4  A    between atoms: C_6  and  N_7
REMARK    5  A    between atoms: C_8  and  C_10
REMARK    6  A    between atoms: C_10  and  C_11
REMARK    7  A    between atoms: C_13  and  O_14
REMARK    8  A    between atoms: O_14  and  C_15
REMARK    9  A    between atoms: C_19  and  O_20
REMARK   10  A    between atoms: O_20  and  C_21
REMARK   11  A    between atoms: C_23  and  N_24
REMARK   12  A    between atoms: C_25  and  C_26
REMARK                            x       y       z     vdW  Elec       q    Type
REMARK                         _______ _______ _______ _____ _____    ______ ____
ROOT
ATOM      1  N   UNL     1       9.282  -0.945  24.277  0.00  0.00    -0.270 N 
ATOM      2  H   UNL     1       9.647  -1.008  25.218  0.00  0.00    +0.156 HD
ATOM      3  C   UNL     1      10.072  -0.228  23.390  0.00  0.00    +0.223 C 
ATOM      4  O   UNL     1      10.202  -0.507  22.204  0.00  0.00    -0.275 OA
ENDROOT
BRANCH   1   9
ATOM      5  C   UNL     1       7.925  -4.226  24.527  0.00  0.00    +0.236 A 
ATOM      6  C   UNL     1       6.865  -4.285  23.629  0.00  0.00    +0.134 A 
ATOM      7  C   UNL     1       6.615  -3.124  22.872  0.00  0.00    +0.051 A 
ATOM      8  C   UNL     1       7.534  -2.053  22.952  0.00  0.00    +0.068 A 
ATOM      9  C   UNL     1       8.522  -2.072  23.931  0.00  0.00    +0.131 A 
ATOM     10  N   UNL     1       8.692  -3.126  24.747  0.00  0.00    -0.197 NA
BRANCH   7  11
ATOM     11  N   UNL     1       5.593  -3.078  21.904  0.00  0.00    -0.357 N 
ATOM     12  H   UNL     1       5.331  -3.979  21.504  0.00  0.00    +0.142 HD
ATOM     13  H   UNL     1       4.775  -2.543  22.175  0.00  0.00    +0.142 HD
ENDBRANCH   7  11
BRANCH   6  14
ATOM     14  C   UNL     1       6.031  -5.458  23.552  0.00  0.00    +0.106 C 
ATOM     15  N   UNL     1       5.326  -6.384  23.515  0.00  0.00    -0.191 NA
ENDBRANCH   6  14
BRANCH   5  16
ATOM     16  O   UNL     1       8.197  -5.344  25.295  0.00  0.00    -0.476 OA
BRANCH  16  18
ATOM     17  C   UNL     1       6.976  -5.380  27.353  0.00  0.00    +0.048 C 
ATOM     18  C   UNL     1       8.296  -5.029  26.691  0.00  0.00    +0.227 C 
ENDBRANCH  16  18
ENDBRANCH   5  16
ENDBRANCH   1   9
BRANCH   3  19
ATOM     19  C   UNL     1      10.778   0.972  24.036  0.00  0.00    +0.135 C 
BRANCH  19  20
ATOM     20  C   UNL     1      10.040   2.299  24.168  0.00  0.00    +0.007 A 
ATOM     21  C   UNL     1      10.573   3.526  23.700  0.00  0.00    +0.125 A 
ATOM     22  C   UNL     1       9.888   4.729  23.932  0.00  0.00    +0.064 A 
ATOM     23  C   UNL     1       8.657   4.750  24.578  0.00  0.00    +0.063 A 
ATOM     24 BR   UNL     1       7.818   6.434  24.847  0.00  0.00    -0.046 Br
ATOM     25  C   UNL     1       8.082   3.556  25.014  0.00  0.00    +0.134 A 
ATOM     26  C   UNL     1       8.787   2.354  24.834  0.00  0.00    +0.054 A 
BRANCH  21  27
ATOM     27  O   UNL     1      11.766   3.780  23.081  0.00  0.00    -0.495 OA
ATOM     28  C   UNL     1      12.455   4.996  23.287  0.00  0.00    +0.277 C 
ENDBRANCH  21  27
BRANCH  25  29
ATOM     29  O   UNL     1       6.849   3.660  25.600  0.00  0.00    -0.494 OA
ATOM     30  C   UNL     1       6.720   3.315  26.969  0.00  0.00    +0.277 C 
ENDBRANCH  25  29
ENDBRANCH  19  20
ENDBRANCH   3  19
TORSDOF 9
ENDMDL
