MODEL 1
REMARK VINA RESULT:      -5.2      0.000      0.000
REMARK  Name = 
REMARK  12 active torsions:
REMARK  status: ('A' for Active; 'I' for Inactive)
REMARK    1  A    between atoms: C_2  and  N_8
REMARK    2  A    between atoms: C_9  and  C_11
REMARK    3  A    between atoms: C_11  and  C_12
REMARK    4  A    between atoms: C_12  and  C_14
REMARK    5  A    between atoms: C_14  and  C_15
REMARK    6  A    between atoms: C_15  and  C_16
REMARK    7  A    between atoms: C_16  and  C_17
REMARK    8  A    between atoms: C_17  and  C_18
REMARK    9  A    between atoms: C_18  and  C_19
REMARK   10  A    between atoms: C_19  and  C_20
REMARK   11  A    between atoms: C_20  and  C_21
REMARK   12  A    between atoms: C_21  and  C_22
REMARK                            x       y       z     vdW  Elec       q    Type
REMARK                         _______ _______ _______ _____ _____    ______ ____
ROOT
ATOM      1  C   UNL     1       9.362  -2.473  24.388  0.00  0.00    +0.170 C 
ENDROOT
BRANCH   1   4
ATOM      2  N   UNL     1       7.496  -4.012  24.168  0.00  0.00    -0.304 N 
ATOM      3  H   UNL     1       6.954  -3.218  23.842  0.00  0.00    +0.149 HD
ATOM      4  C   UNL     1       8.854  -3.888  24.356  0.00  0.00    +0.221 C 
ATOM      5  O   UNL     1       9.594  -4.848  24.536  0.00  0.00    -0.275 OA
BRANCH   2   6
ATOM      6  C   UNL     1       6.888  -5.320  24.025  0.00  0.00    +0.160 C 
ATOM      7  C   UNL     1       6.561  -5.644  22.567  0.00  0.00    +0.233 C 
ATOM      8  O   UNL     1       7.247  -5.390  21.592  0.00  0.00    -0.274 OA
ATOM      9  N   UNL     1       5.338  -6.286  22.538  0.00  0.00    -0.314 N 
ATOM     10  H   UNL     1       4.956  -6.651  21.675  0.00  0.00    +0.149 HD
ATOM     11  C   UNL     1       4.775  -6.441  23.845  0.00  0.00    +0.106 C 
ATOM     12  C   UNL     1       5.515  -5.420  24.688  0.00  0.00    +0.050 C 
ENDBRANCH   2   6
ENDBRANCH   1   4
BRANCH   1  13
ATOM     13  C   UNL     1       9.339  -1.841  23.022  0.00  0.00    +0.142 C 
ATOM     14  O   UNL     1       8.607  -2.289  22.138  0.00  0.00    -0.297 OA
BRANCH  13  15
ATOM     15  C   UNL     1      10.212  -0.614  22.814  0.00  0.00    +0.075 C 
BRANCH  15  16
ATOM     16  C   UNL     1      10.487   0.100  24.135  0.00  0.00    +0.007 C 
BRANCH  16  17
ATOM     17  C   UNL     1      10.632   1.611  23.973  0.00  0.00    +0.000 C 
BRANCH  17  18
ATOM     18  C   UNL     1       9.989   2.063  22.658  0.00  0.00    +0.000 C 
BRANCH  18  19
ATOM     19  C   UNL     1       8.721   2.880  22.891  0.00  0.00    +0.000 C 
BRANCH  19  20
ATOM     20  C   UNL     1       7.597   2.427  21.955  0.00  0.00    -0.000 C 
BRANCH  20  21
ATOM     21  C   UNL     1       7.010   1.091  22.407  0.00  0.00    -0.000 C 
BRANCH  21  22
ATOM     22  C   UNL     1       6.466   1.171  23.831  0.00  0.00    -0.003 C 
ATOM     23  C   UNL     1       6.334  -0.215  24.446  0.00  0.00    +0.004 C 
ENDBRANCH  21  22
ENDBRANCH  20  21
ENDBRANCH  19  20
ENDBRANCH  18  19
ENDBRANCH  17  18
ENDBRANCH  16  17
ENDBRANCH  15  16
ENDBRANCH  13  15
ENDBRANCH   1  13
TORSDOF 11
ENDMDL
MODEL 2
REMARK VINA RESULT:      -5.2      2.727      6.664
REMARK  Name = 
REMARK  12 active torsions:
REMARK  status: ('A' for Active; 'I' for Inactive)
REMARK    1  A    between atoms: C_2  and  N_8
REMARK    2  A    between atoms: C_9  and  C_11
REMARK    3  A    between atoms: C_11  and  C_12
REMARK    4  A    between atoms: C_12  and  C_14
REMARK    5  A    between atoms: C_14  and  C_15
REMARK    6  A    between atoms: C_15  and  C_16
REMARK    7  A    between atoms: C_16  and  C_17
REMARK    8  A    between atoms: C_17  and  C_18
REMARK    9  A    between atoms: C_18  and  C_19
REMARK   10  A    between atoms: C_19  and  C_20
REMARK   11  A    between atoms: C_20  and  C_21
REMARK   12  A    between atoms: C_21  and  C_22
REMARK                            x       y       z     vdW  Elec       q    Type
REMARK                         _______ _______ _______ _____ _____    ______ ____
ROOT
ATOM      1  C   UNL     1       9.399  -3.064  24.160  0.00  0.00    +0.170 C 
ENDROOT
BRANCH   1   4
ATOM      2  N   UNL     1       9.891  -0.714  23.796  0.00  0.00    -0.304 N 
ATOM      3  H   UNL     1      10.850  -1.000  23.625  0.00  0.00    +0.149 HD
ATOM      4  C   UNL     1       8.903  -1.663  23.933  0.00  0.00    +0.221 C 
ATOM      5  O   UNL     1       7.708  -1.391  23.925  0.00  0.00    -0.275 OA
BRANCH   2   6
ATOM      6  C   UNL     1       9.554   0.661  23.481  0.00  0.00    +0.160 C 
ATOM      7  C   UNL     1       9.656   0.948  21.983  0.00  0.00    +0.233 C 
ATOM      8  O   UNL     1       9.312   0.211  21.075  0.00  0.00    -0.274 OA
ATOM      9  N   UNL     1      10.210   2.203  21.827  0.00  0.00    -0.314 N 
ATOM     10  H   UNL     1      10.310   2.624  20.913  0.00  0.00    +0.149 HD
ATOM     11  C   UNL     1      10.510   2.824  23.082  0.00  0.00    +0.106 C 
ATOM     12  C   UNL     1      10.541   1.670  24.066  0.00  0.00    +0.050 C 
ENDBRANCH   2   6
ENDBRANCH   1   4
BRANCH   1  13
ATOM     13  C   UNL     1       8.728  -3.709  25.344  0.00  0.00    +0.142 C 
ATOM     14  O   UNL     1       8.649  -3.112  26.419  0.00  0.00    -0.297 OA
BRANCH  13  15
ATOM     15  C   UNL     1       8.121  -5.086  25.128  0.00  0.00    +0.075 C 
BRANCH  15  16
ATOM     16  C   UNL     1       7.008  -5.363  26.136  0.00  0.00    +0.007 C 
BRANCH  16  17
ATOM     17  C   UNL     1       5.620  -5.366  25.500  0.00  0.00    +0.000 C 
BRANCH  17  18
ATOM     18  C   UNL     1       4.980  -3.980  25.626  0.00  0.00    +0.000 C 
BRANCH  18  19
ATOM     19  C   UNL     1       4.754  -3.326  24.265  0.00  0.00    +0.000 C 
BRANCH  19  20
ATOM     20  C   UNL     1       4.973  -4.332  23.132  0.00  0.00    -0.000 C 
BRANCH  20  21
ATOM     21  C   UNL     1       5.983  -3.805  22.115  0.00  0.00    -0.000 C 
BRANCH  21  22
ATOM     22  C   UNL     1       6.894  -4.917  21.601  0.00  0.00    -0.003 C 
ATOM     23  C   UNL     1       6.390  -6.284  22.039  0.00  0.00    +0.004 C 
ENDBRANCH  21  22
ENDBRANCH  20  21
ENDBRANCH  19  20
ENDBRANCH  18  19
ENDBRANCH  17  18
ENDBRANCH  16  17
ENDBRANCH  15  16
ENDBRANCH  13  15
ENDBRANCH   1  13
TORSDOF 11
ENDMDL
MODEL 3
REMARK VINA RESULT:      -5.2      1.605      2.584
REMARK  Name = 
REMARK  12 active torsions:
REMARK  status: ('A' for Active; 'I' for Inactive)
REMARK    1  A    between atoms: C_2  and  N_8
REMARK    2  A    between atoms: C_9  and  C_11
REMARK    3  A    between atoms: C_11  and  C_12
REMARK    4  A    between atoms: C_12  and  C_14
REMARK    5  A    between atoms: C_14  and  C_15
REMARK    6  A    between atoms: C_15  and  C_16
REMARK    7  A    between atoms: C_16  and  C_17
REMARK    8  A    between atoms: C_17  and  C_18
REMARK    9  A    between atoms: C_18  and  C_19
REMARK   10  A    between atoms: C_19  and  C_20
REMARK   11  A    between atoms: C_20  and  C_21
REMARK   12  A    between atoms: C_21  and  C_22
REMARK                            x       y       z     vdW  Elec       q    Type
REMARK                         _______ _______ _______ _____ _____    ______ ____
ROOT
ATOM      1  C   UNL     1       8.403  -4.162  26.412  0.00  0.00    +0.170 C 
ENDROOT
BRANCH   1   4
ATOM      2  N   UNL     1       6.702  -4.943  24.864  0.00  0.00    -0.304 N 
ATOM      3  H   UNL     1       7.133  -4.336  24.173  0.00  0.00    +0.149 HD
ATOM      4  C   UNL     1       7.313  -5.143  26.082  0.00  0.00    +0.221 C 
ATOM      5  O   UNL     1       6.967  -6.018  26.866  0.00  0.00    -0.275 OA
BRANCH   2   6
ATOM      6  C   UNL     1       5.698  -5.870  24.381  0.00  0.00    +0.160 C 
ATOM      7  C   UNL     1       5.812  -6.105  22.874  0.00  0.00    +0.233 C 
ATOM      8  O   UNL     1       6.840  -6.226  22.231  0.00  0.00    -0.274 OA
ATOM      9  N   UNL     1       4.534  -6.163  22.355  0.00  0.00    -0.314 N 
ATOM     10  H   UNL     1       4.371  -6.377  21.380  0.00  0.00    +0.149 HD
ATOM     11  C   UNL     1       3.530  -5.987  23.361  0.00  0.00    +0.106 C 
ATOM     12  C   UNL     1       4.273  -5.334  24.512  0.00  0.00    +0.050 C 
ENDBRANCH   2   6
ENDBRANCH   1   4
BRANCH   1  13
ATOM     13  C   UNL     1       9.226  -3.814  25.200  0.00  0.00    +0.142 C 
ATOM     14  O   UNL     1       9.856  -4.687  24.600  0.00  0.00    -0.297 OA
BRANCH  13  15
ATOM     15  C   UNL     1       9.194  -2.367  24.736  0.00  0.00    +0.075 C 
BRANCH  15  16
ATOM     16  C   UNL     1       9.735  -2.230  23.315  0.00  0.00    +0.007 C 
BRANCH  16  17
ATOM     17  C   UNL     1       8.779  -1.484  22.387  0.00  0.00    +0.000 C 
BRANCH  17  18
ATOM     18  C   UNL     1       9.562  -0.527  21.483  0.00  0.00    +0.000 C 
BRANCH  18  19
ATOM     19  C   UNL     1       9.022   0.899  21.554  0.00  0.00    +0.000 C 
BRANCH  19  20
ATOM     20  C   UNL     1      10.074   1.856  22.120  0.00  0.00    -0.000 C 
BRANCH  20  21
ATOM     21  C   UNL     1      10.303   1.605  23.609  0.00  0.00    -0.000 C 
BRANCH  21  22
ATOM     22  C   UNL     1       9.230   2.276  24.462  0.00  0.00    -0.003 C 
ATOM     23  C   UNL     1       8.426   1.246  25.241  0.00  0.00    +0.004 C 
ENDBRANCH  21  22
ENDBRANCH  20  21
ENDBRANCH  19  20
ENDBRANCH  18  19
ENDBRANCH  17  18
ENDBRANCH  16  17
ENDBRANCH  15  16
ENDBRANCH  13  15
ENDBRANCH   1  13
TORSDOF 11
ENDMDL
MODEL 4
REMARK VINA RESULT:      -5.1      2.059      2.966
REMARK  Name = 
REMARK  12 active torsions:
REMARK  status: ('A' for Active; 'I' for Inactive)
REMARK    1  A    between atoms: C_2  and  N_8
REMARK    2  A    between atoms: C_9  and  C_11
REMARK    3  A    between atoms: C_11  and  C_12
REMARK    4  A    between atoms: C_12  and  C_14
REMARK    5  A    between atoms: C_14  and  C_15
REMARK    6  A    between atoms: C_15  and  C_16
REMARK    7  A    between atoms: C_16  and  C_17
REMARK    8  A    between atoms: C_17  and  C_18
REMARK    9  A    between atoms: C_18  and  C_19
REMARK   10  A    between atoms: C_19  and  C_20
REMARK   11  A    between atoms: C_20  and  C_21
REMARK   12  A    between atoms: C_21  and  C_22
REMARK                            x       y       z     vdW  Elec       q    Type
REMARK                         _______ _______ _______ _____ _____    ______ ____
ROOT
ATOM      1  C   UNL     1       8.367  -2.035  22.616  0.00  0.00    +0.170 C 
ENDROOT
BRANCH   1   4
ATOM      2  N   UNL     1       7.912  -3.611  24.408  0.00  0.00    -0.304 N 
ATOM      3  H   UNL     1       8.820  -4.017  24.204  0.00  0.00    +0.149 HD
ATOM      4  C   UNL     1       7.531  -2.435  23.800  0.00  0.00    +0.221 C 
ATOM      5  O   UNL     1       6.556  -1.784  24.157  0.00  0.00    -0.275 OA
BRANCH   2   6
ATOM      6  C   UNL     1       7.250  -4.065  25.615  0.00  0.00    +0.160 C 
ATOM      7  C   UNL     1       8.196  -4.844  26.529  0.00  0.00    +0.233 C 
ATOM      8  O   UNL     1       9.364  -4.584  26.761  0.00  0.00    -0.274 OA
ATOM      9  N   UNL     1       7.495  -5.909  27.058  0.00  0.00    -0.314 N 
ATOM     10  H   UNL     1       7.911  -6.524  27.745  0.00  0.00    +0.149 HD
ATOM     11  C   UNL     1       6.140  -5.951  26.597  0.00  0.00    +0.106 C 
ATOM     12  C   UNL     1       6.150  -5.091  25.347  0.00  0.00    +0.050 C 
ENDBRANCH   2   6
ENDBRANCH   1   4
BRANCH   1  13
ATOM     13  C   UNL     1       9.745  -1.592  23.030  0.00  0.00    +0.142 C 
ATOM     14  O   UNL     1      10.727  -1.883  22.346  0.00  0.00    -0.297 OA
BRANCH  13  15
ATOM     15  C   UNL     1       9.848  -0.739  24.284  0.00  0.00    +0.075 C 
BRANCH  15  16
ATOM     16  C   UNL     1      10.742   0.477  24.053  0.00  0.00    +0.007 C 
BRANCH  16  17
ATOM     17  C   UNL     1       9.959   1.713  23.618  0.00  0.00    +0.000 C 
BRANCH  17  18
ATOM     18  C   UNL     1      10.018   1.865  22.094  0.00  0.00    +0.000 C 
BRANCH  18  19
ATOM     19  C   UNL     1       8.679   1.550  21.434  0.00  0.00    +0.000 C 
BRANCH  19  20
ATOM     20  C   UNL     1       7.523   1.753  22.417  0.00  0.00    -0.000 C 
BRANCH  20  21
ATOM     21  C   UNL     1       6.740   3.024  22.092  0.00  0.00    -0.000 C 
BRANCH  21  22
ATOM     22  C   UNL     1       7.203   4.202  22.947  0.00  0.00    -0.003 C 
ATOM     23  C   UNL     1       7.347   5.463  22.110  0.00  0.00    +0.004 C 
ENDBRANCH  21  22
ENDBRANCH  20  21
ENDBRANCH  19  20
ENDBRANCH  18  19
ENDBRANCH  17  18
ENDBRANCH  16  17
ENDBRANCH  15  16
ENDBRANCH  13  15
ENDBRANCH   1  13
TORSDOF 11
ENDMDL
MODEL 5
REMARK VINA RESULT:      -5.1      1.496      2.173
REMARK  Name = 
REMARK  12 active torsions:
REMARK  status: ('A' for Active; 'I' for Inactive)
REMARK    1  A    between atoms: C_2  and  N_8
REMARK    2  A    between atoms: C_9  and  C_11
REMARK    3  A    between atoms: C_11  and  C_12
REMARK    4  A    between atoms: C_12  and  C_14
REMARK    5  A    between atoms: C_14  and  C_15
REMARK    6  A    between atoms: C_15  and  C_16
REMARK    7  A    between atoms: C_16  and  C_17
REMARK    8  A    between atoms: C_17  and  C_18
REMARK    9  A    between atoms: C_18  and  C_19
REMARK   10  A    between atoms: C_19  and  C_20
REMARK   11  A    between atoms: C_20  and  C_21
REMARK   12  A    between atoms: C_21  and  C_22
REMARK                            x       y       z     vdW  Elec       q    Type
REMARK                         _______ _______ _______ _____ _____    ______ ____
ROOT
ATOM      1  C   UNL     1       8.872  -2.260  24.057  0.00  0.00    +0.170 C 
ENDROOT
BRANCH   1   4
ATOM      2  N   UNL     1       7.113  -3.888  23.663  0.00  0.00    -0.304 N 
ATOM      3  H   UNL     1       6.588  -3.132  23.235  0.00  0.00    +0.149 HD
ATOM      4  C   UNL     1       8.429  -3.696  24.021  0.00  0.00    +0.221 C 
ATOM      5  O   UNL     1       9.176  -4.615  24.337  0.00  0.00    -0.275 OA
BRANCH   2   6
ATOM      6  C   UNL     1       6.581  -5.227  23.499  0.00  0.00    +0.160 C 
ATOM      7  C   UNL     1       5.677  -5.338  22.271  0.00  0.00    +0.233 C 
ATOM      8  O   UNL     1       5.859  -4.821  21.183  0.00  0.00    -0.274 OA
ATOM      9  N   UNL     1       4.602  -6.138  22.606  0.00  0.00    -0.314 N 
ATOM     10  H   UNL     1       3.907  -6.400  21.919  0.00  0.00    +0.149 HD
ATOM     11  C   UNL     1       4.668  -6.597  23.960  0.00  0.00    +0.106 C 
ATOM     12  C   UNL     1       5.637  -5.640  24.627  0.00  0.00    +0.050 C 
ENDBRANCH   2   6
ENDBRANCH   1   4
BRANCH   1  13
ATOM     13  C   UNL     1       9.691  -1.898  22.847  0.00  0.00    +0.142 C 
ATOM     14  O   UNL     1      10.865  -2.259  22.757  0.00  0.00    -0.297 OA
BRANCH  13  15
ATOM     15  C   UNL     1       8.988  -1.124  21.744  0.00  0.00    +0.075 C 
BRANCH  15  16
ATOM     16  C   UNL     1       8.668   0.302  22.186  0.00  0.00    +0.007 C 
BRANCH  16  17
ATOM     17  C   UNL     1       9.804   1.280  21.899  0.00  0.00    +0.000 C 
BRANCH  17  18
ATOM     18  C   UNL     1      10.338   1.867  23.210  0.00  0.00    +0.000 C 
BRANCH  18  19
ATOM     19  C   UNL     1       9.398   1.598  24.382  0.00  0.00    +0.000 C 
BRANCH  19  20
ATOM     20  C   UNL     1       8.661   2.874  24.797  0.00  0.00    -0.000 C 
BRANCH  20  21
ATOM     21  C   UNL     1       9.237   4.098  24.087  0.00  0.00    -0.000 C 
BRANCH  21  22
ATOM     22  C   UNL     1       8.138   4.945  23.450  0.00  0.00    -0.003 C 
ATOM     23  C   UNL     1       7.373   4.152  22.402  0.00  0.00    +0.004 C 
ENDBRANCH  21  22
ENDBRANCH  20  21
ENDBRANCH  19  20
ENDBRANCH  18  19
ENDBRANCH  17  18
ENDBRANCH  16  17
ENDBRANCH  15  16
ENDBRANCH  13  15
ENDBRANCH   1  13
TORSDOF 11
ENDMDL
MODEL 6
REMARK VINA RESULT:      -5.0      2.549      7.035
REMARK  Name = 
REMARK  12 active torsions:
REMARK  status: ('A' for Active; 'I' for Inactive)
REMARK    1  A    between atoms: C_2  and  N_8
REMARK    2  A    between atoms: C_9  and  C_11
REMARK    3  A    between atoms: C_11  and  C_12
REMARK    4  A    between atoms: C_12  and  C_14
REMARK    5  A    between atoms: C_14  and  C_15
REMARK    6  A    between atoms: C_15  and  C_16
REMARK    7  A    between atoms: C_16  and  C_17
REMARK    8  A    between atoms: C_17  and  C_18
REMARK    9  A    between atoms: C_18  and  C_19
REMARK   10  A    between atoms: C_19  and  C_20
REMARK   11  A    between atoms: C_20  and  C_21
REMARK   12  A    between atoms: C_21  and  C_22
REMARK                            x       y       z     vdW  Elec       q    Type
REMARK                         _______ _______ _______ _____ _____    ______ ____
ROOT
ATOM      1  C   UNL     1       8.330  -3.335  23.993  0.00  0.00    +0.170 C 
ENDROOT
BRANCH   1   4
ATOM      2  N   UNL     1       9.030  -1.118  23.290  0.00  0.00    -0.304 N 
ATOM      3  H   UNL     1       8.145  -0.784  23.657  0.00  0.00    +0.149 HD
ATOM      4  C   UNL     1       9.421  -2.419  23.512  0.00  0.00    +0.221 C 
ATOM      5  O   UNL     1      10.556  -2.823  23.288  0.00  0.00    -0.275 OA
BRANCH   2   6
ATOM      6  C   UNL     1      10.002  -0.110  22.913  0.00  0.00    +0.160 C 
ATOM      7  C   UNL     1      10.436   0.743  24.105  0.00  0.00    +0.233 C 
ATOM      8  O   UNL     1      10.652   0.353  25.239  0.00  0.00    -0.274 OA
ATOM      9  N   UNL     1      10.546   2.050  23.675  0.00  0.00    -0.314 N 
ATOM     10  H   UNL     1      10.886   2.779  24.288  0.00  0.00    +0.149 HD
ATOM     11  C   UNL     1      10.227   2.194  22.286  0.00  0.00    +0.106 C 
ATOM     12  C   UNL     1       9.436   0.941  21.959  0.00  0.00    +0.050 C 
ENDBRANCH   2   6
ENDBRANCH   1   4
BRANCH   1  13
ATOM     13  C   UNL     1       8.468  -3.645  25.460  0.00  0.00    +0.142 C 
ATOM     14  O   UNL     1       8.606  -2.736  26.281  0.00  0.00    -0.297 OA
BRANCH  13  15
ATOM     15  C   UNL     1       8.379  -5.106  25.869  0.00  0.00    +0.075 C 
BRANCH  15  16
ATOM     16  C   UNL     1       7.463  -5.287  27.077  0.00  0.00    +0.007 C 
BRANCH  16  17
ATOM     17  C   UNL     1       5.997  -5.005  26.757  0.00  0.00    +0.000 C 
BRANCH  17  18
ATOM     18  C   UNL     1       5.277  -6.308  26.396  0.00  0.00    +0.000 C 
BRANCH  18  19
ATOM     19  C   UNL     1       4.887  -6.358  24.921  0.00  0.00    +0.000 C 
BRANCH  19  20
ATOM     20  C   UNL     1       4.739  -4.947  24.346  0.00  0.00    -0.000 C 
BRANCH  20  21
ATOM     21  C   UNL     1       5.139  -4.908  22.872  0.00  0.00    -0.000 C 
BRANCH  21  22
ATOM     22  C   UNL     1       5.952  -6.139  22.480  0.00  0.00    -0.003 C 
ATOM     23  C   UNL     1       7.067  -5.774  21.511  0.00  0.00    +0.004 C 
ENDBRANCH  21  22
ENDBRANCH  20  21
ENDBRANCH  19  20
ENDBRANCH  18  19
ENDBRANCH  17  18
ENDBRANCH  16  17
ENDBRANCH  15  16
ENDBRANCH  13  15
ENDBRANCH   1  13
TORSDOF 11
ENDMDL
MODEL 7
REMARK VINA RESULT:      -5.0      1.646      2.071
REMARK  Name = 
REMARK  12 active torsions:
REMARK  status: ('A' for Active; 'I' for Inactive)
REMARK    1  A    between atoms: C_2  and  N_8
REMARK    2  A    between atoms: C_9  and  C_11
REMARK    3  A    between atoms: C_11  and  C_12
REMARK    4  A    between atoms: C_12  and  C_14
REMARK    5  A    between atoms: C_14  and  C_15
REMARK    6  A    between atoms: C_15  and  C_16
REMARK    7  A    between atoms: C_16  and  C_17
REMARK    8  A    between atoms: C_17  and  C_18
REMARK    9  A    between atoms: C_18  and  C_19
REMARK   10  A    between atoms: C_19  and  C_20
REMARK   11  A    between atoms: C_20  and  C_21
REMARK   12  A    between atoms: C_21  and  C_22
REMARK                            x       y       z     vdW  Elec       q    Type
REMARK                         _______ _______ _______ _____ _____    ______ ____
ROOT
ATOM      1  C   UNL     1       9.830  -2.279  23.751  0.00  0.00    +0.170 C 
ENDROOT
BRANCH   1   4
ATOM      2  N   UNL     1       8.145  -3.435  25.064  0.00  0.00    -0.304 N 
ATOM      3  H   UNL     1       7.503  -2.700  24.782  0.00  0.00    +0.149 HD
ATOM      4  C   UNL     1       9.398  -3.510  24.497  0.00  0.00    +0.221 C 
ATOM      5  O   UNL     1      10.132  -4.482  24.628  0.00  0.00    -0.275 OA
BRANCH   2   6
ATOM      6  C   UNL     1       7.567  -4.584  25.732  0.00  0.00    +0.160 C 
ATOM      7  C   UNL     1       6.489  -5.258  24.885  0.00  0.00    +0.233 C 
ATOM      8  O   UNL     1       6.518  -5.443  23.680  0.00  0.00    -0.274 OA
ATOM      9  N   UNL     1       5.459  -5.633  25.725  0.00  0.00    -0.314 N 
ATOM     10  H   UNL     1       4.665  -6.158  25.383  0.00  0.00    +0.149 HD
ATOM     11  C   UNL     1       5.716  -5.280  27.089  0.00  0.00    +0.106 C 
ATOM     12  C   UNL     1       6.793  -4.216  26.998  0.00  0.00    +0.050 C 
ENDBRANCH   2   6
ENDBRANCH   1   4
BRANCH   1  13
ATOM     13  C   UNL     1       9.012  -2.064  22.506  0.00  0.00    +0.142 C 
ATOM     14  O   UNL     1       8.058  -2.802  22.250  0.00  0.00    -0.297 OA
BRANCH  13  15
ATOM     15  C   UNL     1       9.386  -0.881  21.628  0.00  0.00    +0.075 C 
BRANCH  15  16
ATOM     16  C   UNL     1      10.153   0.175  22.421  0.00  0.00    +0.007 C 
BRANCH  16  17
ATOM     17  C   UNL     1       9.854   1.598  21.956  0.00  0.00    +0.000 C 
BRANCH  17  18
ATOM     18  C   UNL     1       8.341   1.830  21.908  0.00  0.00    +0.000 C 
BRANCH  18  19
ATOM     19  C   UNL     1       7.755   2.080  23.295  0.00  0.00    +0.000 C 
BRANCH  19  20
ATOM     20  C   UNL     1       6.558   1.164  23.557  0.00  0.00    -0.000 C 
BRANCH  20  21
ATOM     21  C   UNL     1       6.915   0.063  24.554  0.00  0.00    -0.000 C 
BRANCH  21  22
ATOM     22  C   UNL     1       8.044   0.496  25.486  0.00  0.00    -0.003 C 
ATOM     23  C   UNL     1       8.027  -0.308  26.778  0.00  0.00    +0.004 C 
ENDBRANCH  21  22
ENDBRANCH  20  21
ENDBRANCH  19  20
ENDBRANCH  18  19
ENDBRANCH  17  18
ENDBRANCH  16  17
ENDBRANCH  15  16
ENDBRANCH  13  15
ENDBRANCH   1  13
TORSDOF 11
ENDMDL
MODEL 8
REMARK VINA RESULT:      -4.9      2.362      3.625
REMARK  Name = 
REMARK  12 active torsions:
REMARK  status: ('A' for Active; 'I' for Inactive)
REMARK    1  A    between atoms: C_2  and  N_8
REMARK    2  A    between atoms: C_9  and  C_11
REMARK    3  A    between atoms: C_11  and  C_12
REMARK    4  A    between atoms: C_12  and  C_14
REMARK    5  A    between atoms: C_14  and  C_15
REMARK    6  A    between atoms: C_15  and  C_16
REMARK    7  A    between atoms: C_16  and  C_17
REMARK    8  A    between atoms: C_17  and  C_18
REMARK    9  A    between atoms: C_18  and  C_19
REMARK   10  A    between atoms: C_19  and  C_20
REMARK   11  A    between atoms: C_20  and  C_21
REMARK   12  A    between atoms: C_21  and  C_22
REMARK                            x       y       z     vdW  Elec       q    Type
REMARK                         _______ _______ _______ _____ _____    ______ ____
ROOT
ATOM      1  C   UNL     1       6.373  -0.396  24.739  0.00  0.00    +0.170 C 
ENDROOT
BRANCH   1   4
ATOM      2  N   UNL     1       7.280  -2.541  25.429  0.00  0.00    -0.304 N 
ATOM      3  H   UNL     1       7.253  -2.183  26.378  0.00  0.00    +0.149 HD
ATOM      4  C   UNL     1       6.699  -1.825  24.405  0.00  0.00    +0.221 C 
ATOM      5  O   UNL     1       6.506  -2.292  23.289  0.00  0.00    -0.275 OA
BRANCH   2   6
ATOM      6  C   UNL     1       7.561  -3.955  25.272  0.00  0.00    +0.160 C 
ATOM      7  C   UNL     1       7.618  -4.680  26.617  0.00  0.00    +0.233 C 
ATOM      8  O   UNL     1       6.885  -4.500  27.574  0.00  0.00    -0.274 OA
ATOM      9  N   UNL     1       8.654  -5.591  26.565  0.00  0.00    -0.314 N 
ATOM     10  H   UNL     1       8.832  -6.230  27.329  0.00  0.00    +0.149 HD
ATOM     11  C   UNL     1       9.333  -5.570  25.305  0.00  0.00    +0.106 C 
ATOM     12  C   UNL     1       8.952  -4.231  24.703  0.00  0.00    +0.050 C 
ENDBRANCH   2   6
ENDBRANCH   1   4
BRANCH   1  13
ATOM     13  C   UNL     1       7.286   0.151  25.804  0.00  0.00    +0.142 C 
ATOM     14  O   UNL     1       7.041  -0.042  26.996  0.00  0.00    -0.297 OA
BRANCH  13  15
ATOM     15  C   UNL     1       8.528   0.892  25.335  0.00  0.00    +0.075 C 
BRANCH  15  16
ATOM     16  C   UNL     1       9.748  -0.025  25.324  0.00  0.00    +0.007 C 
BRANCH  16  17
ATOM     17  C   UNL     1      10.582   0.114  24.053  0.00  0.00    +0.000 C 
BRANCH  17  18
ATOM     18  C   UNL     1       9.991  -0.754  22.938  0.00  0.00    +0.000 C 
BRANCH  18  19
ATOM     19  C   UNL     1       9.438   0.087  21.790  0.00  0.00    +0.000 C 
BRANCH  19  20
ATOM     20  C   UNL     1       9.933   1.533  21.882  0.00  0.00    -0.000 C 
BRANCH  20  21
ATOM     21  C   UNL     1       8.769   2.502  22.077  0.00  0.00    -0.000 C 
BRANCH  21  22
ATOM     22  C   UNL     1       7.424   1.816  21.846  0.00  0.00    -0.003 C 
ATOM     23  C   UNL     1       6.295   2.586  22.514  0.00  0.00    +0.004 C 
ENDBRANCH  21  22
ENDBRANCH  20  21
ENDBRANCH  19  20
ENDBRANCH  18  19
ENDBRANCH  17  18
ENDBRANCH  16  17
ENDBRANCH  15  16
ENDBRANCH  13  15
ENDBRANCH   1  13
TORSDOF 11
ENDMDL
MODEL 9
REMARK VINA RESULT:      -4.9      2.221      3.787
REMARK  Name = 
REMARK  12 active torsions:
REMARK  status: ('A' for Active; 'I' for Inactive)
REMARK    1  A    between atoms: C_2  and  N_8
REMARK    2  A    between atoms: C_9  and  C_11
REMARK    3  A    between atoms: C_11  and  C_12
REMARK    4  A    between atoms: C_12  and  C_14
REMARK    5  A    between atoms: C_14  and  C_15
REMARK    6  A    between atoms: C_15  and  C_16
REMARK    7  A    between atoms: C_16  and  C_17
REMARK    8  A    between atoms: C_17  and  C_18
REMARK    9  A    between atoms: C_18  and  C_19
REMARK   10  A    between atoms: C_19  and  C_20
REMARK   11  A    between atoms: C_20  and  C_21
REMARK   12  A    between atoms: C_21  and  C_22
REMARK                            x       y       z     vdW  Elec       q    Type
REMARK                         _______ _______ _______ _____ _____    ______ ____
ROOT
ATOM      1  C   UNL     1      10.597  -0.131  23.280  0.00  0.00    +0.170 C 
ENDROOT
BRANCH   1   4
ATOM      2  N   UNL     1       9.132  -2.027  23.677  0.00  0.00    -0.304 N 
ATOM      3  H   UNL     1       9.527  -2.436  22.835  0.00  0.00    +0.149 HD
ATOM      4  C   UNL     1       9.674  -0.876  24.204  0.00  0.00    +0.221 C 
ATOM      5  O   UNL     1       9.392  -0.454  25.319  0.00  0.00    -0.275 OA
BRANCH   2   6
ATOM      6  C   UNL     1       8.299  -2.890  24.492  0.00  0.00    +0.160 C 
ATOM      7  C   UNL     1       8.885  -4.296  24.623  0.00  0.00    +0.233 C 
ATOM      8  O   UNL     1      10.060  -4.585  24.770  0.00  0.00    -0.274 OA
ATOM      9  N   UNL     1       7.843  -5.199  24.550  0.00  0.00    -0.314 N 
ATOM     10  H   UNL     1       7.996  -6.191  24.680  0.00  0.00    +0.149 HD
ATOM     11  C   UNL     1       6.577  -4.555  24.376  0.00  0.00    +0.106 C 
ATOM     12  C   UNL     1       6.934  -3.172  23.865  0.00  0.00    +0.050 C 
ENDBRANCH   2   6
ENDBRANCH   1   4
BRANCH   1  13
ATOM     13  C   UNL     1       9.875   0.376  22.060  0.00  0.00    +0.142 C 
ATOM     14  O   UNL     1       9.387  -0.414  21.249  0.00  0.00    -0.297 OA
BRANCH  13  15
ATOM     15  C   UNL     1       9.739   1.883  21.913  0.00  0.00    +0.075 C 
BRANCH  15  16
ATOM     16  C   UNL     1       8.280   2.319  22.015  0.00  0.00    +0.007 C 
BRANCH  16  17
ATOM     17  C   UNL     1       7.857   2.645  23.445  0.00  0.00    +0.000 C 
BRANCH  17  18
ATOM     18  C   UNL     1       8.998   3.353  24.183  0.00  0.00    +0.000 C 
BRANCH  18  19
ATOM     19  C   UNL     1       8.481   4.382  25.184  0.00  0.00    +0.000 C 
BRANCH  19  20
ATOM     20  C   UNL     1       9.239   5.705  25.051  0.00  0.00    -0.000 C 
BRANCH  20  21
ATOM     21  C   UNL     1       9.359   6.126  23.588  0.00  0.00    -0.000 C 
BRANCH  21  22
ATOM     22  C   UNL     1       8.099   6.843  23.106  0.00  0.00    -0.003 C 
ATOM     23  C   UNL     1       7.438   6.082  21.968  0.00  0.00    +0.004 C 
ENDBRANCH  21  22
ENDBRANCH  20  21
ENDBRANCH  19  20
ENDBRANCH  18  19
ENDBRANCH  17  18
ENDBRANCH  16  17
ENDBRANCH  15  16
ENDBRANCH  13  15
ENDBRANCH   1  13
TORSDOF 11
ENDMDL
