MODEL 1
REMARK VINA RESULT:      -6.7      0.000      0.000
REMARK  Name = 
REMARK  17 active torsions:
REMARK  status: ('A' for Active; 'I' for Inactive)
REMARK    1  A    between atoms: N_1  and  C_2
REMARK    2  A    between atoms: C_2  and  C_3
REMARK    3  A    between atoms: C_6  and  O_8
REMARK    4  A    between atoms: O_8  and  C_9
REMARK    5  A    between atoms: C_11  and  N_13
REMARK    6  A    between atoms: C_15  and  N_17
REMARK    7  A    between atoms: C_18  and  O_20
REMARK    8  A    between atoms: O_20  and  C_21
REMARK    9  A    between atoms: C_24  and  C_26
REMARK   10  A    between atoms: C_26  and  O_27
REMARK   11  A    between atoms: C_28  and  O_30
REMARK   12  A    between atoms: C_31  and  N_33
REMARK   13  A    between atoms: C_34  and  O_36
REMARK   14  A    between atoms: C_37  and  O_39
REMARK   15  A    between atoms: C_40  and  O_42
REMARK   16  A    between atoms: C_43  and  O_45
REMARK   17  A    between atoms: C_46  and  O_48
REMARK                            x       y       z     vdW  Elec       q    Type
REMARK                         _______ _______ _______ _____ _____    ______ ____
ROOT
ATOM      1  C   UNL     1       7.956   1.086  22.507  0.00  0.00    +0.169 C 
ATOM      2  C   UNL     1       7.161  -0.235  22.733  0.00  0.00    +0.175 C 
ATOM      3  C   UNL     1       7.985  -1.452  23.252  0.00  0.00    +0.169 C 
ATOM      4  C   UNL     1       9.344  -1.605  22.519  0.00  0.00    +0.084 C 
ATOM      5  C   UNL     1      10.100  -0.286  22.421  0.00  0.00    +0.042 C 
ATOM      6  C   UNL     1       9.268   0.788  21.734  0.00  0.00    +0.084 C 
ENDROOT
BRANCH   6   7
ATOM      7  N   UNL     1      10.115   1.985  21.595  0.00  0.00    -0.325 NA
ATOM      8  H   UNL     1       9.955   2.418  20.685  0.00  0.00    +0.119 HD
ATOM      9  H   UNL     1       9.824   2.668  22.295  0.00  0.00    +0.119 HD
ENDBRANCH   6   7
BRANCH   4  10
ATOM     10  N   UNL     1      10.252  -2.560  23.180  0.00  0.00    -0.325 NA
ATOM     11  H   UNL     1      10.188  -2.485  24.193  0.00  0.00    +0.119 HD
ATOM     12  H   UNL     1      10.007  -3.519  22.933  0.00  0.00    +0.119 HD
ENDBRANCH   4  10
BRANCH   2  13
ATOM     13  O   UNL     1       6.078  -0.049  23.665  0.00  0.00    -0.387 OA
ATOM     14  H   UNL     1       5.339  -0.670  23.479  0.00  0.00    +0.210 HD
ENDBRANCH   2  13
BRANCH   3  15
ATOM     15  O   UNL     1       7.137  -2.636  23.082  0.00  0.00    -0.341 OA
BRANCH  15  16
ATOM     16  C   UNL     1       7.823  -3.889  23.240  0.00  0.00    +0.281 C 
ATOM     17  C   UNL     1       7.008  -5.093  22.695  0.00  0.00    +0.189 C 
ATOM     18  C   UNL     1       5.843  -5.471  23.626  0.00  0.00    +0.116 C 
ATOM     19  C   UNL     1       6.319  -5.564  25.091  0.00  0.00    +0.165 C 
ATOM     20  C   UNL     1       7.086  -4.284  25.463  0.00  0.00    +0.177 C 
ATOM     21  O   UNL     1       8.215  -4.106  24.598  0.00  0.00    -0.341 OA
BRANCH  18  22
ATOM     22  N   UNL     1       5.192  -6.742  23.219  0.00  0.00    -0.323 NA
ATOM     23  H   UNL     1       4.514  -7.022  23.928  0.00  0.00    +0.119 HD
ATOM     24  H   UNL     1       4.638  -6.532  22.383  0.00  0.00    +0.119 HD
ENDBRANCH  18  22
BRANCH  17  25
ATOM     25  O   UNL     1       6.559  -4.849  21.356  0.00  0.00    -0.385 OA
ATOM     26  H   UNL     1       5.857  -5.500  21.180  0.00  0.00    +0.210 HD
ENDBRANCH  17  25
BRANCH  19  27
ATOM     27  O   UNL     1       5.175  -5.778  25.926  0.00  0.00    -0.388 OA
ATOM     28  H   UNL     1       5.394  -5.423  26.814  0.00  0.00    +0.210 HD
ENDBRANCH  19  27
BRANCH  20  29
ATOM     29  C   UNL     1       7.616  -4.331  26.896  0.00  0.00    +0.190 C 
BRANCH  29  30
ATOM     30  O   UNL     1       7.872  -5.673  27.303  0.00  0.00    -0.392 OA
ATOM     31  H   UNL     1       7.004  -6.082  27.481  0.00  0.00    +0.210 HD
ENDBRANCH  29  30
ENDBRANCH  20  29
ENDBRANCH  15  16
ENDBRANCH   3  15
BRANCH   1  32
ATOM     32  O   UNL     1       7.236   2.066  21.703  0.00  0.00    -0.341 OA
BRANCH  32  37
ATOM     33  C   UNL     1       5.866   3.744  24.665  0.00  0.00    +0.166 C 
ATOM     34  C   UNL     1       6.306   5.207  24.405  0.00  0.00    +0.176 C 
ATOM     35  C   UNL     1       6.363   5.532  22.900  0.00  0.00    +0.179 C 
ATOM     36  C   UNL     1       7.130   4.445  22.135  0.00  0.00    +0.201 C 
ATOM     37  C   UNL     1       6.514   3.059  22.447  0.00  0.00    +0.282 C 
ATOM     38  O   UNL     1       6.583   2.794  23.843  0.00  0.00    -0.342 OA
BRANCH  34  39
ATOM     39  O   UNL     1       7.570   5.454  25.041  0.00  0.00    -0.387 OA
ATOM     40  H   UNL     1       7.408   5.666  25.981  0.00  0.00    +0.210 HD
ENDBRANCH  34  39
BRANCH  35  41
ATOM     41  O   UNL     1       5.032   5.666  22.395  0.00  0.00    -0.386 OA
ATOM     42  H   UNL     1       4.975   5.188  21.549  0.00  0.00    +0.210 HD
ENDBRANCH  35  41
BRANCH  36  43
ATOM     43  O   UNL     1       8.519   4.512  22.495  0.00  0.00    -0.384 OA
ATOM     44  H   UNL     1       8.776   5.447  22.364  0.00  0.00    +0.210 HD
ENDBRANCH  36  43
BRANCH  33  45
ATOM     45  C   UNL     1       4.330   3.575  24.534  0.00  0.00    +0.112 C 
BRANCH  45  46
ATOM     46  N   UNL     1       3.932   2.158  24.476  0.00  0.00    -0.328 NA
ATOM     47  H   UNL     1       2.941   2.110  24.236  0.00  0.00    +0.118 HD
ATOM     48  H   UNL     1       4.436   1.725  23.700  0.00  0.00    +0.118 HD
ENDBRANCH  45  46
ENDBRANCH  33  45
ENDBRANCH  32  37
ENDBRANCH   1  32
TORSDOF 17
ENDMDL
MODEL 2
REMARK VINA RESULT:      -6.7      2.287      3.310
REMARK  Name = 
REMARK  17 active torsions:
REMARK  status: ('A' for Active; 'I' for Inactive)
REMARK    1  A    between atoms: N_1  and  C_2
REMARK    2  A    between atoms: C_2  and  C_3
REMARK    3  A    between atoms: C_6  and  O_8
REMARK    4  A    between atoms: O_8  and  C_9
REMARK    5  A    between atoms: C_11  and  N_13
REMARK    6  A    between atoms: C_15  and  N_17
REMARK    7  A    between atoms: C_18  and  O_20
REMARK    8  A    between atoms: O_20  and  C_21
REMARK    9  A    between atoms: C_24  and  C_26
REMARK   10  A    between atoms: C_26  and  O_27
REMARK   11  A    between atoms: C_28  and  O_30
REMARK   12  A    between atoms: C_31  and  N_33
REMARK   13  A    between atoms: C_34  and  O_36
REMARK   14  A    between atoms: C_37  and  O_39
REMARK   15  A    between atoms: C_40  and  O_42
REMARK   16  A    between atoms: C_43  and  O_45
REMARK   17  A    between atoms: C_46  and  O_48
REMARK                            x       y       z     vdW  Elec       q    Type
REMARK                         _______ _______ _______ _____ _____    ______ ____
ROOT
ATOM      1  C   UNL     1       8.083  -0.935  23.473  0.00  0.00    +0.169 C 
ATOM      2  C   UNL     1       7.166  -1.864  24.326  0.00  0.00    +0.175 C 
ATOM      3  C   UNL     1       7.884  -2.995  25.121  0.00  0.00    +0.169 C 
ATOM      4  C   UNL     1       8.969  -3.717  24.279  0.00  0.00    +0.084 C 
ATOM      5  C   UNL     1       9.882  -2.738  23.550  0.00  0.00    +0.042 C 
ATOM      6  C   UNL     1       9.091  -1.791  22.659  0.00  0.00    +0.084 C 
ENDROOT
BRANCH   6   7
ATOM      7  N   UNL     1      10.059  -0.959  21.924  0.00  0.00    -0.325 NA
ATOM      8  H   UNL     1      10.323  -0.154  22.492  0.00  0.00    +0.119 HD
ATOM      9  H   UNL     1      10.910  -1.505  21.783  0.00  0.00    +0.119 HD
ENDBRANCH   6   7
BRANCH   4  10
ATOM     10  N   UNL     1       9.846  -4.582  25.088  0.00  0.00    -0.325 NA
ATOM     11  H   UNL     1       9.360  -5.429  25.377  0.00  0.00    +0.119 HD
ATOM     12  H   UNL     1      10.662  -4.874  24.548  0.00  0.00    +0.119 HD
ENDBRANCH   4  10
BRANCH   2  13
ATOM     13  O   UNL     1       6.400  -1.112  25.286  0.00  0.00    -0.387 OA
ATOM     14  H   UNL     1       6.814  -1.147  26.177  0.00  0.00    +0.210 HD
ENDBRANCH   2  13
BRANCH   3  15
ATOM     15  O   UNL     1       6.839  -3.919  25.571  0.00  0.00    -0.341 OA
BRANCH  15  16
ATOM     16  C   UNL     1       6.550  -3.853  26.978  0.00  0.00    +0.281 C 
ATOM     17  C   UNL     1       6.671  -5.232  27.682  0.00  0.00    +0.189 C 
ATOM     18  C   UNL     1       5.485  -6.155  27.354  0.00  0.00    +0.116 C 
ATOM     19  C   UNL     1       4.146  -5.408  27.523  0.00  0.00    +0.165 C 
ATOM     20  C   UNL     1       4.197  -4.081  26.747  0.00  0.00    +0.177 C 
ATOM     21  O   UNL     1       5.272  -3.262  27.225  0.00  0.00    -0.341 OA
BRANCH  18  22
ATOM     22  N   UNL     1       5.490  -7.388  28.182  0.00  0.00    -0.323 NA
ATOM     23  H   UNL     1       6.247  -7.339  28.864  0.00  0.00    +0.119 HD
ATOM     24  H   UNL     1       4.627  -7.372  28.734  0.00  0.00    +0.119 HD
ENDBRANCH  18  22
BRANCH  17  25
ATOM     25  O   UNL     1       7.926  -5.855  27.382  0.00  0.00    -0.385 OA
ATOM     26  H   UNL     1       7.774  -6.816  27.435  0.00  0.00    +0.210 HD
ENDBRANCH  17  25
BRANCH  19  27
ATOM     27  O   UNL     1       3.090  -6.264  27.072  0.00  0.00    -0.388 OA
ATOM     28  H   UNL     1       2.350  -6.172  27.710  0.00  0.00    +0.210 HD
ENDBRANCH  19  27
BRANCH  20  29
ATOM     29  C   UNL     1       2.908  -3.276  26.906  0.00  0.00    +0.190 C 
BRANCH  29  30
ATOM     30  O   UNL     1       2.844  -2.219  25.951  0.00  0.00    -0.392 OA
ATOM     31  H   UNL     1       1.989  -2.311  25.489  0.00  0.00    +0.210 HD
ENDBRANCH  29  30
ENDBRANCH  20  29
ENDBRANCH  15  16
ENDBRANCH   3  15
BRANCH   1  32
ATOM     32  O   UNL     1       7.354  -0.141  22.492  0.00  0.00    -0.341 OA
BRANCH  32  37
ATOM     33  C   UNL     1       7.696   2.934  24.465  0.00  0.00    +0.166 C 
ATOM     34  C   UNL     1       8.042   3.958  23.356  0.00  0.00    +0.176 C 
ATOM     35  C   UNL     1       7.382   3.597  22.012  0.00  0.00    +0.179 C 
ATOM     36  C   UNL     1       7.614   2.119  21.669  0.00  0.00    +0.201 C 
ATOM     37  C   UNL     1       7.145   1.233  22.848  0.00  0.00    +0.282 C 
ATOM     38  O   UNL     1       7.865   1.564  24.029  0.00  0.00    -0.342 OA
BRANCH  34  39
ATOM     39  O   UNL     1       9.469   4.068  23.225  0.00  0.00    -0.387 OA
ATOM     40  H   UNL     1       9.694   5.006  23.068  0.00  0.00    +0.210 HD
ENDBRANCH  34  39
BRANCH  35  41
ATOM     41  O   UNL     1       5.984   3.889  22.079  0.00  0.00    -0.386 OA
ATOM     42  H   UNL     1       5.819   4.422  22.877  0.00  0.00    +0.210 HD
ENDBRANCH  35  41
BRANCH  36  43
ATOM     43  O   UNL     1       9.005   1.923  21.366  0.00  0.00    -0.384 OA
ATOM     44  H   UNL     1       9.021   1.311  20.602  0.00  0.00    +0.210 HD
ENDBRANCH  36  43
BRANCH  33  45
ATOM     45  C   UNL     1       6.282   3.179  25.053  0.00  0.00    +0.112 C 
BRANCH  45  46
ATOM     46  N   UNL     1       5.952   4.613  25.119  0.00  0.00    -0.328 NA
ATOM     47  H   UNL     1       4.964   4.729  24.892  0.00  0.00    +0.118 HD
ATOM     48  H   UNL     1       6.059   4.912  26.091  0.00  0.00    +0.118 HD
ENDBRANCH  45  46
ENDBRANCH  33  45
ENDBRANCH  32  37
ENDBRANCH   1  32
TORSDOF 17
ENDMDL
MODEL 3
REMARK VINA RESULT:      -6.6      1.419      2.144
REMARK  Name = 
REMARK  17 active torsions:
REMARK  status: ('A' for Active; 'I' for Inactive)
REMARK    1  A    between atoms: N_1  and  C_2
REMARK    2  A    between atoms: C_2  and  C_3
REMARK    3  A    between atoms: C_6  and  O_8
REMARK    4  A    between atoms: O_8  and  C_9
REMARK    5  A    between atoms: C_11  and  N_13
REMARK    6  A    between atoms: C_15  and  N_17
REMARK    7  A    between atoms: C_18  and  O_20
REMARK    8  A    between atoms: O_20  and  C_21
REMARK    9  A    between atoms: C_24  and  C_26
REMARK   10  A    between atoms: C_26  and  O_27
REMARK   11  A    between atoms: C_28  and  O_30
REMARK   12  A    between atoms: C_31  and  N_33
REMARK   13  A    between atoms: C_34  and  O_36
REMARK   14  A    between atoms: C_37  and  O_39
REMARK   15  A    between atoms: C_40  and  O_42
REMARK   16  A    between atoms: C_43  and  O_45
REMARK   17  A    between atoms: C_46  and  O_48
REMARK                            x       y       z     vdW  Elec       q    Type
REMARK                         _______ _______ _______ _____ _____    ______ ____
ROOT
ATOM      1  C   UNL     1       7.752   1.295  22.619  0.00  0.00    +0.169 C 
ATOM      2  C   UNL     1       6.976  -0.032  22.877  0.00  0.00    +0.175 C 
ATOM      3  C   UNL     1       7.843  -1.278  23.226  0.00  0.00    +0.169 C 
ATOM      4  C   UNL     1       9.098  -1.401  22.321  0.00  0.00    +0.084 C 
ATOM      5  C   UNL     1       9.852  -0.083  22.195  0.00  0.00    +0.042 C 
ATOM      6  C   UNL     1       8.953   1.030  21.673  0.00  0.00    +0.084 C 
ENDROOT
BRANCH   6   7
ATOM      7  N   UNL     1       9.790   2.227  21.489  0.00  0.00    -0.325 NA
ATOM      8  H   UNL     1      10.743   1.949  21.248  0.00  0.00    +0.119 HD
ATOM      9  H   UNL     1       9.432   2.750  20.690  0.00  0.00    +0.119 HD
ENDBRANCH   6   7
BRANCH   4  10
ATOM     10  N   UNL     1      10.070  -2.393  22.814  0.00  0.00    -0.325 NA
ATOM     11  H   UNL     1      11.023  -2.120  22.581  0.00  0.00    +0.119 HD
ATOM     12  H   UNL     1      10.020  -2.473  23.830  0.00  0.00    +0.119 HD
ENDBRANCH   4  10
BRANCH   2  13
ATOM     13  O   UNL     1       6.020   0.113  23.946  0.00  0.00    -0.387 OA
ATOM     14  H   UNL     1       6.464   0.101  24.823  0.00  0.00    +0.210 HD
ENDBRANCH   2  13
BRANCH   3  15
ATOM     15  O   UNL     1       6.967  -2.447  23.106  0.00  0.00    -0.341 OA
BRANCH  15  16
ATOM     16  C   UNL     1       7.656  -3.705  23.035  0.00  0.00    +0.281 C 
ATOM     17  C   UNL     1       6.756  -4.856  22.509  0.00  0.00    +0.189 C 
ATOM     18  C   UNL     1       5.744  -5.328  23.567  0.00  0.00    +0.116 C 
ATOM     19  C   UNL     1       6.438  -5.559  24.926  0.00  0.00    +0.165 C 
ATOM     20  C   UNL     1       7.265  -4.317  25.297  0.00  0.00    +0.177 C 
ATOM     21  O   UNL     1       8.250  -4.051  24.290  0.00  0.00    -0.341 OA
BRANCH  18  22
ATOM     22  N   UNL     1       5.026  -6.557  23.145  0.00  0.00    -0.323 NA
ATOM     23  H   UNL     1       5.534  -7.007  22.384  0.00  0.00    +0.119 HD
ATOM     24  H   UNL     1       5.081  -7.212  23.932  0.00  0.00    +0.119 HD
ENDBRANCH  18  22
BRANCH  17  25
ATOM     25  O   UNL     1       6.109  -4.487  21.285  0.00  0.00    -0.385 OA
ATOM     26  H   UNL     1       6.166  -3.516  21.227  0.00  0.00    +0.210 HD
ENDBRANCH  17  25
BRANCH  19  27
ATOM     27  O   UNL     1       5.434  -5.858  25.902  0.00  0.00    -0.388 OA
ATOM     28  H   UNL     1       5.801  -6.549  26.494  0.00  0.00    +0.210 HD
ENDBRANCH  19  27
BRANCH  20  29
ATOM     29  C   UNL     1       8.008  -4.499  26.620  0.00  0.00    +0.190 C 
BRANCH  29  30
ATOM     30  O   UNL     1       8.162  -5.881  26.935  0.00  0.00    -0.392 OA
ATOM     31  H   UNL     1       9.073  -6.126  26.684  0.00  0.00    +0.210 HD
ENDBRANCH  29  30
ENDBRANCH  20  29
ENDBRANCH  15  16
ENDBRANCH   3  15
BRANCH   1  32
ATOM     32  O   UNL     1       6.949   2.319  21.963  0.00  0.00    -0.341 OA
BRANCH  32  37
ATOM     33  C   UNL     1       7.435   5.927  22.427  0.00  0.00    +0.166 C 
ATOM     34  C   UNL     1       6.030   6.352  22.921  0.00  0.00    +0.176 C 
ATOM     35  C   UNL     1       5.341   5.235  23.728  0.00  0.00    +0.179 C 
ATOM     36  C   UNL     1       5.423   3.894  22.986  0.00  0.00    +0.201 C 
ATOM     37  C   UNL     1       6.900   3.585  22.635  0.00  0.00    +0.282 C 
ATOM     38  O   UNL     1       7.435   4.616  21.814  0.00  0.00    -0.342 OA
BRANCH  34  39
ATOM     39  O   UNL     1       5.225   6.761  21.804  0.00  0.00    -0.387 OA
ATOM     40  H   UNL     1       5.166   7.737  21.805  0.00  0.00    +0.210 HD
ENDBRANCH  34  39
BRANCH  35  41
ATOM     41  O   UNL     1       5.950   5.140  25.019  0.00  0.00    -0.386 OA
ATOM     42  H   UNL     1       6.883   4.888  24.900  0.00  0.00    +0.210 HD
ENDBRANCH  35  41
BRANCH  36  43
ATOM     43  O   UNL     1       4.592   3.956  21.816  0.00  0.00    -0.384 OA
ATOM     44  H   UNL     1       4.761   4.836  21.424  0.00  0.00    +0.210 HD
ENDBRANCH  36  43
BRANCH  33  45
ATOM     45  C   UNL     1       8.496   6.036  23.552  0.00  0.00    +0.112 C 
BRANCH  45  46
ATOM     46  N   UNL     1       9.870   6.010  23.021  0.00  0.00    -0.328 NA
ATOM     47  H   UNL     1       9.988   6.804  22.390  0.00  0.00    +0.118 HD
ATOM     48  H   UNL     1      10.509   6.169  23.804  0.00  0.00    +0.118 HD
ENDBRANCH  45  46
ENDBRANCH  33  45
ENDBRANCH  32  37
ENDBRANCH   1  32
TORSDOF 17
ENDMDL
MODEL 4
REMARK VINA RESULT:      -6.6      2.112      2.671
REMARK  Name = 
REMARK  17 active torsions:
REMARK  status: ('A' for Active; 'I' for Inactive)
REMARK    1  A    between atoms: N_1  and  C_2
REMARK    2  A    between atoms: C_2  and  C_3
REMARK    3  A    between atoms: C_6  and  O_8
REMARK    4  A    between atoms: O_8  and  C_9
REMARK    5  A    between atoms: C_11  and  N_13
REMARK    6  A    between atoms: C_15  and  N_17
REMARK    7  A    between atoms: C_18  and  O_20
REMARK    8  A    between atoms: O_20  and  C_21
REMARK    9  A    between atoms: C_24  and  C_26
REMARK   10  A    between atoms: C_26  and  O_27
REMARK   11  A    between atoms: C_28  and  O_30
REMARK   12  A    between atoms: C_31  and  N_33
REMARK   13  A    between atoms: C_34  and  O_36
REMARK   14  A    between atoms: C_37  and  O_39
REMARK   15  A    between atoms: C_40  and  O_42
REMARK   16  A    between atoms: C_43  and  O_45
REMARK   17  A    between atoms: C_46  and  O_48
REMARK                            x       y       z     vdW  Elec       q    Type
REMARK                         _______ _______ _______ _____ _____    ______ ____
ROOT
ATOM      1  C   UNL     1       7.666  -0.820  23.599  0.00  0.00    +0.169 C 
ATOM      2  C   UNL     1       6.585  -1.895  23.926  0.00  0.00    +0.175 C 
ATOM      3  C   UNL     1       7.110  -3.243  24.507  0.00  0.00    +0.169 C 
ATOM      4  C   UNL     1       8.367  -3.762  23.760  0.00  0.00    +0.084 C 
ATOM      5  C   UNL     1       9.414  -2.673  23.562  0.00  0.00    +0.042 C 
ATOM      6  C   UNL     1       8.841  -1.472  22.822  0.00  0.00    +0.084 C 
ENDROOT
BRANCH   6   7
ATOM      7  N   UNL     1       9.945  -0.526  22.590  0.00  0.00    -0.325 NA
ATOM      8  H   UNL     1      10.840  -1.010  22.679  0.00  0.00    +0.119 HD
ATOM      9  H   UNL     1       9.890  -0.197  21.626  0.00  0.00    +0.119 HD
ENDBRANCH   6   7
BRANCH   4  10
ATOM     10  N   UNL     1       9.041  -4.867  24.465  0.00  0.00    -0.325 NA
ATOM     11  H   UNL     1       9.037  -5.717  23.903  0.00  0.00    +0.119 HD
ATOM     12  H   UNL     1      10.017  -4.634  24.651  0.00  0.00    +0.119 HD
ENDBRANCH   4  10
BRANCH   2  13
ATOM     13  O   UNL     1       5.611  -1.398  24.863  0.00  0.00    -0.387 OA
ATOM     14  H   UNL     1       5.007  -2.114  25.162  0.00  0.00    +0.210 HD
ENDBRANCH   2  13
BRANCH   3  15
ATOM     15  O   UNL     1       5.997  -4.194  24.431  0.00  0.00    -0.341 OA
BRANCH  15  16
ATOM     16  C   UNL     1       6.386  -5.574  24.523  0.00  0.00    +0.281 C 
ATOM     17  C   UNL     1       5.399  -6.527  23.795  0.00  0.00    +0.189 C 
ATOM     18  C   UNL     1       4.089  -6.713  24.579  0.00  0.00    +0.116 C 
ATOM     19  C   UNL     1       4.378  -7.020  26.064  0.00  0.00    +0.165 C 
ATOM     20  C   UNL     1       5.352  -5.971  26.625  0.00  0.00    +0.177 C 
ATOM     21  O   UNL     1       6.578  -5.977  25.882  0.00  0.00    -0.341 OA
BRANCH  18  22
ATOM     22  N   UNL     1       3.233  -7.776  23.995  0.00  0.00    -0.323 NA
ATOM     23  H   UNL     1       3.502  -7.937  23.024  0.00  0.00    +0.119 HD
ATOM     24  H   UNL     1       3.467  -8.644  24.487  0.00  0.00    +0.119 HD
ENDBRANCH  18  22
BRANCH  17  25
ATOM     25  O   UNL     1       5.155  -6.088  22.452  0.00  0.00    -0.385 OA
ATOM     26  H   UNL     1       5.853  -5.442  22.244  0.00  0.00    +0.210 HD
ENDBRANCH  17  25
BRANCH  19  27
ATOM     27  O   UNL     1       3.133  -7.044  26.771  0.00  0.00    -0.388 OA
ATOM     28  H   UNL     1       2.880  -7.986  26.882  0.00  0.00    +0.210 HD
ENDBRANCH  19  27
BRANCH  20  29
ATOM     29  C   UNL     1       5.706  -6.244  28.086  0.00  0.00    +0.190 C 
BRANCH  29  30
ATOM     30  O   UNL     1       5.470  -7.608  28.424  0.00  0.00    -0.392 OA
ATOM     31  H   UNL     1       4.656  -7.876  27.957  0.00  0.00    +0.210 HD
ENDBRANCH  29  30
ENDBRANCH  20  29
ENDBRANCH  15  16
ENDBRANCH   3  15
BRANCH   1  32
ATOM     32  O   UNL     1       7.175   0.256  22.746  0.00  0.00    -0.341 OA
BRANCH  32  37
ATOM     33  C   UNL     1       8.676   2.913  24.783  0.00  0.00    +0.166 C 
ATOM     34  C   UNL     1       8.920   4.004  23.711  0.00  0.00    +0.176 C 
ATOM     35  C   UNL     1       7.862   3.958  22.593  0.00  0.00    +0.179 C 
ATOM     36  C   UNL     1       7.675   2.526  22.075  0.00  0.00    +0.201 C 
ATOM     37  C   UNL     1       7.365   1.581  23.262  0.00  0.00    +0.282 C 
ATOM     38  O   UNL     1       8.430   1.610  24.205  0.00  0.00    -0.342 OA
BRANCH  34  39
ATOM     39  O   UNL     1      10.248   3.874  23.179  0.00  0.00    -0.387 OA
ATOM     40  H   UNL     1      10.718   3.183  23.685  0.00  0.00    +0.210 HD
ENDBRANCH  34  39
BRANCH  35  41
ATOM     41  O   UNL     1       6.627   4.483  23.089  0.00  0.00    -0.386 OA
ATOM     42  H   UNL     1       5.996   3.748  23.182  0.00  0.00    +0.210 HD
ENDBRANCH  35  41
BRANCH  36  43
ATOM     43  O   UNL     1       8.860   2.128  21.364  0.00  0.00    -0.384 OA
ATOM     44  H   UNL     1       9.349   1.546  21.981  0.00  0.00    +0.210 HD
ENDBRANCH  36  43
BRANCH  33  45
ATOM     45  C   UNL     1       7.558   3.323  25.776  0.00  0.00    +0.112 C 
BRANCH  45  46
ATOM     46  N   UNL     1       7.609   4.757  26.106  0.00  0.00    -0.328 NA
ATOM     47  H   UNL     1       7.768   5.282  25.246  0.00  0.00    +0.118 HD
ATOM     48  H   UNL     1       6.683   5.032  26.442  0.00  0.00    +0.118 HD
ENDBRANCH  45  46
ENDBRANCH  33  45
ENDBRANCH  32  37
ENDBRANCH   1  32
TORSDOF 17
ENDMDL
MODEL 5
REMARK VINA RESULT:      -6.4      2.247      8.446
REMARK  Name = 
REMARK  17 active torsions:
REMARK  status: ('A' for Active; 'I' for Inactive)
REMARK    1  A    between atoms: N_1  and  C_2
REMARK    2  A    between atoms: C_2  and  C_3
REMARK    3  A    between atoms: C_6  and  O_8
REMARK    4  A    between atoms: O_8  and  C_9
REMARK    5  A    between atoms: C_11  and  N_13
REMARK    6  A    between atoms: C_15  and  N_17
REMARK    7  A    between atoms: C_18  and  O_20
REMARK    8  A    between atoms: O_20  and  C_21
REMARK    9  A    between atoms: C_24  and  C_26
REMARK   10  A    between atoms: C_26  and  O_27
REMARK   11  A    between atoms: C_28  and  O_30
REMARK   12  A    between atoms: C_31  and  N_33
REMARK   13  A    between atoms: C_34  and  O_36
REMARK   14  A    between atoms: C_37  and  O_39
REMARK   15  A    between atoms: C_40  and  O_42
REMARK   16  A    between atoms: C_43  and  O_45
REMARK   17  A    between atoms: C_46  and  O_48
REMARK                            x       y       z     vdW  Elec       q    Type
REMARK                         _______ _______ _______ _____ _____    ______ ____
ROOT
ATOM      1  C   UNL     1       7.258  -3.206  25.127  0.00  0.00    +0.169 C 
ATOM      2  C   UNL     1       7.003  -1.822  24.457  0.00  0.00    +0.175 C 
ATOM      3  C   UNL     1       7.958  -1.438  23.286  0.00  0.00    +0.169 C 
ATOM      4  C   UNL     1       9.441  -1.769  23.598  0.00  0.00    +0.084 C 
ATOM      5  C   UNL     1       9.616  -3.173  24.163  0.00  0.00    +0.042 C 
ATOM      6  C   UNL     1       8.773  -3.383  25.413  0.00  0.00    +0.084 C 
ENDROOT
BRANCH   6   7
ATOM      7  N   UNL     1       9.086  -4.722  25.939  0.00  0.00    -0.325 NA
ATOM      8  H   UNL     1       8.695  -4.826  26.876  0.00  0.00    +0.119 HD
ATOM      9  H   UNL     1       8.618  -5.415  25.354  0.00  0.00    +0.119 HD
ENDBRANCH   6   7
BRANCH   4  10
ATOM     10  N   UNL     1      10.313  -1.684  22.412  0.00  0.00    -0.325 NA
ATOM     11  H   UNL     1       9.839  -1.215  21.641  0.00  0.00    +0.119 HD
ATOM     12  H   UNL     1      11.153  -1.145  22.620  0.00  0.00    +0.119 HD
ENDBRANCH   4  10
BRANCH   2  13
ATOM     13  O   UNL     1       5.662  -1.723  23.939  0.00  0.00    -0.387 OA
ATOM     14  H   UNL     1       5.122  -1.096  24.470  0.00  0.00    +0.210 HD
ENDBRANCH   2  13
BRANCH   3  15
ATOM     15  O   UNL     1       7.758  -0.009  23.033  0.00  0.00    -0.341 OA
BRANCH  15  16
ATOM     16  C   UNL     1       7.718   0.807  24.215  0.00  0.00    +0.281 C 
ATOM     17  C   UNL     1       6.554   1.834  24.199  0.00  0.00    +0.189 C 
ATOM     18  C   UNL     1       6.832   3.009  23.247  0.00  0.00    +0.116 C 
ATOM     19  C   UNL     1       8.250   3.575  23.473  0.00  0.00    +0.165 C 
ATOM     20  C   UNL     1       9.272   2.427  23.438  0.00  0.00    +0.177 C 
ATOM     21  O   UNL     1       8.971   1.456  24.448  0.00  0.00    -0.341 OA
BRANCH  18  22
ATOM     22  N   UNL     1       5.823   4.090  23.382  0.00  0.00    -0.323 NA
ATOM     23  H   UNL     1       4.885   3.694  23.309  0.00  0.00    +0.119 HD
ATOM     24  H   UNL     1       5.896   4.439  24.343  0.00  0.00    +0.119 HD
ENDBRANCH  18  22
BRANCH  17  25
ATOM     25  O   UNL     1       5.306   1.194  23.901  0.00  0.00    -0.385 OA
ATOM     26  H   UNL     1       4.920   0.936  24.757  0.00  0.00    +0.210 HD
ENDBRANCH  17  25
BRANCH  19  27
ATOM     27  O   UNL     1       8.507   4.566  22.472  0.00  0.00    -0.388 OA
ATOM     28  H   UNL     1       9.481   4.644  22.384  0.00  0.00    +0.210 HD
ENDBRANCH  19  27
BRANCH  20  29
ATOM     29  C   UNL     1      10.696   2.921  23.693  0.00  0.00    +0.190 C 
BRANCH  29  30
ATOM     30  O   UNL     1      11.184   3.671  22.584  0.00  0.00    -0.392 OA
ATOM     31  H   UNL     1      11.008   3.137  21.786  0.00  0.00    +0.210 HD
ENDBRANCH  29  30
ENDBRANCH  20  29
ENDBRANCH  15  16
ENDBRANCH   3  15
BRANCH   1  32
ATOM     32  O   UNL     1       6.591  -3.360  26.414  0.00  0.00    -0.341 OA
BRANCH  32  37
ATOM     33  C   UNL     1       5.110  -6.696  26.038  0.00  0.00    +0.166 C 
ATOM     34  C   UNL     1       4.420  -6.869  27.414  0.00  0.00    +0.176 C 
ATOM     35  C   UNL     1       3.937  -5.523  27.988  0.00  0.00    +0.179 C 
ATOM     36  C   UNL     1       5.047  -4.466  27.912  0.00  0.00    +0.201 C 
ATOM     37  C   UNL     1       5.571  -4.368  26.459  0.00  0.00    +0.282 C 
ATOM     38  O   UNL     1       6.083  -5.626  26.035  0.00  0.00    -0.342 OA
BRANCH  34  39
ATOM     39  O   UNL     1       5.309  -7.535  28.324  0.00  0.00    -0.387 OA
ATOM     40  H   UNL     1       5.332  -8.485  28.094  0.00  0.00    +0.210 HD
ENDBRANCH  34  39
BRANCH  35  41
ATOM     41  O   UNL     1       2.776  -5.093  27.271  0.00  0.00    -0.386 OA
ATOM     42  H   UNL     1       2.277  -5.881  26.994  0.00  0.00    +0.210 HD
ENDBRANCH  35  41
BRANCH  36  43
ATOM     43  O   UNL     1       6.088  -4.815  28.839  0.00  0.00    -0.384 OA
ATOM     44  H   UNL     1       6.192  -4.033  29.419  0.00  0.00    +0.210 HD
ENDBRANCH  36  43
BRANCH  33  45
ATOM     45  C   UNL     1       4.077  -6.538  24.893  0.00  0.00    +0.112 C 
BRANCH  45  46
ATOM     46  N   UNL     1       4.505  -7.224  23.662  0.00  0.00    -0.328 NA
ATOM     47  H   UNL     1       4.298  -6.620  22.866  0.00  0.00    +0.118 HD
ATOM     48  H   UNL     1       5.523  -7.315  23.695  0.00  0.00    +0.118 HD
ENDBRANCH  45  46
ENDBRANCH  33  45
ENDBRANCH  32  37
ENDBRANCH   1  32
TORSDOF 17
ENDMDL
MODEL 6
REMARK VINA RESULT:      -6.3      1.669      8.306
REMARK  Name = 
REMARK  17 active torsions:
REMARK  status: ('A' for Active; 'I' for Inactive)
REMARK    1  A    between atoms: N_1  and  C_2
REMARK    2  A    between atoms: C_2  and  C_3
REMARK    3  A    between atoms: C_6  and  O_8
REMARK    4  A    between atoms: O_8  and  C_9
REMARK    5  A    between atoms: C_11  and  N_13
REMARK    6  A    between atoms: C_15  and  N_17
REMARK    7  A    between atoms: C_18  and  O_20
REMARK    8  A    between atoms: O_20  and  C_21
REMARK    9  A    between atoms: C_24  and  C_26
REMARK   10  A    between atoms: C_26  and  O_27
REMARK   11  A    between atoms: C_28  and  O_30
REMARK   12  A    between atoms: C_31  and  N_33
REMARK   13  A    between atoms: C_34  and  O_36
REMARK   14  A    between atoms: C_37  and  O_39
REMARK   15  A    between atoms: C_40  and  O_42
REMARK   16  A    between atoms: C_43  and  O_45
REMARK   17  A    between atoms: C_46  and  O_48
REMARK                            x       y       z     vdW  Elec       q    Type
REMARK                         _______ _______ _______ _____ _____    ______ ____
ROOT
ATOM      1  C   UNL     1       8.178  -1.370  23.501  0.00  0.00    +0.169 C 
ATOM      2  C   UNL     1       7.466   0.006  23.669  0.00  0.00    +0.175 C 
ATOM      3  C   UNL     1       7.962   1.155  22.741  0.00  0.00    +0.169 C 
ATOM      4  C   UNL     1       9.509   1.210  22.640  0.00  0.00    +0.084 C 
ATOM      5  C   UNL     1      10.123  -0.161  22.383  0.00  0.00    +0.042 C 
ATOM      6  C   UNL     1       9.717  -1.166  23.452  0.00  0.00    +0.084 C 
ENDROOT
BRANCH   6   7
ATOM      7  N   UNL     1      10.435  -2.422  23.177  0.00  0.00    -0.325 NA
ATOM      8  H   UNL     1      11.440  -2.271  23.264  0.00  0.00    +0.119 HD
ATOM      9  H   UNL     1      10.182  -3.101  23.896  0.00  0.00    +0.119 HD
ENDBRANCH   6   7
BRANCH   4  10
ATOM     10  N   UNL     1       9.986   2.090  21.558  0.00  0.00    -0.325 NA
ATOM     11  H   UNL     1       9.322   2.840  21.376  0.00  0.00    +0.119 HD
ATOM     12  H   UNL     1      10.872   2.528  21.814  0.00  0.00    +0.119 HD
ENDBRANCH   4  10
BRANCH   2  13
ATOM     13  O   UNL     1       6.045  -0.105  23.458  0.00  0.00    -0.387 OA
ATOM     14  H   UNL     1       5.842  -0.745  22.739  0.00  0.00    +0.210 HD
ENDBRANCH   2  13
BRANCH   3  15
ATOM     15  O   UNL     1       7.405   2.399  23.279  0.00  0.00    -0.341 OA
BRANCH  15  16
ATOM     16  C   UNL     1       6.830   3.271  22.292  0.00  0.00    +0.281 C 
ATOM     17  C   UNL     1       7.246   4.754  22.485  0.00  0.00    +0.189 C 
ATOM     18  C   UNL     1       6.517   5.410  23.670  0.00  0.00    +0.116 C 
ATOM     19  C   UNL     1       5.003   5.119  23.612  0.00  0.00    +0.165 C 
ATOM     20  C   UNL     1       4.778   3.608  23.440  0.00  0.00    +0.177 C 
ATOM     21  O   UNL     1       5.407   3.140  22.240  0.00  0.00    -0.341 OA
BRANCH  18  22
ATOM     22  N   UNL     1       6.753   6.875  23.731  0.00  0.00    -0.323 NA
ATOM     23  H   UNL     1       6.274   7.332  22.955  0.00  0.00    +0.119 HD
ATOM     24  H   UNL     1       6.281   7.212  24.576  0.00  0.00    +0.119 HD
ENDBRANCH  18  22
BRANCH  17  25
ATOM     25  O   UNL     1       8.669   4.880  22.603  0.00  0.00    -0.385 OA
ATOM     26  H   UNL     1       8.882   5.802  22.373  0.00  0.00    +0.210 HD
ENDBRANCH  17  25
BRANCH  19  27
ATOM     27  O   UNL     1       4.398   5.629  24.806  0.00  0.00    -0.388 OA
ATOM     28  H   UNL     1       4.779   6.518  24.967  0.00  0.00    +0.210 HD
ENDBRANCH  19  27
BRANCH  20  29
ATOM     29  C   UNL     1       3.294   3.258  23.339  0.00  0.00    +0.190 C 
BRANCH  29  30
ATOM     30  O   UNL     1       2.947   2.874  22.011  0.00  0.00    -0.392 OA
ATOM     31  H   UNL     1       1.973   2.852  21.971  0.00  0.00    +0.210 HD
ENDBRANCH  29  30
ENDBRANCH  20  29
ENDBRANCH  15  16
ENDBRANCH   3  15
BRANCH   1  32
ATOM     32  O   UNL     1       7.935  -2.289  24.606  0.00  0.00    -0.341 OA
BRANCH  32  37
ATOM     33  C   UNL     1       5.614  -4.330  22.629  0.00  0.00    +0.166 C 
ATOM     34  C   UNL     1       6.073  -5.758  23.016  0.00  0.00    +0.176 C 
ATOM     35  C   UNL     1       6.616  -5.816  24.457  0.00  0.00    +0.179 C 
ATOM     36  C   UNL     1       7.624  -4.686  24.708  0.00  0.00    +0.201 C 
ATOM     37  C   UNL     1       6.980  -3.326  24.343  0.00  0.00    +0.282 C 
ATOM     38  O   UNL     1       6.590  -3.319  22.974  0.00  0.00    -0.342 OA
BRANCH  34  39
ATOM     39  O   UNL     1       7.048  -6.228  22.072  0.00  0.00    -0.387 OA
ATOM     40  H   UNL     1       6.975  -7.200  22.009  0.00  0.00    +0.210 HD
ENDBRANCH  34  39
BRANCH  35  41
ATOM     41  O   UNL     1       5.524  -5.736  25.377  0.00  0.00    -0.386 OA
ATOM     42  H   UNL     1       4.944  -5.005  25.102  0.00  0.00    +0.210 HD
ENDBRANCH  35  41
BRANCH  36  43
ATOM     43  O   UNL     1       8.813  -4.943  23.944  0.00  0.00    -0.384 OA
ATOM     44  H   UNL     1       8.927  -4.159  23.370  0.00  0.00    +0.210 HD
ENDBRANCH  36  43
BRANCH  33  45
ATOM     45  C   UNL     1       4.214  -4.000  23.207  0.00  0.00    +0.112 C 
BRANCH  45  46
ATOM     46  N   UNL     1       3.278  -5.129  23.069  0.00  0.00    -0.328 NA
ATOM     47  H   UNL     1       3.132  -5.310  22.076  0.00  0.00    +0.118 HD
ATOM     48  H   UNL     1       3.736  -5.961  23.448  0.00  0.00    +0.118 HD
ENDBRANCH  45  46
ENDBRANCH  33  45
ENDBRANCH  32  37
ENDBRANCH   1  32
TORSDOF 17
ENDMDL
MODEL 7
REMARK VINA RESULT:      -6.3      2.417      8.342
REMARK  Name = 
REMARK  17 active torsions:
REMARK  status: ('A' for Active; 'I' for Inactive)
REMARK    1  A    between atoms: N_1  and  C_2
REMARK    2  A    between atoms: C_2  and  C_3
REMARK    3  A    between atoms: C_6  and  O_8
REMARK    4  A    between atoms: O_8  and  C_9
REMARK    5  A    between atoms: C_11  and  N_13
REMARK    6  A    between atoms: C_15  and  N_17
REMARK    7  A    between atoms: C_18  and  O_20
REMARK    8  A    between atoms: O_20  and  C_21
REMARK    9  A    between atoms: C_24  and  C_26
REMARK   10  A    between atoms: C_26  and  O_27
REMARK   11  A    between atoms: C_28  and  O_30
REMARK   12  A    between atoms: C_31  and  N_33
REMARK   13  A    between atoms: C_34  and  O_36
REMARK   14  A    between atoms: C_37  and  O_39
REMARK   15  A    between atoms: C_40  and  O_42
REMARK   16  A    between atoms: C_43  and  O_45
REMARK   17  A    between atoms: C_46  and  O_48
REMARK                            x       y       z     vdW  Elec       q    Type
REMARK                         _______ _______ _______ _____ _____    ______ ____
ROOT
ATOM      1  C   UNL     1       8.980  -1.256  24.326  0.00  0.00    +0.169 C 
ATOM      2  C   UNL     1       8.757   0.192  24.859  0.00  0.00    +0.175 C 
ATOM      3  C   UNL     1       8.634   1.310  23.781  0.00  0.00    +0.169 C 
ATOM      4  C   UNL     1       9.691   1.167  22.654  0.00  0.00    +0.084 C 
ATOM      5  C   UNL     1       9.782  -0.259  22.123  0.00  0.00    +0.042 C 
ATOM      6  C   UNL     1      10.084  -1.253  23.235  0.00  0.00    +0.084 C 
ENDROOT
BRANCH   6   7
ATOM      7  N   UNL     1      10.254  -2.577  22.613  0.00  0.00    -0.325 NA
ATOM      8  H   UNL     1      10.640  -2.471  21.674  0.00  0.00    +0.119 HD
ATOM      9  H   UNL     1      10.946  -3.099  23.152  0.00  0.00    +0.119 HD
ENDBRANCH   6   7
BRANCH   4  10
ATOM     10  N   UNL     1       9.414   2.029  21.491  0.00  0.00    -0.325 NA
ATOM     11  H   UNL     1       8.444   1.944  21.193  0.00  0.00    +0.119 HD
ATOM     12  H   UNL     1       9.573   3.010  21.724  0.00  0.00    +0.119 HD
ENDBRANCH   4  10
BRANCH   2  13
ATOM     13  O   UNL     1       7.572   0.279  25.674  0.00  0.00    -0.387 OA
ATOM     14  H   UNL     1       6.773   0.010  25.169  0.00  0.00    +0.210 HD
ENDBRANCH   2  13
BRANCH   3  15
ATOM     15  O   UNL     1       8.758   2.589  24.486  0.00  0.00    -0.341 OA
BRANCH  15  16
ATOM     16  C   UNL     1       7.620   3.456  24.353  0.00  0.00    +0.281 C 
ATOM     17  C   UNL     1       8.016   4.920  24.018  0.00  0.00    +0.189 C 
ATOM     18  C   UNL     1       8.592   5.657  25.238  0.00  0.00    +0.116 C 
ATOM     19  C   UNL     1       7.697   5.450  26.478  0.00  0.00    +0.165 C 
ATOM     20  C   UNL     1       7.425   3.949  26.669  0.00  0.00    +0.177 C 
ATOM     21  O   UNL     1       6.781   3.404  25.510  0.00  0.00    -0.341 OA
BRANCH  18  22
ATOM     22  N   UNL     1       8.778   7.108  24.979  0.00  0.00    -0.323 NA
ATOM     23  H   UNL     1       7.962   7.623  25.311  0.00  0.00    +0.119 HD
ATOM     24  H   UNL     1       9.553   7.414  25.576  0.00  0.00    +0.119 HD
ENDBRANCH  18  22
BRANCH  17  25
ATOM     25  O   UNL     1       8.909   4.969  22.898  0.00  0.00    -0.385 OA
ATOM     26  H   UNL     1       9.795   4.762  23.245  0.00  0.00    +0.210 HD
ENDBRANCH  17  25
BRANCH  19  27
ATOM     27  O   UNL     1       8.349   6.036  27.610  0.00  0.00    -0.388 OA
ATOM     28  H   UNL     1       7.889   5.706  28.412  0.00  0.00    +0.210 HD
ENDBRANCH  19  27
BRANCH  20  29
ATOM     29  C   UNL     1       6.511   3.681  27.864  0.00  0.00    +0.190 C 
BRANCH  29  30
ATOM     30  O   UNL     1       7.245   3.705  29.085  0.00  0.00    -0.392 OA
ATOM     31  H   UNL     1       8.040   4.247  28.923  0.00  0.00    +0.210 HD
ENDBRANCH  29  30
ENDBRANCH  20  29
ENDBRANCH  15  16
ENDBRANCH   3  15
BRANCH   1  32
ATOM     32  O   UNL     1       9.436  -2.188  25.350  0.00  0.00    -0.341 OA
BRANCH  32  37
ATOM     33  C   UNL     1       6.106  -3.689  25.704  0.00  0.00    +0.166 C 
ATOM     34  C   UNL     1       6.440  -5.192  25.531  0.00  0.00    +0.176 C 
ATOM     35  C   UNL     1       7.848  -5.532  26.056  0.00  0.00    +0.179 C 
ATOM     36  C   UNL     1       8.887  -4.539  25.520  0.00  0.00    +0.201 C 
ATOM     37  C   UNL     1       8.438  -3.093  25.843  0.00  0.00    +0.282 C 
ATOM     38  O   UNL     1       7.173  -2.826  25.247  0.00  0.00    -0.342 OA
BRANCH  34  39
ATOM     39  O   UNL     1       6.293  -5.567  24.152  0.00  0.00    -0.387 OA
ATOM     40  H   UNL     1       5.351  -5.480  23.907  0.00  0.00    +0.210 HD
ENDBRANCH  34  39
BRANCH  35  41
ATOM     41  O   UNL     1       7.833  -5.528  27.487  0.00  0.00    -0.386 OA
ATOM     42  H   UNL     1       8.647  -5.098  27.801  0.00  0.00    +0.210 HD
ENDBRANCH  35  41
BRANCH  36  43
ATOM     43  O   UNL     1       9.050  -4.750  24.108  0.00  0.00    -0.384 OA
ATOM     44  H   UNL     1       9.985  -4.531  23.919  0.00  0.00    +0.210 HD
ENDBRANCH  36  43
BRANCH  33  45
ATOM     45  C   UNL     1       5.682  -3.359  27.159  0.00  0.00    +0.112 C 
BRANCH  45  46
ATOM     46  N   UNL     1       4.916  -4.456  27.775  0.00  0.00    -0.328 NA
ATOM     47  H   UNL     1       3.935  -4.180  27.820  0.00  0.00    +0.118 HD
ATOM     48  H   UNL     1       4.960  -5.259  27.144  0.00  0.00    +0.118 HD
ENDBRANCH  45  46
ENDBRANCH  33  45
ENDBRANCH  32  37
ENDBRANCH   1  32
TORSDOF 17
ENDMDL
MODEL 8
REMARK VINA RESULT:      -6.3      2.813      4.152
REMARK  Name = 
REMARK  17 active torsions:
REMARK  status: ('A' for Active; 'I' for Inactive)
REMARK    1  A    between atoms: N_1  and  C_2
REMARK    2  A    between atoms: C_2  and  C_3
REMARK    3  A    between atoms: C_6  and  O_8
REMARK    4  A    between atoms: O_8  and  C_9
REMARK    5  A    between atoms: C_11  and  N_13
REMARK    6  A    between atoms: C_15  and  N_17
REMARK    7  A    between atoms: C_18  and  O_20
REMARK    8  A    between atoms: O_20  and  C_21
REMARK    9  A    between atoms: C_24  and  C_26
REMARK   10  A    between atoms: C_26  and  O_27
REMARK   11  A    between atoms: C_28  and  O_30
REMARK   12  A    between atoms: C_31  and  N_33
REMARK   13  A    between atoms: C_34  and  O_36
REMARK   14  A    between atoms: C_37  and  O_39
REMARK   15  A    between atoms: C_40  and  O_42
REMARK   16  A    between atoms: C_43  and  O_45
REMARK   17  A    between atoms: C_46  and  O_48
REMARK                            x       y       z     vdW  Elec       q    Type
REMARK                         _______ _______ _______ _____ _____    ______ ____
ROOT
ATOM      1  C   UNL     1       7.106   0.018  25.562  0.00  0.00    +0.169 C 
ATOM      2  C   UNL     1       6.476  -1.152  24.747  0.00  0.00    +0.175 C 
ATOM      3  C   UNL     1       5.140  -1.733  25.300  0.00  0.00    +0.169 C 
ATOM      4  C   UNL     1       5.169  -1.929  26.839  0.00  0.00    +0.084 C 
ATOM      5  C   UNL     1       5.712  -0.706  27.568  0.00  0.00    +0.042 C 
ATOM      6  C   UNL     1       7.103  -0.330  27.075  0.00  0.00    +0.084 C 
ENDROOT
BRANCH   6   7
ATOM      7  N   UNL     1       7.580   0.790  27.903  0.00  0.00    -0.325 NA
ATOM      8  H   UNL     1       7.219   0.696  28.853  0.00  0.00    +0.119 HD
ATOM      9  H   UNL     1       8.596   0.727  27.974  0.00  0.00    +0.119 HD
ENDBRANCH   6   7
BRANCH   4  10
ATOM     10  N   UNL     1       3.839  -2.200  27.411  0.00  0.00    -0.325 NA
ATOM     11  H   UNL     1       3.129  -2.249  26.683  0.00  0.00    +0.119 HD
ATOM     12  H   UNL     1       3.832  -3.097  27.898  0.00  0.00    +0.119 HD
ENDBRANCH   4  10
BRANCH   2  13
ATOM     13  O   UNL     1       6.221  -0.768  23.382  0.00  0.00    -0.387 OA
ATOM     14  H   UNL     1       5.775   0.107  23.336  0.00  0.00    +0.210 HD
ENDBRANCH   2  13
BRANCH   3  15
ATOM     15  O   UNL     1       4.908  -2.996  24.593  0.00  0.00    -0.341 OA
BRANCH  15  16
ATOM     16  C   UNL     1       6.050  -3.866  24.534  0.00  0.00    +0.281 C 
ATOM     17  C   UNL     1       6.253  -4.498  23.131  0.00  0.00    +0.189 C 
ATOM     18  C   UNL     1       5.232  -5.614  22.846  0.00  0.00    +0.116 C 
ATOM     19  C   UNL     1       5.140  -6.590  24.037  0.00  0.00    +0.165 C 
ATOM     20  C   UNL     1       4.920  -5.796  25.335  0.00  0.00    +0.177 C 
ATOM     21  O   UNL     1       5.997  -4.873  25.548  0.00  0.00    -0.341 OA
BRANCH  18  22
ATOM     22  N   UNL     1       5.549  -6.357  21.600  0.00  0.00    -0.323 NA
ATOM     23  H   UNL     1       4.721  -6.862  21.283  0.00  0.00    +0.119 HD
ATOM     24  H   UNL     1       5.728  -5.652  20.877  0.00  0.00    +0.119 HD
ENDBRANCH  18  22
BRANCH  17  25
ATOM     25  O   UNL     1       6.241  -3.495  22.106  0.00  0.00    -0.385 OA
ATOM     26  H   UNL     1       5.324  -3.446  21.781  0.00  0.00    +0.210 HD
ENDBRANCH  17  25
BRANCH  19  27
ATOM     27  O   UNL     1       4.082  -7.520  23.779  0.00  0.00    -0.388 OA
ATOM     28  H   UNL     1       4.419  -8.413  24.006  0.00  0.00    +0.210 HD
ENDBRANCH  19  27
BRANCH  20  29
ATOM     29  C   UNL     1       4.857  -6.708  26.560  0.00  0.00    +0.190 C 
BRANCH  29  30
ATOM     30  O   UNL     1       3.676  -7.506  26.543  0.00  0.00    -0.392 OA
ATOM     31  H   UNL     1       2.961  -6.940  26.194  0.00  0.00    +0.210 HD
ENDBRANCH  29  30
ENDBRANCH  20  29
ENDBRANCH  15  16
ENDBRANCH   3  15
BRANCH   1  32
ATOM     32  O   UNL     1       8.499   0.281  25.218  0.00  0.00    -0.341 OA
BRANCH  32  37
ATOM     33  C   UNL     1       9.166   3.689  24.036  0.00  0.00    +0.166 C 
ATOM     34  C   UNL     1      10.293   3.429  23.006  0.00  0.00    +0.176 C 
ATOM     35  C   UNL     1      10.147   2.052  22.330  0.00  0.00    +0.179 C 
ATOM     36  C   UNL     1       9.912   0.952  23.373  0.00  0.00    +0.201 C 
ATOM     37  C   UNL     1       8.707   1.334  24.268  0.00  0.00    +0.282 C 
ATOM     38  O   UNL     1       8.958   2.569  24.928  0.00  0.00    -0.342 OA
BRANCH  34  39
ATOM     39  O   UNL     1      11.574   3.565  23.642  0.00  0.00    -0.387 OA
ATOM     40  H   UNL     1      11.870   2.680  23.933  0.00  0.00    +0.210 HD
ENDBRANCH  34  39
BRANCH  35  41
ATOM     41  O   UNL     1       9.069   2.100  21.390  0.00  0.00    -0.386 OA
ATOM     42  H   UNL     1       9.328   1.592  20.601  0.00  0.00    +0.210 HD
ENDBRANCH  35  41
BRANCH  36  43
ATOM     43  O   UNL     1      11.115   0.769  24.138  0.00  0.00    -0.384 OA
ATOM     44  H   UNL     1      10.835   0.802  25.075  0.00  0.00    +0.210 HD
ENDBRANCH  36  43
BRANCH  33  45
ATOM     45  C   UNL     1       7.848   4.128  23.347  0.00  0.00    +0.112 C 
BRANCH  45  46
ATOM     46  N   UNL     1       8.092   5.039  22.215  0.00  0.00    -0.328 NA
ATOM     47  H   UNL     1       9.053   4.912  21.898  0.00  0.00    +0.118 HD
ATOM     48  H   UNL     1       7.493   4.741  21.442  0.00  0.00    +0.118 HD
ENDBRANCH  45  46
ENDBRANCH  33  45
ENDBRANCH  32  37
ENDBRANCH   1  32
TORSDOF 17
ENDMDL
MODEL 9
REMARK VINA RESULT:      -6.2      2.289      8.111
REMARK  Name = 
REMARK  17 active torsions:
REMARK  status: ('A' for Active; 'I' for Inactive)
REMARK    1  A    between atoms: N_1  and  C_2
REMARK    2  A    between atoms: C_2  and  C_3
REMARK    3  A    between atoms: C_6  and  O_8
REMARK    4  A    between atoms: O_8  and  C_9
REMARK    5  A    between atoms: C_11  and  N_13
REMARK    6  A    between atoms: C_15  and  N_17
REMARK    7  A    between atoms: C_18  and  O_20
REMARK    8  A    between atoms: O_20  and  C_21
REMARK    9  A    between atoms: C_24  and  C_26
REMARK   10  A    between atoms: C_26  and  O_27
REMARK   11  A    between atoms: C_28  and  O_30
REMARK   12  A    between atoms: C_31  and  N_33
REMARK   13  A    between atoms: C_34  and  O_36
REMARK   14  A    between atoms: C_37  and  O_39
REMARK   15  A    between atoms: C_40  and  O_42
REMARK   16  A    between atoms: C_43  and  O_45
REMARK   17  A    between atoms: C_46  and  O_48
REMARK                            x       y       z     vdW  Elec       q    Type
REMARK                         _______ _______ _______ _____ _____    ______ ____
ROOT
ATOM      1  C   UNL     1       8.036  -2.680  25.047  0.00  0.00    +0.169 C 
ATOM      2  C   UNL     1       7.687  -1.178  24.813  0.00  0.00    +0.175 C 
ATOM      3  C   UNL     1       8.107  -0.582  23.436  0.00  0.00    +0.169 C 
ATOM      4  C   UNL     1       9.537  -1.010  23.014  0.00  0.00    +0.084 C 
ATOM      5  C   UNL     1       9.768  -2.506  23.186  0.00  0.00    +0.042 C 
ATOM      6  C   UNL     1       9.502  -2.954  24.616  0.00  0.00    +0.084 C 
ENDROOT
BRANCH   6   7
ATOM      7  N   UNL     1       9.848  -4.383  24.706  0.00  0.00    -0.325 NA
ATOM      8  H   UNL     1      10.308  -4.682  23.845  0.00  0.00    +0.119 HD
ATOM      9  H   UNL     1      10.532  -4.502  25.454  0.00  0.00    +0.119 HD
ENDBRANCH   6   7
BRANCH   4  10
ATOM     10  N   UNL     1       9.841  -0.699  21.606  0.00  0.00    -0.325 NA
ATOM     11  H   UNL     1       9.439  -1.396  20.981  0.00  0.00    +0.119 HD
ATOM     12  H   UNL     1       9.444   0.204  21.343  0.00  0.00    +0.119 HD
ENDBRANCH   4  10
BRANCH   2  13
ATOM     13  O   UNL     1       6.273  -0.937  24.949  0.00  0.00    -0.387 OA
ATOM     14  H   UNL     1       6.040  -0.708  25.877  0.00  0.00    +0.210 HD
ENDBRANCH   2  13
BRANCH   3  15
ATOM     15  O   UNL     1       7.986   0.874  23.555  0.00  0.00    -0.341 OA
BRANCH  15  16
ATOM     16  C   UNL     1       7.146   1.486  22.563  0.00  0.00    +0.281 C 
ATOM     17  C   UNL     1       7.779   2.761  21.943  0.00  0.00    +0.189 C 
ATOM     18  C   UNL     1       7.727   3.960  22.906  0.00  0.00    +0.116 C 
ATOM     19  C   UNL     1       6.317   4.113  23.514  0.00  0.00    +0.165 C 
ATOM     20  C   UNL     1       5.860   2.766  24.096  0.00  0.00    +0.177 C 
ATOM     21  O   UNL     1       5.839   1.760  23.075  0.00  0.00    -0.341 OA
BRANCH  18  22
ATOM     22  N   UNL     1       8.140   5.225  22.248  0.00  0.00    -0.323 NA
ATOM     23  H   UNL     1       9.158   5.293  22.244  0.00  0.00    +0.119 HD
ATOM     24  H   UNL     1       7.871   5.143  21.262  0.00  0.00    +0.119 HD
ENDBRANCH  18  22
BRANCH  17  25
ATOM     25  O   UNL     1       9.114   2.506  21.487  0.00  0.00    -0.385 OA
ATOM     26  H   UNL     1       9.061   2.423  20.518  0.00  0.00    +0.210 HD
ENDBRANCH  17  25
BRANCH  19  27
ATOM     27  O   UNL     1       6.361   5.149  24.503  0.00  0.00    -0.388 OA
ATOM     28  H   UNL     1       5.975   5.954  24.097  0.00  0.00    +0.210 HD
ENDBRANCH  19  27
BRANCH  20  29
ATOM     29  C   UNL     1       4.451   2.845  24.683  0.00  0.00    +0.190 C 
BRANCH  29  30
ATOM     30  O   UNL     1       3.467   2.559  23.692  0.00  0.00    -0.392 OA
ATOM     31  H   UNL     1       3.764   1.755  23.226  0.00  0.00    +0.210 HD
ENDBRANCH  29  30
ENDBRANCH  20  29
ENDBRANCH  15  16
ENDBRANCH   3  15
BRANCH   1  32
ATOM     32  O   UNL     1       7.950  -3.085  26.444  0.00  0.00    -0.341 OA
BRANCH  32  37
ATOM     33  C   UNL     1       4.631  -4.582  25.992  0.00  0.00    +0.166 C 
ATOM     34  C   UNL     1       4.781  -5.886  26.815  0.00  0.00    +0.176 C 
ATOM     35  C   UNL     1       5.740  -5.707  28.007  0.00  0.00    +0.179 C 
ATOM     36  C   UNL     1       7.043  -5.028  27.564  0.00  0.00    +0.201 C 
ATOM     37  C   UNL     1       6.715  -3.706  26.828  0.00  0.00    +0.282 C 
ATOM     38  O   UNL     1       5.904  -3.967  25.688  0.00  0.00    -0.342 OA
BRANCH  34  39
ATOM     39  O   UNL     1       5.210  -6.955  25.956  0.00  0.00    -0.387 OA
ATOM     40  H   UNL     1       5.880  -7.484  26.432  0.00  0.00    +0.210 HD
ENDBRANCH  34  39
BRANCH  35  41
ATOM     41  O   UNL     1       5.089  -4.941  29.025  0.00  0.00    -0.386 OA
ATOM     42  H   UNL     1       4.751  -4.121  28.624  0.00  0.00    +0.210 HD
ENDBRANCH  35  41
BRANCH  36  43
ATOM     43  O   UNL     1       7.785  -5.939  26.736  0.00  0.00    -0.384 OA
ATOM     44  H   UNL     1       7.726  -6.806  27.186  0.00  0.00    +0.210 HD
ENDBRANCH  36  43
BRANCH  33  45
ATOM     45  C   UNL     1       3.657  -3.584  26.670  0.00  0.00    +0.112 C 
BRANCH  45  46
ATOM     46  N   UNL     1       3.538  -2.325  25.914  0.00  0.00    -0.328 NA
ATOM     47  H   UNL     1       3.737  -2.517  24.932  0.00  0.00    +0.118 HD
ATOM     48  H   UNL     1       2.561  -2.028  25.957  0.00  0.00    +0.118 HD
ENDBRANCH  45  46
ENDBRANCH  33  45
ENDBRANCH  32  37
ENDBRANCH   1  32
TORSDOF 17
ENDMDL
