MODEL 1
REMARK VINA RESULT:      -7.2      0.000      0.000
REMARK  Name = 
REMARK  3 active torsions:
REMARK  status: ('A' for Active; 'I' for Inactive)
REMARK    1  A    between atoms: C_2  and  C_14
REMARK    2  A    between atoms: N_4  and  C_5
REMARK    3  A    between atoms: N_16  and  C_17
REMARK                            x       y       z     vdW  Elec       q    Type
REMARK                         _______ _______ _______ _____ _____    ______ ____
ROOT
ATOM      1  C   UNL     1       8.712  -4.085  25.717  0.00  0.00    +0.101 C 
ATOM      2  C   UNL     1       7.745  -4.681  26.735  0.00  0.00    +0.110 C 
ATOM      3  C   UNL     1       6.818  -5.541  25.914  0.00  0.00    +0.217 C 
ATOM      4  O   UNL     1       5.957  -6.261  26.383  0.00  0.00    -0.276 OA
ATOM      5  N   UNL     1       7.077  -5.270  24.570  0.00  0.00    -0.298 N 
ATOM      6  C   UNL     1       8.447  -4.834  24.433  0.00  0.00    +0.121 C 
ENDROOT
BRANCH   5   7
ATOM      7  C   UNL     1       6.238  -5.710  23.434  0.00  0.00    +0.076 C 
ATOM      8  C   UNL     1       6.844  -5.294  22.076  0.00  0.00    +0.022 C 
ATOM      9  C   UNL     1       7.012  -3.775  21.985  0.00  0.00    +0.002 C 
ATOM     10  C   UNL     1       5.743  -2.993  22.327  0.00  0.00    +0.000 C 
ATOM     11  C   UNL     1       4.943  -3.539  23.506  0.00  0.00    +0.002 C 
ATOM     12  C   UNL     1       4.836  -5.065  23.477  0.00  0.00    +0.022 C 
ENDBRANCH   5   7
BRANCH   1  13
ATOM     13  C   UNL     1       8.659  -2.576  25.463  0.00  0.00    +0.222 C 
ATOM     14  N   UNL     1       9.199  -2.085  24.288  0.00  0.00    -0.285 N 
ATOM     15  H   UNL     1       9.391  -2.736  23.537  0.00  0.00    +0.155 HD
ATOM     16  O   UNL     1       8.204  -1.868  26.363  0.00  0.00    -0.275 OA
BRANCH  14  17
ATOM     17  C   UNL     1       9.443  -0.713  23.995  0.00  0.00    +0.034 A 
ATOM     18  C   UNL     1       8.527  -0.033  23.183  0.00  0.00    +0.038 A 
ATOM     19  C   UNL     1       8.707   1.326  22.899  0.00  0.00    +0.020 A 
ATOM     20 BR   UNL     1       7.422   2.249  21.860  0.00  0.00    -0.050 Br
ATOM     21  C   UNL     1       9.813   2.018  23.384  0.00  0.00    +0.015 A 
ATOM     22  C   UNL     1      10.752   1.337  24.152  0.00  0.00    +0.003 A 
ATOM     23  C   UNL     1      10.569  -0.018  24.453  0.00  0.00    +0.023 A 
ENDBRANCH  14  17
ENDBRANCH   1  13
TORSDOF 3
ENDMDL
MODEL 2
REMARK VINA RESULT:      -6.8      3.181      4.772
REMARK  Name = 
REMARK  3 active torsions:
REMARK  status: ('A' for Active; 'I' for Inactive)
REMARK    1  A    between atoms: C_2  and  C_14
REMARK    2  A    between atoms: N_4  and  C_5
REMARK    3  A    between atoms: N_16  and  C_17
REMARK                            x       y       z     vdW  Elec       q    Type
REMARK                         _______ _______ _______ _____ _____    ______ ____
ROOT
ATOM      1  C   UNL     1       9.078  -0.838  21.857  0.00  0.00    +0.101 C 
ATOM      2  C   UNL     1      10.215  -1.696  22.402  0.00  0.00    +0.110 C 
ATOM      3  C   UNL     1       9.597  -2.455  23.549  0.00  0.00    +0.217 C 
ATOM      4  O   UNL     1      10.169  -3.319  24.184  0.00  0.00    -0.276 OA
ATOM      5  N   UNL     1       8.333  -1.910  23.777  0.00  0.00    -0.298 N 
ATOM      6  C   UNL     1       7.834  -1.346  22.545  0.00  0.00    +0.121 C 
ENDROOT
BRANCH   5   7
ATOM      7  C   UNL     1       7.483  -2.191  24.955  0.00  0.00    +0.076 C 
ATOM      8  C   UNL     1       6.263  -1.248  25.023  0.00  0.00    +0.022 C 
ATOM      9  C   UNL     1       6.699   0.219  25.087  0.00  0.00    +0.002 C 
ATOM     10  C   UNL     1       7.728   0.509  26.180  0.00  0.00    +0.000 C 
ATOM     11  C   UNL     1       8.813  -0.551  26.347  0.00  0.00    +0.002 C 
ATOM     12  C   UNL     1       8.250  -1.973  26.276  0.00  0.00    +0.022 C 
ENDBRANCH   5   7
BRANCH   1  13
ATOM     13  C   UNL     1       9.177   0.683  22.010  0.00  0.00    +0.222 C 
ATOM     14  N   UNL     1       9.863   1.193  23.097  0.00  0.00    -0.285 N 
ATOM     15  H   UNL     1      10.471   0.574  23.618  0.00  0.00    +0.155 HD
ATOM     16  O   UNL     1       8.570   1.373  21.190  0.00  0.00    -0.275 OA
BRANCH  14  17
ATOM     17  C   UNL     1       9.859   2.553  23.519  0.00  0.00    +0.034 A 
ATOM     18  C   UNL     1      11.021   3.311  23.332  0.00  0.00    +0.038 A 
ATOM     19  C   UNL     1      11.051   4.663  23.697  0.00  0.00    +0.020 A 
ATOM     20 BR   UNL     1      12.605   5.691  23.372  0.00  0.00    -0.050 Br
ATOM     21  C   UNL     1       9.944   5.269  24.284  0.00  0.00    +0.015 A 
ATOM     22  C   UNL     1       8.802   4.510  24.516  0.00  0.00    +0.003 A 
ATOM     23  C   UNL     1       8.760   3.162  24.138  0.00  0.00    +0.023 A 
ENDBRANCH  14  17
ENDBRANCH   1  13
TORSDOF 3
ENDMDL
MODEL 3
REMARK VINA RESULT:      -6.8      3.157      6.742
REMARK  Name = 
REMARK  3 active torsions:
REMARK  status: ('A' for Active; 'I' for Inactive)
REMARK    1  A    between atoms: C_2  and  C_14
REMARK    2  A    between atoms: N_4  and  C_5
REMARK    3  A    between atoms: N_16  and  C_17
REMARK                            x       y       z     vdW  Elec       q    Type
REMARK                         _______ _______ _______ _____ _____    ______ ____
ROOT
ATOM      1  C   UNL     1       6.176   0.479  23.909  0.00  0.00    +0.101 C 
ATOM      2  C   UNL     1       6.373   1.257  25.206  0.00  0.00    +0.110 C 
ATOM      3  C   UNL     1       7.583   2.119  24.947  0.00  0.00    +0.217 C 
ATOM      4  O   UNL     1       8.003   2.957  25.720  0.00  0.00    -0.276 OA
ATOM      5  N   UNL     1       8.145   1.698  23.741  0.00  0.00    -0.298 N 
ATOM      6  C   UNL     1       7.110   1.125  22.914  0.00  0.00    +0.121 C 
ENDROOT
BRANCH   5   7
ATOM      7  C   UNL     1       9.473   2.105  23.231  0.00  0.00    +0.076 C 
ATOM      8  C   UNL     1       9.727   1.577  21.803  0.00  0.00    +0.022 C 
ATOM      9  C   UNL     1       9.645   0.048  21.755  0.00  0.00    +0.002 C 
ATOM     10  C   UNL     1      10.513  -0.649  22.803  0.00  0.00    +0.000 C 
ATOM     11  C   UNL     1      10.518   0.009  24.181  0.00  0.00    +0.002 C 
ATOM     12  C   UNL     1      10.616   1.533  24.095  0.00  0.00    +0.022 C 
ENDBRANCH   5   7
BRANCH   1  13
ATOM     13  C   UNL     1       6.399  -1.036  23.930  0.00  0.00    +0.222 C 
ATOM     14  N   UNL     1       6.201  -1.749  22.762  0.00  0.00    -0.285 N 
ATOM     15  H   UNL     1       6.151  -1.239  21.888  0.00  0.00    +0.155 HD
ATOM     16  O   UNL     1       6.671  -1.551  25.016  0.00  0.00    -0.275 OA
BRANCH  14  17
ATOM     17  C   UNL     1       6.137  -3.167  22.654  0.00  0.00    +0.034 A 
ATOM     18  C   UNL     1       4.935  -3.805  22.986  0.00  0.00    +0.038 A 
ATOM     19  C   UNL     1       4.814  -5.195  22.858  0.00  0.00    +0.020 A 
ATOM     20 BR   UNL     1       3.162  -6.034  23.241  0.00  0.00    -0.050 Br
ATOM     21  C   UNL     1       5.890  -5.971  22.437  0.00  0.00    +0.015 A 
ATOM     22  C   UNL     1       7.101  -5.348  22.151  0.00  0.00    +0.003 A 
ATOM     23  C   UNL     1       7.224  -3.958  22.260  0.00  0.00    +0.023 A 
ENDBRANCH  14  17
ENDBRANCH   1  13
TORSDOF 3
ENDMDL
MODEL 4
REMARK VINA RESULT:      -6.5      2.852      6.515
REMARK  Name = 
REMARK  3 active torsions:
REMARK  status: ('A' for Active; 'I' for Inactive)
REMARK    1  A    between atoms: C_2  and  C_14
REMARK    2  A    between atoms: N_4  and  C_5
REMARK    3  A    between atoms: N_16  and  C_17
REMARK                            x       y       z     vdW  Elec       q    Type
REMARK                         _______ _______ _______ _____ _____    ______ ____
ROOT
ATOM      1  C   UNL     1       6.148   1.010  24.003  0.00  0.00    +0.101 C 
ATOM      2  C   UNL     1       6.400   1.977  25.155  0.00  0.00    +0.110 C 
ATOM      3  C   UNL     1       7.656   2.713  24.760  0.00  0.00    +0.217 C 
ATOM      4  O   UNL     1       8.130   3.641  25.386  0.00  0.00    -0.276 OA
ATOM      5  N   UNL     1       8.183   2.069  23.641  0.00  0.00    -0.298 N 
ATOM      6  C   UNL     1       7.109   1.429  22.917  0.00  0.00    +0.121 C 
ENDROOT
BRANCH   5   7
ATOM      7  C   UNL     1       9.527   2.309  23.072  0.00  0.00    +0.076 C 
ATOM      8  C   UNL     1       9.760   1.496  21.781  0.00  0.00    +0.022 C 
ATOM      9  C   UNL     1       9.611  -0.006  22.037  0.00  0.00    +0.002 C 
ATOM     10  C   UNL     1      10.446  -0.517  23.212  0.00  0.00    +0.000 C 
ATOM     11  C   UNL     1      10.479   0.401  24.431  0.00  0.00    +0.002 C 
ATOM     12  C   UNL     1      10.643   1.872  24.044  0.00  0.00    +0.022 C 
ENDBRANCH   5   7
BRANCH   1  13
ATOM     13  C   UNL     1       6.284  -0.491  24.273  0.00  0.00    +0.222 C 
ATOM     14  N   UNL     1       7.356  -1.167  23.720  0.00  0.00    -0.285 N 
ATOM     15  H   UNL     1       8.135  -0.626  23.364  0.00  0.00    +0.155 HD
ATOM     16  O   UNL     1       5.379  -1.034  24.909  0.00  0.00    -0.275 OA
BRANCH  14  17
ATOM     17  C   UNL     1       7.513  -2.581  23.672  0.00  0.00    +0.034 A 
ATOM     18  C   UNL     1       6.883  -3.285  22.639  0.00  0.00    +0.038 A 
ATOM     19  C   UNL     1       7.040  -4.673  22.530  0.00  0.00    +0.020 A 
ATOM     20 BR   UNL     1       6.242  -5.600  21.087  0.00  0.00    -0.050 Br
ATOM     21  C   UNL     1       7.792  -5.382  23.462  0.00  0.00    +0.015 A 
ATOM     22  C   UNL     1       8.382  -4.696  24.518  0.00  0.00    +0.003 A 
ATOM     23  C   UNL     1       8.241  -3.306  24.623  0.00  0.00    +0.023 A 
ENDBRANCH  14  17
ENDBRANCH   1  13
TORSDOF 3
ENDMDL
MODEL 5
REMARK VINA RESULT:      -6.4      2.829      6.285
REMARK  Name = 
REMARK  3 active torsions:
REMARK  status: ('A' for Active; 'I' for Inactive)
REMARK    1  A    between atoms: C_2  and  C_14
REMARK    2  A    between atoms: N_4  and  C_5
REMARK    3  A    between atoms: N_16  and  C_17
REMARK                            x       y       z     vdW  Elec       q    Type
REMARK                         _______ _______ _______ _____ _____    ______ ____
ROOT
ATOM      1  C   UNL     1      10.160  -1.373  23.008  0.00  0.00    +0.101 C 
ATOM      2  C   UNL     1       9.897  -0.434  21.835  0.00  0.00    +0.110 C 
ATOM      3  C   UNL     1       9.409   0.840  22.477  0.00  0.00    +0.217 C 
ATOM      4  O   UNL     1       9.181   1.868  21.869  0.00  0.00    -0.276 OA
ATOM      5  N   UNL     1       9.191   0.571  23.828  0.00  0.00    -0.298 N 
ATOM      6  C   UNL     1      10.060  -0.507  24.240  0.00  0.00    +0.121 C 
ENDROOT
BRANCH   5   7
ATOM      7  C   UNL     1       8.488   1.465  24.774  0.00  0.00    +0.076 C 
ATOM      8  C   UNL     1       8.031   0.716  26.044  0.00  0.00    +0.022 C 
ATOM      9  C   UNL     1       7.093  -0.444  25.696  0.00  0.00    +0.002 C 
ATOM     10  C   UNL     1       5.923  -0.042  24.797  0.00  0.00    +0.000 C 
ATOM     11  C   UNL     1       6.271   0.936  23.678  0.00  0.00    +0.002 C 
ATOM     12  C   UNL     1       7.203   2.053  24.155  0.00  0.00    +0.022 C 
ENDBRANCH   5   7
BRANCH   1  13
ATOM     13  C   UNL     1       9.268  -2.609  23.163  0.00  0.00    +0.222 C 
ATOM     14  N   UNL     1       8.126  -2.700  22.389  0.00  0.00    -0.285 N 
ATOM     15  H   UNL     1       8.036  -2.087  21.588  0.00  0.00    +0.155 HD
ATOM     16  O   UNL     1       9.579  -3.423  24.033  0.00  0.00    -0.275 OA
BRANCH  14  17
ATOM     17  C   UNL     1       7.077  -3.646  22.562  0.00  0.00    +0.034 A 
ATOM     18  C   UNL     1       6.055  -3.347  23.472  0.00  0.00    +0.038 A 
ATOM     19  C   UNL     1       4.983  -4.230  23.648  0.00  0.00    +0.020 A 
ATOM     20 BR   UNL     1       3.574  -3.778  24.827  0.00  0.00    -0.050 Br
ATOM     21  C   UNL     1       4.928  -5.436  22.953  0.00  0.00    +0.015 A 
ATOM     22  C   UNL     1       5.964  -5.761  22.083  0.00  0.00    +0.003 A 
ATOM     23  C   UNL     1       7.030  -4.875  21.891  0.00  0.00    +0.023 A 
ENDBRANCH  14  17
ENDBRANCH   1  13
TORSDOF 3
ENDMDL
MODEL 6
REMARK VINA RESULT:      -6.3      1.908      2.547
REMARK  Name = 
REMARK  3 active torsions:
REMARK  status: ('A' for Active; 'I' for Inactive)
REMARK    1  A    between atoms: C_2  and  C_14
REMARK    2  A    between atoms: N_4  and  C_5
REMARK    3  A    between atoms: N_16  and  C_17
REMARK                            x       y       z     vdW  Elec       q    Type
REMARK                         _______ _______ _______ _____ _____    ______ ____
ROOT
ATOM      1  C   UNL     1       8.427  -4.599  24.084  0.00  0.00    +0.101 C 
ATOM      2  C   UNL     1       9.002  -4.674  25.494  0.00  0.00    +0.110 C 
ATOM      3  C   UNL     1       7.823  -5.038  26.361  0.00  0.00    +0.217 C 
ATOM      4  O   UNL     1       7.899  -5.282  27.550  0.00  0.00    -0.276 OA
ATOM      5  N   UNL     1       6.677  -4.938  25.572  0.00  0.00    -0.298 N 
ATOM      6  C   UNL     1       7.034  -5.171  24.192  0.00  0.00    +0.121 C 
ENDROOT
BRANCH   5   7
ATOM      7  C   UNL     1       5.287  -4.973  26.078  0.00  0.00    +0.076 C 
ATOM      8  C   UNL     1       4.270  -4.558  24.993  0.00  0.00    +0.022 C 
ATOM      9  C   UNL     1       4.555  -3.146  24.476  0.00  0.00    +0.002 C 
ATOM     10  C   UNL     1       4.692  -2.100  25.584  0.00  0.00    +0.000 C 
ATOM     11  C   UNL     1       5.461  -2.562  26.819  0.00  0.00    +0.002 C 
ATOM     12  C   UNL     1       5.079  -3.982  27.242  0.00  0.00    +0.022 C 
ENDBRANCH   5   7
BRANCH   1  13
ATOM     13  C   UNL     1       8.379  -3.233  23.391  0.00  0.00    +0.222 C 
ATOM     14  N   UNL     1       9.367  -2.311  23.681  0.00  0.00    -0.285 N 
ATOM     15  H   UNL     1      10.208  -2.634  24.144  0.00  0.00    +0.155 HD
ATOM     16  O   UNL     1       7.410  -3.003  22.665  0.00  0.00    -0.275 OA
BRANCH  14  17
ATOM     17  C   UNL     1       9.353  -0.935  23.317  0.00  0.00    +0.034 A 
ATOM     18  C   UNL     1       8.799  -0.014  24.215  0.00  0.00    +0.038 A 
ATOM     19  C   UNL     1       8.798   1.354  23.916  0.00  0.00    +0.020 A 
ATOM     20 BR   UNL     1       8.110   2.591  25.171  0.00  0.00    -0.050 Br
ATOM     21  C   UNL     1       9.312   1.822  22.709  0.00  0.00    +0.015 A 
ATOM     22  C   UNL     1       9.821   0.909  21.792  0.00  0.00    +0.003 A 
ATOM     23  C   UNL     1       9.840  -0.459  22.093  0.00  0.00    +0.023 A 
ENDBRANCH  14  17
ENDBRANCH   1  13
TORSDOF 3
ENDMDL
MODEL 7
REMARK VINA RESULT:      -6.2      2.556      3.721
REMARK  Name = 
REMARK  3 active torsions:
REMARK  status: ('A' for Active; 'I' for Inactive)
REMARK    1  A    between atoms: C_2  and  C_14
REMARK    2  A    between atoms: N_4  and  C_5
REMARK    3  A    between atoms: N_16  and  C_17
REMARK                            x       y       z     vdW  Elec       q    Type
REMARK                         _______ _______ _______ _____ _____    ______ ____
ROOT
ATOM      1  C   UNL     1       9.509  -1.137  22.107  0.00  0.00    +0.101 C 
ATOM      2  C   UNL     1      10.470  -1.895  23.017  0.00  0.00    +0.110 C 
ATOM      3  C   UNL     1       9.611  -2.943  23.679  0.00  0.00    +0.217 C 
ATOM      4  O   UNL     1      10.037  -3.813  24.414  0.00  0.00    -0.276 OA
ATOM      5  N   UNL     1       8.282  -2.653  23.366  0.00  0.00    -0.298 N 
ATOM      6  C   UNL     1       8.239  -1.951  22.105  0.00  0.00    +0.121 C 
ENDROOT
BRANCH   5   7
ATOM      7  C   UNL     1       7.100  -3.279  23.999  0.00  0.00    +0.076 C 
ATOM      8  C   UNL     1       7.229  -4.816  24.066  0.00  0.00    +0.022 C 
ATOM      9  C   UNL     1       7.399  -5.420  22.670  0.00  0.00    +0.002 C 
ATOM     10  C   UNL     1       6.338  -4.962  21.667  0.00  0.00    +0.000 C 
ATOM     11  C   UNL     1       5.963  -3.484  21.750  0.00  0.00    +0.002 C 
ATOM     12  C   UNL     1       5.812  -3.005  23.195  0.00  0.00    +0.022 C 
ENDBRANCH   5   7
BRANCH   1  13
ATOM     13  C   UNL     1       9.195   0.325  22.440  0.00  0.00    +0.222 C 
ATOM     14  N   UNL     1       9.538   0.806  23.690  0.00  0.00    -0.285 N 
ATOM     15  H   UNL     1      10.188   0.269  24.252  0.00  0.00    +0.155 HD
ATOM     16  O   UNL     1       8.577   0.975  21.595  0.00  0.00    -0.275 OA
BRANCH  14  17
ATOM     17  C   UNL     1       9.120   2.047  24.246  0.00  0.00    +0.034 A 
ATOM     18  C   UNL     1       9.768   3.216  23.826  0.00  0.00    +0.038 A 
ATOM     19  C   UNL     1       9.365   4.464  24.319  0.00  0.00    +0.020 A 
ATOM     20 BR   UNL     1      10.202   6.039  23.687  0.00  0.00    -0.050 Br
ATOM     21  C   UNL     1       8.343   4.566  25.259  0.00  0.00    +0.015 A 
ATOM     22  C   UNL     1       7.727   3.405  25.716  0.00  0.00    +0.003 A 
ATOM     23  C   UNL     1       8.115   2.156  25.215  0.00  0.00    +0.023 A 
ENDBRANCH  14  17
ENDBRANCH   1  13
TORSDOF 3
ENDMDL
MODEL 8
REMARK VINA RESULT:      -6.1      3.815      5.604
REMARK  Name = 
REMARK  3 active torsions:
REMARK  status: ('A' for Active; 'I' for Inactive)
REMARK    1  A    between atoms: C_2  and  C_14
REMARK    2  A    between atoms: N_4  and  C_5
REMARK    3  A    between atoms: N_16  and  C_17
REMARK                            x       y       z     vdW  Elec       q    Type
REMARK                         _______ _______ _______ _____ _____    ______ ____
ROOT
ATOM      1  C   UNL     1       6.962   0.800  25.558  0.00  0.00    +0.101 C 
ATOM      2  C   UNL     1       5.995   0.207  24.539  0.00  0.00    +0.110 C 
ATOM      3  C   UNL     1       6.850  -0.707  23.698  0.00  0.00    +0.217 C 
ATOM      4  O   UNL     1       6.419  -1.438  22.827  0.00  0.00    -0.276 OA
ATOM      5  N   UNL     1       8.181  -0.470  24.044  0.00  0.00    -0.298 N 
ATOM      6  C   UNL     1       8.235   0.003  25.408  0.00  0.00    +0.121 C 
ENDROOT
BRANCH   5   7
ATOM      7  C   UNL     1       9.359  -0.972  23.302  0.00  0.00    +0.076 C 
ATOM      8  C   UNL     1      10.660  -0.268  23.743  0.00  0.00    +0.022 C 
ATOM      9  C   UNL     1      10.570   1.246  23.531  0.00  0.00    +0.002 C 
ATOM     10  C   UNL     1      10.134   1.647  22.121  0.00  0.00    +0.000 C 
ATOM     11  C   UNL     1       9.025   0.788  21.518  0.00  0.00    +0.002 C 
ATOM     12  C   UNL     1       9.234  -0.703  21.788  0.00  0.00    +0.022 C 
ENDBRANCH   5   7
BRANCH   1  13
ATOM     13  C   UNL     1       7.270   2.298  25.481  0.00  0.00    +0.222 C 
ATOM     14  N   UNL     1       7.414   2.879  24.235  0.00  0.00    -0.285 N 
ATOM     15  H   UNL     1       7.084   2.370  23.424  0.00  0.00    +0.155 HD
ATOM     16  O   UNL     1       7.449   2.893  26.545  0.00  0.00    -0.275 OA
BRANCH  14  17
ATOM     17  C   UNL     1       7.922   4.184  23.979  0.00  0.00    +0.034 A 
ATOM     18  C   UNL     1       9.295   4.407  24.138  0.00  0.00    +0.038 A 
ATOM     19  C   UNL     1       9.845   5.665  23.861  0.00  0.00    +0.020 A 
ATOM     20 BR   UNL     1      11.712   5.930  24.012  0.00  0.00    -0.050 Br
ATOM     21  C   UNL     1       9.037   6.725  23.459  0.00  0.00    +0.015 A 
ATOM     22  C   UNL     1       7.665   6.524  23.345  0.00  0.00    +0.003 A 
ATOM     23  C   UNL     1       7.112   5.264  23.604  0.00  0.00    +0.023 A 
ENDBRANCH  14  17
ENDBRANCH   1  13
TORSDOF 3
ENDMDL
MODEL 9
REMARK VINA RESULT:      -6.1      2.923      6.744
REMARK  Name = 
REMARK  3 active torsions:
REMARK  status: ('A' for Active; 'I' for Inactive)
REMARK    1  A    between atoms: C_2  and  C_14
REMARK    2  A    between atoms: N_4  and  C_5
REMARK    3  A    between atoms: N_16  and  C_17
REMARK                            x       y       z     vdW  Elec       q    Type
REMARK                         _______ _______ _______ _____ _____    ______ ____
ROOT
ATOM      1  C   UNL     1       9.258  -0.604  24.884  0.00  0.00    +0.101 C 
ATOM      2  C   UNL     1      10.479  -0.003  24.194  0.00  0.00    +0.110 C 
ATOM      3  C   UNL     1      10.235   1.484  24.228  0.00  0.00    +0.217 C 
ATOM      4  O   UNL     1      11.037   2.317  23.853  0.00  0.00    -0.276 OA
ATOM      5  N   UNL     1       8.925   1.683  24.664  0.00  0.00    -0.298 N 
ATOM      6  C   UNL     1       8.531   0.569  25.494  0.00  0.00    +0.121 C 
ENDROOT
BRANCH   5   7
ATOM      7  C   UNL     1       8.195   2.970  24.616  0.00  0.00    +0.076 C 
ATOM      8  C   UNL     1       6.693   2.792  24.923  0.00  0.00    +0.022 C 
ATOM      9  C   UNL     1       6.034   1.831  23.929  0.00  0.00    +0.002 C 
ATOM     10  C   UNL     1       6.297   2.183  22.464  0.00  0.00    +0.000 C 
ATOM     11  C   UNL     1       7.719   2.645  22.154  0.00  0.00    +0.002 C 
ATOM     12  C   UNL     1       8.259   3.609  23.213  0.00  0.00    +0.022 C 
ENDBRANCH   5   7
BRANCH   1  13
ATOM     13  C   UNL     1       8.289  -1.443  24.045  0.00  0.00    +0.222 C 
ATOM     14  N   UNL     1       7.877  -2.666  24.539  0.00  0.00    -0.285 N 
ATOM     15  H   UNL     1       8.028  -2.866  25.520  0.00  0.00    +0.155 HD
ATOM     16  O   UNL     1       7.989  -1.010  22.931  0.00  0.00    -0.275 OA
BRANCH  14  17
ATOM     17  C   UNL     1       7.176  -3.665  23.806  0.00  0.00    +0.034 A 
ATOM     18  C   UNL     1       5.806  -3.827  24.045  0.00  0.00    +0.038 A 
ATOM     19  C   UNL     1       5.068  -4.771  23.321  0.00  0.00    +0.020 A 
ATOM     20 BR   UNL     1       3.203  -4.927  23.604  0.00  0.00    -0.050 Br
ATOM     21  C   UNL     1       5.684  -5.591  22.379  0.00  0.00    +0.015 A 
ATOM     22  C   UNL     1       7.054  -5.469  22.170  0.00  0.00    +0.003 A 
ATOM     23  C   UNL     1       7.794  -4.515  22.880  0.00  0.00    +0.023 A 
ENDBRANCH  14  17
ENDBRANCH   1  13
TORSDOF 3
ENDMDL
