MODEL 1
REMARK VINA RESULT:      -6.9      0.000      0.000
REMARK  Name = 
REMARK  7 active torsions:
REMARK  status: ('A' for Active; 'I' for Inactive)
REMARK    1  A    between atoms: C_1  and  N_2
REMARK    2  A    between atoms: N_2  and  S_3
REMARK    3  A    between atoms: S_3  and  C_6
REMARK    4  A    between atoms: C_9  and  N_10
REMARK    5  A    between atoms: C_13  and  C_17
REMARK    6  A    between atoms: C_20  and  C_21
REMARK    7  A    between atoms: N_22  and  C_23
REMARK                            x       y       z     vdW  Elec       q    Type
REMARK                         _______ _______ _______ _____ _____    ______ ____
ROOT
ATOM      1  N   UNL     1       7.900  -2.448  21.886  0.00  0.00    -0.284 N 
ATOM      2  H   UNL     1       7.783  -2.524  20.886  0.00  0.00    +0.155 HD
ATOM      3  C   UNL     1       7.450  -3.625  22.481  0.00  0.00    +0.220 A 
ATOM      4  N   UNL     1       7.048  -4.584  21.632  0.00  0.00    -0.223 NA
ATOM      5  C   UNL     1       6.576  -5.722  22.172  0.00  0.00    +0.116 A 
ATOM      6  C   UNL     1       6.467  -5.935  23.522  0.00  0.00    +0.050 A 
ATOM      7  C   UNL     1       6.855  -4.882  24.318  0.00  0.00    +0.094 A 
ATOM      8  N   UNL     1       7.379  -3.754  23.813  0.00  0.00    -0.213 NA
ENDROOT
BRANCH   1  12
ATOM      9  C   UNL     1       9.049   1.372  23.260  0.00  0.00    +0.105 A 
ATOM     10  C   UNL     1       9.696   0.780  22.177  0.00  0.00    +0.030 A 
ATOM     11  C   UNL     1       9.318  -0.501  21.760  0.00  0.00    +0.025 A 
ATOM     12  C   UNL     1       8.281  -1.202  22.399  0.00  0.00    +0.034 A 
ATOM     13  C   UNL     1       7.662  -0.590  23.497  0.00  0.00    +0.025 A 
ATOM     14  C   UNL     1       8.029   0.691  23.924  0.00  0.00    +0.030 A 
BRANCH   9  15
ATOM     15  S   UNL     1       9.448   3.034  23.721  0.00  0.00    +0.058 S 
ATOM     16  O   UNL     1       8.831   3.319  24.997  0.00  0.00    -0.153 OA
ATOM     17  O   UNL     1      10.867   3.235  23.507  0.00  0.00    -0.153 OA
BRANCH  15  19
ATOM     18  C   UNL     1       7.227   3.799  22.401  0.00  0.00    +0.127 C 
ATOM     19  N   UNL     1       8.670   3.944  22.546  0.00  0.00    -0.193 NA
ATOM     20  H   UNL     1       9.067   4.879  22.465  0.00  0.00    +0.148 HD
ENDBRANCH  15  19
ENDBRANCH   9  15
ENDBRANCH   1  12
BRANCH   7  21
ATOM     21  C   UNL     1       6.697  -4.915  25.771  0.00  0.00    +0.088 A 
ATOM     22  N   UNL     1       5.549  -4.629  26.506  0.00  0.00    -0.323 N 
ATOM     23  C   UNL     1       5.827  -4.886  27.840  0.00  0.00    +0.107 A 
ATOM     24  C   UNL     1       4.909  -4.688  28.987  0.00  0.00    +0.086 C 
ATOM     25  N   UNL     1       7.062  -5.329  27.981  0.00  0.00    -0.240 NA
ATOM     26  C   UNL     1       7.596  -5.353  26.727  0.00  0.00    +0.140 A 
BRANCH  22  27
ATOM     27  C   UNL     1       4.272  -4.253  25.910  0.00  0.00    +0.089 C 
ATOM     28  C   UNL     1       4.022  -3.267  24.790  0.00  0.00    +0.027 C 
ATOM     29  C   UNL     1       3.649  -2.900  26.187  0.00  0.00    +0.027 C 
ENDBRANCH  22  27
ENDBRANCH   7  21
TORSDOF 5
ENDMDL
MODEL 2
REMARK VINA RESULT:      -6.9      4.021      8.769
REMARK  Name = 
REMARK  7 active torsions:
REMARK  status: ('A' for Active; 'I' for Inactive)
REMARK    1  A    between atoms: C_1  and  N_2
REMARK    2  A    between atoms: N_2  and  S_3
REMARK    3  A    between atoms: S_3  and  C_6
REMARK    4  A    between atoms: C_9  and  N_10
REMARK    5  A    between atoms: C_13  and  C_17
REMARK    6  A    between atoms: C_20  and  C_21
REMARK    7  A    between atoms: N_22  and  C_23
REMARK                            x       y       z     vdW  Elec       q    Type
REMARK                         _______ _______ _______ _____ _____    ______ ____
ROOT
ATOM      1  N   UNL     1      10.973   2.156  23.310  0.00  0.00    -0.284 N 
ATOM      2  H   UNL     1      11.940   2.092  23.027  0.00  0.00    +0.155 HD
ATOM      3  C   UNL     1      10.669   3.490  23.571  0.00  0.00    +0.220 A 
ATOM      4  N   UNL     1      11.658   4.365  23.330  0.00  0.00    -0.223 NA
ATOM      5  C   UNL     1      11.412   5.659  23.602  0.00  0.00    +0.116 A 
ATOM      6  C   UNL     1      10.229   6.114  24.126  0.00  0.00    +0.050 A 
ATOM      7  C   UNL     1       9.289   5.143  24.388  0.00  0.00    +0.094 A 
ATOM      8  N   UNL     1       9.484   3.852  24.079  0.00  0.00    -0.213 NA
ENDROOT
BRANCH   1  12
ATOM      9  C   UNL     1       8.995  -1.532  23.844  0.00  0.00    +0.105 A 
ATOM     10  C   UNL     1       9.133  -0.976  22.574  0.00  0.00    +0.030 A 
ATOM     11  C   UNL     1       9.765   0.264  22.426  0.00  0.00    +0.025 A 
ATOM     12  C   UNL     1      10.285   0.956  23.533  0.00  0.00    +0.034 A 
ATOM     13  C   UNL     1      10.114   0.382  24.799  0.00  0.00    +0.025 A 
ATOM     14  C   UNL     1       9.485  -0.858  24.962  0.00  0.00    +0.030 A 
BRANCH   9  15
ATOM     15  S   UNL     1       8.295  -3.149  24.024  0.00  0.00    +0.058 S 
ATOM     16  O   UNL     1       7.367  -3.128  25.133  0.00  0.00    -0.153 OA
ATOM     17  O   UNL     1       7.894  -3.617  22.712  0.00  0.00    -0.153 OA
BRANCH  15  19
ATOM     18  C   UNL     1       9.392  -5.253  25.302  0.00  0.00    +0.127 C 
ATOM     19  N   UNL     1       9.618  -4.081  24.463  0.00  0.00    -0.193 NA
ATOM     20  H   UNL     1      10.297  -4.159  23.707  0.00  0.00    +0.148 HD
ENDBRANCH  15  19
ENDBRANCH   9  15
ENDBRANCH   1  12
BRANCH   7  21
ATOM     21  C   UNL     1       8.022   5.457  25.046  0.00  0.00    +0.088 A 
ATOM     22  N   UNL     1       6.785   5.678  24.443  0.00  0.00    -0.323 N 
ATOM     23  C   UNL     1       5.847   5.840  25.451  0.00  0.00    +0.107 A 
ATOM     24  C   UNL     1       4.404   6.134  25.275  0.00  0.00    +0.086 C 
ATOM     25  N   UNL     1       6.412   5.716  26.637  0.00  0.00    -0.240 NA
ATOM     26  C   UNL     1       7.733   5.478  26.398  0.00  0.00    +0.140 A 
BRANCH  22  27
ATOM     27  C   UNL     1       6.557   5.613  23.003  0.00  0.00    +0.089 C 
ATOM     28  C   UNL     1       7.412   6.192  21.898  0.00  0.00    +0.027 C 
ATOM     29  C   UNL     1       6.107   6.835  22.228  0.00  0.00    +0.027 C 
ENDBRANCH  22  27
ENDBRANCH   7  21
TORSDOF 5
ENDMDL
MODEL 3
REMARK VINA RESULT:      -6.7      2.013      2.704
REMARK  Name = 
REMARK  7 active torsions:
REMARK  status: ('A' for Active; 'I' for Inactive)
REMARK    1  A    between atoms: C_1  and  N_2
REMARK    2  A    between atoms: N_2  and  S_3
REMARK    3  A    between atoms: S_3  and  C_6
REMARK    4  A    between atoms: C_9  and  N_10
REMARK    5  A    between atoms: C_13  and  C_17
REMARK    6  A    between atoms: C_20  and  C_21
REMARK    7  A    between atoms: N_22  and  C_23
REMARK                            x       y       z     vdW  Elec       q    Type
REMARK                         _______ _______ _______ _____ _____    ______ ____
ROOT
ATOM      1  N   UNL     1       9.879  -1.955  24.092  0.00  0.00    -0.284 N 
ATOM      2  H   UNL     1      10.716  -2.302  23.645  0.00  0.00    +0.155 HD
ATOM      3  C   UNL     1       9.192  -3.028  24.654  0.00  0.00    +0.220 A 
ATOM      4  N   UNL     1       9.800  -4.220  24.549  0.00  0.00    -0.223 NA
ATOM      5  C   UNL     1       9.150  -5.286  25.052  0.00  0.00    +0.116 A 
ATOM      6  C   UNL     1       7.910  -5.215  25.634  0.00  0.00    +0.050 A 
ATOM      7  C   UNL     1       7.341  -3.963  25.656  0.00  0.00    +0.094 A 
ATOM      8  N   UNL     1       7.984  -2.873  25.211  0.00  0.00    -0.213 NA
ENDROOT
BRANCH   1  12
ATOM      9  C   UNL     1       8.711   2.052  23.472  0.00  0.00    +0.105 A 
ATOM     10  C   UNL     1       8.173   1.025  22.698  0.00  0.00    +0.030 A 
ATOM     11  C   UNL     1       8.600  -0.291  22.901  0.00  0.00    +0.025 A 
ATOM     12  C   UNL     1       9.549  -0.609  23.887  0.00  0.00    +0.034 A 
ATOM     13  C   UNL     1      10.087   0.446  24.637  0.00  0.00    +0.025 A 
ATOM     14  C   UNL     1       9.668   1.768  24.446  0.00  0.00    +0.030 A 
BRANCH   9  15
ATOM     15  S   UNL     1       8.094   3.702  23.295  0.00  0.00    +0.058 S 
ATOM     16  O   UNL     1       7.427   3.809  22.017  0.00  0.00    -0.153 OA
ATOM     17  O   UNL     1       7.428   4.071  24.528  0.00  0.00    -0.153 OA
BRANCH  15  19
ATOM     18  C   UNL     1       9.406   6.044  23.536  0.00  0.00    +0.127 C 
ATOM     19  N   UNL     1       9.497   4.620  23.234  0.00  0.00    -0.193 NA
ATOM     20  H   UNL     1      10.302   4.107  23.588  0.00  0.00    +0.148 HD
ENDBRANCH  15  19
ENDBRANCH   9  15
ENDBRANCH   1  12
BRANCH   7  21
ATOM     21  C   UNL     1       5.980  -3.744  26.145  0.00  0.00    +0.088 A 
ATOM     22  N   UNL     1       4.793  -3.843  25.422  0.00  0.00    -0.323 N 
ATOM     23  C   UNL     1       3.743  -3.652  26.307  0.00  0.00    +0.107 A 
ATOM     24  C   UNL     1       2.299  -3.635  25.973  0.00  0.00    +0.086 C 
ATOM     25  N   UNL     1       4.196  -3.460  27.532  0.00  0.00    -0.240 NA
ATOM     26  C   UNL     1       5.555  -3.520  27.441  0.00  0.00    +0.140 A 
BRANCH  22  27
ATOM     27  C   UNL     1       4.725  -4.209  24.011  0.00  0.00    +0.089 C 
ATOM     28  C   UNL     1       3.606  -4.925  23.289  0.00  0.00    +0.027 C 
ATOM     29  C   UNL     1       4.878  -5.651  23.571  0.00  0.00    +0.027 C 
ENDBRANCH  22  27
ENDBRANCH   7  21
TORSDOF 5
ENDMDL
MODEL 4
REMARK VINA RESULT:      -6.7      3.943      8.724
REMARK  Name = 
REMARK  7 active torsions:
REMARK  status: ('A' for Active; 'I' for Inactive)
REMARK    1  A    between atoms: C_1  and  N_2
REMARK    2  A    between atoms: N_2  and  S_3
REMARK    3  A    between atoms: S_3  and  C_6
REMARK    4  A    between atoms: C_9  and  N_10
REMARK    5  A    between atoms: C_13  and  C_17
REMARK    6  A    between atoms: C_20  and  C_21
REMARK    7  A    between atoms: N_22  and  C_23
REMARK                            x       y       z     vdW  Elec       q    Type
REMARK                         _______ _______ _______ _____ _____    ______ ____
ROOT
ATOM      1  N   UNL     1      10.970   2.241  23.281  0.00  0.00    -0.284 N 
ATOM      2  H   UNL     1      11.940   2.172  23.009  0.00  0.00    +0.155 HD
ATOM      3  C   UNL     1      10.678   3.572  23.568  0.00  0.00    +0.220 A 
ATOM      4  N   UNL     1      11.680   4.441  23.360  0.00  0.00    -0.223 NA
ATOM      5  C   UNL     1      11.444   5.731  23.659  0.00  0.00    +0.116 A 
ATOM      6  C   UNL     1      10.259   6.187  24.178  0.00  0.00    +0.050 A 
ATOM      7  C   UNL     1       9.305   5.222  24.404  0.00  0.00    +0.094 A 
ATOM      8  N   UNL     1       9.490   3.936  24.068  0.00  0.00    -0.213 NA
ENDROOT
BRANCH   1  12
ATOM      9  C   UNL     1       8.945  -1.436  23.705  0.00  0.00    +0.105 A 
ATOM     10  C   UNL     1       9.120  -0.861  22.448  0.00  0.00    +0.030 A 
ATOM     11  C   UNL     1       9.767   0.375  22.336  0.00  0.00    +0.025 A 
ATOM     12  C   UNL     1      10.266   1.045  23.467  0.00  0.00    +0.034 A 
ATOM     13  C   UNL     1      10.057   0.452  24.719  0.00  0.00    +0.025 A 
ATOM     14  C   UNL     1       9.413  -0.785  24.846  0.00  0.00    +0.030 A 
BRANCH   9  15
ATOM     15  S   UNL     1       8.225  -3.048  23.841  0.00  0.00    +0.058 S 
ATOM     16  O   UNL     1       9.281  -4.003  24.097  0.00  0.00    -0.153 OA
ATOM     17  O   UNL     1       7.065  -2.955  24.705  0.00  0.00    -0.153 OA
BRANCH  15  19
ATOM     18  C   UNL     1       6.202  -3.567  22.138  0.00  0.00    +0.127 C 
ATOM     19  N   UNL     1       7.631  -3.323  22.296  0.00  0.00    -0.193 NA
ATOM     20  H   UNL     1       8.097  -2.742  21.601  0.00  0.00    +0.148 HD
ENDBRANCH  15  19
ENDBRANCH   9  15
ENDBRANCH   1  12
BRANCH   7  21
ATOM     21  C   UNL     1       8.033   5.535  25.052  0.00  0.00    +0.088 A 
ATOM     22  N   UNL     1       6.802   5.764  24.439  0.00  0.00    -0.323 N 
ATOM     23  C   UNL     1       5.856   5.922  25.439  0.00  0.00    +0.107 A 
ATOM     24  C   UNL     1       4.415   6.221  25.252  0.00  0.00    +0.086 C 
ATOM     25  N   UNL     1       6.409   5.789  26.630  0.00  0.00    -0.240 NA
ATOM     26  C   UNL     1       7.731   5.550  26.402  0.00  0.00    +0.140 A 
BRANCH  22  27
ATOM     27  C   UNL     1       6.587   5.708  22.997  0.00  0.00    +0.089 C 
ATOM     28  C   UNL     1       7.455   6.290  21.903  0.00  0.00    +0.027 C 
ATOM     29  C   UNL     1       6.149   6.936  22.225  0.00  0.00    +0.027 C 
ENDBRANCH  22  27
ENDBRANCH   7  21
TORSDOF 5
ENDMDL
MODEL 5
REMARK VINA RESULT:      -6.7      1.498      1.582
REMARK  Name = 
REMARK  7 active torsions:
REMARK  status: ('A' for Active; 'I' for Inactive)
REMARK    1  A    between atoms: C_1  and  N_2
REMARK    2  A    between atoms: N_2  and  S_3
REMARK    3  A    between atoms: S_3  and  C_6
REMARK    4  A    between atoms: C_9  and  N_10
REMARK    5  A    between atoms: C_13  and  C_17
REMARK    6  A    between atoms: C_20  and  C_21
REMARK    7  A    between atoms: N_22  and  C_23
REMARK                            x       y       z     vdW  Elec       q    Type
REMARK                         _______ _______ _______ _____ _____    ______ ____
ROOT
ATOM      1  N   UNL     1       6.641  -3.022  22.200  0.00  0.00    -0.284 N 
ATOM      2  H   UNL     1       6.251  -3.008  21.269  0.00  0.00    +0.155 HD
ATOM      3  C   UNL     1       6.085  -4.087  22.904  0.00  0.00    +0.220 A 
ATOM      4  N   UNL     1       5.249  -4.869  22.203  0.00  0.00    -0.223 NA
ATOM      5  C   UNL     1       4.666  -5.889  22.860  0.00  0.00    +0.116 A 
ATOM      6  C   UNL     1       4.865  -6.147  24.192  0.00  0.00    +0.050 A 
ATOM      7  C   UNL     1       5.699  -5.268  24.844  0.00  0.00    +0.094 A 
ATOM      8  N   UNL     1       6.336  -4.273  24.207  0.00  0.00    -0.213 NA
ENDROOT
BRANCH   1  12
ATOM      9  C   UNL     1       9.142   0.229  23.187  0.00  0.00    +0.105 A 
ATOM     10  C   UNL     1       9.679  -0.956  22.688  0.00  0.00    +0.030 A 
ATOM     11  C   UNL     1       8.832  -2.031  22.399  0.00  0.00    +0.025 A 
ATOM     12  C   UNL     1       7.442  -1.937  22.580  0.00  0.00    +0.034 A 
ATOM     13  C   UNL     1       6.933  -0.740  23.101  0.00  0.00    +0.025 A 
ATOM     14  C   UNL     1       7.768   0.344  23.395  0.00  0.00    +0.030 A 
BRANCH   9  15
ATOM     15  S   UNL     1      10.196   1.628  23.451  0.00  0.00    +0.058 S 
ATOM     16  O   UNL     1      11.311   1.216  24.274  0.00  0.00    -0.153 OA
ATOM     17  O   UNL     1      10.400   2.288  22.177  0.00  0.00    -0.153 OA
BRANCH  15  19
ATOM     18  C   UNL     1       9.175   4.066  23.979  0.00  0.00    +0.127 C 
ATOM     19  N   UNL     1       9.228   2.658  24.355  0.00  0.00    -0.193 NA
ATOM     20  H   UNL     1       8.361   2.208  24.646  0.00  0.00    +0.148 HD
ENDBRANCH  15  19
ENDBRANCH   9  15
ENDBRANCH   1  12
BRANCH   7  21
ATOM     21  C   UNL     1       5.924  -5.347  26.287  0.00  0.00    +0.088 A 
ATOM     22  N   UNL     1       5.042  -4.990  27.304  0.00  0.00    -0.323 N 
ATOM     23  C   UNL     1       5.633  -5.326  28.512  0.00  0.00    +0.107 A 
ATOM     24  C   UNL     1       5.071  -5.094  29.865  0.00  0.00    +0.086 C 
ATOM     25  N   UNL     1       6.813  -5.883  28.315  0.00  0.00    -0.240 NA
ATOM     26  C   UNL     1       6.995  -5.903  26.964  0.00  0.00    +0.140 A 
BRANCH  22  27
ATOM     27  C   UNL     1       3.696  -4.476  27.073  0.00  0.00    +0.089 C 
ATOM     28  C   UNL     1       3.262  -3.414  26.088  0.00  0.00    +0.027 C 
ATOM     29  C   UNL     1       3.297  -3.093  27.544  0.00  0.00    +0.027 C 
ENDBRANCH  22  27
ENDBRANCH   7  21
TORSDOF 5
ENDMDL
MODEL 6
REMARK VINA RESULT:      -6.5      3.987      8.531
REMARK  Name = 
REMARK  7 active torsions:
REMARK  status: ('A' for Active; 'I' for Inactive)
REMARK    1  A    between atoms: C_1  and  N_2
REMARK    2  A    between atoms: N_2  and  S_3
REMARK    3  A    between atoms: S_3  and  C_6
REMARK    4  A    between atoms: C_9  and  N_10
REMARK    5  A    between atoms: C_13  and  C_17
REMARK    6  A    between atoms: C_20  and  C_21
REMARK    7  A    between atoms: N_22  and  C_23
REMARK                            x       y       z     vdW  Elec       q    Type
REMARK                         _______ _______ _______ _____ _____    ______ ____
ROOT
ATOM      1  N   UNL     1      10.834   2.536  23.592  0.00  0.00    -0.284 N 
ATOM      2  H   UNL     1      11.820   2.666  23.770  0.00  0.00    +0.155 HD
ATOM      3  C   UNL     1      10.215   3.784  23.559  0.00  0.00    +0.220 A 
ATOM      4  N   UNL     1      11.035   4.838  23.692  0.00  0.00    -0.223 NA
ATOM      5  C   UNL     1      10.469   6.059  23.699  0.00  0.00    +0.116 A 
ATOM      6  C   UNL     1       9.117   6.269  23.602  0.00  0.00    +0.050 A 
ATOM      7  C   UNL     1       8.348   5.132  23.518  0.00  0.00    +0.094 A 
ATOM      8  N   UNL     1       8.885   3.904  23.456  0.00  0.00    -0.213 NA
ENDROOT
BRANCH   1  12
ATOM      9  C   UNL     1       9.247  -1.369  23.775  0.00  0.00    +0.105 A 
ATOM     10  C   UNL     1       9.663  -0.714  24.933  0.00  0.00    +0.030 A 
ATOM     11  C   UNL     1      10.216   0.568  24.842  0.00  0.00    +0.025 A 
ATOM     12  C   UNL     1      10.343   1.225  23.607  0.00  0.00    +0.034 A 
ATOM     13  C   UNL     1       9.935   0.534  22.458  0.00  0.00    +0.025 A 
ATOM     14  C   UNL     1       9.379  -0.749  22.533  0.00  0.00    +0.030 A 
BRANCH   9  15
ATOM     15  S   UNL     1       8.448  -2.944  23.895  0.00  0.00    +0.058 S 
ATOM     16  O   UNL     1       7.441  -2.872  24.930  0.00  0.00    -0.153 OA
ATOM     17  O   UNL     1       8.123  -3.390  22.555  0.00  0.00    -0.153 OA
BRANCH  15  19
ATOM     18  C   UNL     1       9.324  -5.125  25.214  0.00  0.00    +0.127 C 
ATOM     19  N   UNL     1       9.681  -3.948  24.430  0.00  0.00    -0.193 NA
ATOM     20  H   UNL     1      10.422  -4.042  23.738  0.00  0.00    +0.148 HD
ENDBRANCH  15  19
ENDBRANCH   9  15
ENDBRANCH   1  12
BRANCH   7  21
ATOM     21  C   UNL     1       6.887   5.188  23.517  0.00  0.00    +0.088 A 
ATOM     22  N   UNL     1       6.034   5.116  24.617  0.00  0.00    -0.323 N 
ATOM     23  C   UNL     1       4.740   5.313  24.161  0.00  0.00    +0.107 A 
ATOM     24  C   UNL     1       3.503   5.283  24.978  0.00  0.00    +0.086 C 
ATOM     25  N   UNL     1       4.732   5.520  22.858  0.00  0.00    -0.240 NA
ATOM     26  C   UNL     1       6.034   5.450  22.460  0.00  0.00    +0.140 A 
BRANCH  22  27
ATOM     27  C   UNL     1       6.492   4.984  25.996  0.00  0.00    +0.089 C 
ATOM     28  C   UNL     1       7.425   3.941  26.570  0.00  0.00    +0.027 C 
ATOM     29  C   UNL     1       5.969   3.878  26.889  0.00  0.00    +0.027 C 
ENDBRANCH  22  27
ENDBRANCH   7  21
TORSDOF 5
ENDMDL
MODEL 7
REMARK VINA RESULT:      -6.5      4.509      7.808
REMARK  Name = 
REMARK  7 active torsions:
REMARK  status: ('A' for Active; 'I' for Inactive)
REMARK    1  A    between atoms: C_1  and  N_2
REMARK    2  A    between atoms: N_2  and  S_3
REMARK    3  A    between atoms: S_3  and  C_6
REMARK    4  A    between atoms: C_9  and  N_10
REMARK    5  A    between atoms: C_13  and  C_17
REMARK    6  A    between atoms: C_20  and  C_21
REMARK    7  A    between atoms: N_22  and  C_23
REMARK                            x       y       z     vdW  Elec       q    Type
REMARK                         _______ _______ _______ _____ _____    ______ ____
ROOT
ATOM      1  N   UNL     1       8.305  -4.068  23.514  0.00  0.00    -0.284 N 
ATOM      2  H   UNL     1       9.032  -4.684  23.178  0.00  0.00    +0.155 HD
ATOM      3  C   UNL     1       8.791  -2.762  23.517  0.00  0.00    +0.220 A 
ATOM      4  N   UNL     1      10.031  -2.607  23.029  0.00  0.00    -0.223 NA
ATOM      5  C   UNL     1      10.546  -1.364  23.047  0.00  0.00    +0.116 A 
ATOM      6  C   UNL     1       9.884  -0.274  23.554  0.00  0.00    +0.050 A 
ATOM      7  C   UNL     1       8.639  -0.533  24.078  0.00  0.00    +0.094 A 
ATOM      8  N   UNL     1       8.076  -1.751  24.027  0.00  0.00    -0.213 NA
ENDROOT
BRANCH   1  12
ATOM      9  C   UNL     1       4.809  -5.962  24.922  0.00  0.00    +0.105 A 
ATOM     10  C   UNL     1       4.923  -5.580  23.587  0.00  0.00    +0.030 A 
ATOM     11  C   UNL     1       6.079  -4.925  23.151  0.00  0.00    +0.025 A 
ATOM     12  C   UNL     1       7.145  -4.659  24.028  0.00  0.00    +0.034 A 
ATOM     13  C   UNL     1       6.993  -5.037  25.369  0.00  0.00    +0.025 A 
ATOM     14  C   UNL     1       5.842  -5.695  25.819  0.00  0.00    +0.030 A 
BRANCH   9  15
ATOM     15  S   UNL     1       3.396  -6.888  25.453  0.00  0.00    +0.058 S 
ATOM     16  O   UNL     1       2.240  -6.020  25.428  0.00  0.00    -0.153 OA
ATOM     17  O   UNL     1       3.401  -8.160  24.759  0.00  0.00    -0.153 OA
BRANCH  15  19
ATOM     18  C   UNL     1       2.819  -6.805  28.084  0.00  0.00    +0.127 C 
ATOM     19  N   UNL     1       3.757  -7.234  27.055  0.00  0.00    -0.193 NA
ATOM     20  H   UNL     1       4.193  -8.150  27.156  0.00  0.00    +0.148 HD
ENDBRANCH  15  19
ENDBRANCH   9  15
ENDBRANCH   1  12
BRANCH   7  21
ATOM     21  C   UNL     1       7.856   0.502  24.750  0.00  0.00    +0.088 A 
ATOM     22  N   UNL     1       7.042   1.467  24.160  0.00  0.00    -0.323 N 
ATOM     23  C   UNL     1       6.417   2.171  25.178  0.00  0.00    +0.107 A 
ATOM     24  C   UNL     1       5.488   3.316  25.018  0.00  0.00    +0.086 C 
ATOM     25  N   UNL     1       6.772   1.698  26.357  0.00  0.00    -0.240 NA
ATOM     26  C   UNL     1       7.643   0.681  26.105  0.00  0.00    +0.140 A 
BRANCH  22  27
ATOM     27  C   UNL     1       6.827   1.584  22.722  0.00  0.00    +0.089 C 
ATOM     28  C   UNL     1       7.863   1.806  21.642  0.00  0.00    +0.027 C 
ATOM     29  C   UNL     1       6.948   2.922  22.021  0.00  0.00    +0.027 C 
ENDBRANCH  22  27
ENDBRANCH   7  21
TORSDOF 5
ENDMDL
MODEL 8
REMARK VINA RESULT:      -6.4      3.627      8.501
REMARK  Name = 
REMARK  7 active torsions:
REMARK  status: ('A' for Active; 'I' for Inactive)
REMARK    1  A    between atoms: C_1  and  N_2
REMARK    2  A    between atoms: N_2  and  S_3
REMARK    3  A    between atoms: S_3  and  C_6
REMARK    4  A    between atoms: C_9  and  N_10
REMARK    5  A    between atoms: C_13  and  C_17
REMARK    6  A    between atoms: C_20  and  C_21
REMARK    7  A    between atoms: N_22  and  C_23
REMARK                            x       y       z     vdW  Elec       q    Type
REMARK                         _______ _______ _______ _____ _____    ______ ____
ROOT
ATOM      1  N   UNL     1      10.958   2.061  23.646  0.00  0.00    -0.284 N 
ATOM      2  H   UNL     1      11.948   2.036  23.846  0.00  0.00    +0.155 HD
ATOM      3  C   UNL     1      10.552   3.391  23.562  0.00  0.00    +0.220 A 
ATOM      4  N   UNL     1      11.529   4.302  23.686  0.00  0.00    -0.223 NA
ATOM      5  C   UNL     1      11.169   5.598  23.644  0.00  0.00    +0.116 A 
ATOM      6  C   UNL     1       9.872   6.022  23.506  0.00  0.00    +0.050 A 
ATOM      7  C   UNL     1       8.930   5.022  23.435  0.00  0.00    +0.094 A 
ATOM      8  N   UNL     1       9.261   3.722  23.421  0.00  0.00    -0.213 NA
ENDROOT
BRANCH   1  12
ATOM      9  C   UNL     1       8.967  -1.658  23.635  0.00  0.00    +0.105 A 
ATOM     10  C   UNL     1       9.262  -1.005  22.440  0.00  0.00    +0.030 A 
ATOM     11  C   UNL     1       9.894   0.243  22.470  0.00  0.00    +0.025 A 
ATOM     12  C   UNL     1      10.261   0.848  23.685  0.00  0.00    +0.034 A 
ATOM     13  C   UNL     1       9.934   0.177  24.871  0.00  0.00    +0.025 A 
ATOM     14  C   UNL     1       9.303  -1.073  24.855  0.00  0.00    +0.030 A 
BRANCH   9  15
ATOM     15  S   UNL     1       8.267  -3.284  23.598  0.00  0.00    +0.058 S 
ATOM     16  O   UNL     1       7.738  -3.528  22.275  0.00  0.00    -0.153 OA
ATOM     17  O   UNL     1       9.210  -4.197  24.214  0.00  0.00    -0.153 OA
BRANCH  15  19
ATOM     18  C   UNL     1       5.803  -2.406  24.245  0.00  0.00    +0.127 C 
ATOM     19  N   UNL     1       6.979  -3.160  24.665  0.00  0.00    -0.193 NA
ATOM     20  H   UNL     1       6.832  -4.023  25.186  0.00  0.00    +0.148 HD
ENDBRANCH  15  19
ENDBRANCH   9  15
ENDBRANCH   1  12
BRANCH   7  21
ATOM     21  C   UNL     1       7.498   5.314  23.394  0.00  0.00    +0.088 A 
ATOM     22  N   UNL     1       6.605   5.329  24.464  0.00  0.00    -0.323 N 
ATOM     23  C   UNL     1       5.377   5.754  23.981  0.00  0.00    +0.107 A 
ATOM     24  C   UNL     1       4.121   5.886  24.759  0.00  0.00    +0.086 C 
ATOM     25  N   UNL     1       5.450   6.022  22.692  0.00  0.00    -0.240 NA
ATOM     26  C   UNL     1       6.738   5.761  22.329  0.00  0.00    +0.140 A 
BRANCH  22  27
ATOM     27  C   UNL     1       6.983   5.057  25.846  0.00  0.00    +0.089 C 
ATOM     28  C   UNL     1       7.548   3.778  26.422  0.00  0.00    +0.027 C 
ATOM     29  C   UNL     1       6.138   4.158  26.725  0.00  0.00    +0.027 C 
ENDBRANCH  22  27
ENDBRANCH   7  21
TORSDOF 5
ENDMDL
MODEL 9
REMARK VINA RESULT:      -6.4      2.023      4.327
REMARK  Name = 
REMARK  7 active torsions:
REMARK  status: ('A' for Active; 'I' for Inactive)
REMARK    1  A    between atoms: C_1  and  N_2
REMARK    2  A    between atoms: N_2  and  S_3
REMARK    3  A    between atoms: S_3  and  C_6
REMARK    4  A    between atoms: C_9  and  N_10
REMARK    5  A    between atoms: C_13  and  C_17
REMARK    6  A    between atoms: C_20  and  C_21
REMARK    7  A    between atoms: N_22  and  C_23
REMARK                            x       y       z     vdW  Elec       q    Type
REMARK                         _______ _______ _______ _____ _____    ______ ____
ROOT
ATOM      1  N   UNL     1       5.316  -0.083  26.448  0.00  0.00    -0.284 N 
ATOM      2  H   UNL     1       5.105   0.335  27.343  0.00  0.00    +0.155 HD
ATOM      3  C   UNL     1       4.592  -1.266  26.323  0.00  0.00    +0.220 A 
ATOM      4  N   UNL     1       3.757  -1.542  27.338  0.00  0.00    -0.223 NA
ATOM      5  C   UNL     1       3.066  -2.694  27.267  0.00  0.00    +0.116 A 
ATOM      6  C   UNL     1       3.190  -3.593  26.238  0.00  0.00    +0.050 A 
ATOM      7  C   UNL     1       4.102  -3.254  25.267  0.00  0.00    +0.094 A 
ATOM      8  N   UNL     1       4.768  -2.089  25.281  0.00  0.00    -0.213 NA
ENDROOT
BRANCH   1  12
ATOM      9  C   UNL     1       8.341   1.812  24.199  0.00  0.00    +0.105 A 
ATOM     10  C   UNL     1       6.995   2.070  23.943  0.00  0.00    +0.030 A 
ATOM     11  C   UNL     1       6.010   1.405  24.681  0.00  0.00    +0.025 A 
ATOM     12  C   UNL     1       6.347   0.493  25.695  0.00  0.00    +0.034 A 
ATOM     13  C   UNL     1       7.707   0.238  25.916  0.00  0.00    +0.025 A 
ATOM     14  C   UNL     1       8.703   0.897  25.186  0.00  0.00    +0.030 A 
BRANCH   9  15
ATOM     15  S   UNL     1       9.590   2.731  23.344  0.00  0.00    +0.058 S 
ATOM     16  O   UNL     1       9.228   4.131  23.367  0.00  0.00    -0.153 OA
ATOM     17  O   UNL     1      10.885   2.278  23.811  0.00  0.00    -0.153 OA
BRANCH  15  19
ATOM     18  C   UNL     1       9.446   0.738  21.536  0.00  0.00    +0.127 C 
ATOM     19  N   UNL     1       9.447   2.177  21.767  0.00  0.00    -0.193 NA
ATOM     20  H   UNL     1       8.806   2.750  21.220  0.00  0.00    +0.148 HD
ENDBRANCH  15  19
ENDBRANCH   9  15
ENDBRANCH   1  12
BRANCH   7  21
ATOM     21  C   UNL     1       4.425  -4.158  24.164  0.00  0.00    +0.088 A 
ATOM     22  N   UNL     1       5.686  -4.601  23.771  0.00  0.00    -0.323 N 
ATOM     23  C   UNL     1       5.511  -5.520  22.748  0.00  0.00    +0.107 A 
ATOM     24  C   UNL     1       6.581  -6.224  22.001  0.00  0.00    +0.086 C 
ATOM     25  N   UNL     1       4.228  -5.692  22.491  0.00  0.00    -0.240 NA
ATOM     26  C   UNL     1       3.561  -4.870  23.351  0.00  0.00    +0.140 A 
BRANCH  22  27
ATOM     27  C   UNL     1       6.927  -4.226  24.441  0.00  0.00    +0.089 C 
ATOM     28  C   UNL     1       8.224  -5.001  24.500  0.00  0.00    +0.027 C 
ATOM     29  C   UNL     1       7.365  -4.915  25.717  0.00  0.00    +0.027 C 
ENDBRANCH  22  27
ENDBRANCH   7  21
TORSDOF 5
ENDMDL
