MODEL 1
REMARK VINA RESULT:      -5.8      0.000      0.000
REMARK  Name = 
REMARK  11 active torsions:
REMARK  status: ('A' for Active; 'I' for Inactive)
REMARK    1  A    between atoms: C_1  and  C_2
REMARK    2  A    between atoms: C_2  and  C_3
REMARK    3  A    between atoms: C_2  and  C_4
REMARK    4  A    between atoms: C_2  and  N_5
REMARK    5  A    between atoms: N_5  and  C_6
REMARK    6  A    between atoms: C_6  and  C_7
REMARK    7  A    between atoms: C_7  and  O_9
REMARK    8  A    between atoms: C_7  and  C_10
REMARK    9  A    between atoms: C_10  and  O_11
REMARK   10  A    between atoms: O_11  and  C_12
REMARK   11  A    between atoms: C_17  and  C_18
REMARK                            x       y       z     vdW  Elec       q    Type
REMARK                         _______ _______ _______ _____ _____    ______ ____
ROOT
ATOM      1  O   UNL     1       9.906  -1.631  23.528  0.00  0.00    -0.489 OA
ENDROOT
BRANCH   1   2
ATOM      2  C   UNL     1       8.999  -1.688  24.558  0.00  0.00    +0.124 A 
ATOM      3  C   UNL     1       7.952  -2.631  24.456  0.00  0.00    -0.003 A 
ATOM      4  C   UNL     1       7.024  -2.705  25.514  0.00  0.00    +0.007 A 
ATOM      5  C   UNL     1       7.099  -1.845  26.609  0.00  0.00    +0.001 A 
ATOM      6  C   UNL     1       8.107  -0.895  26.675  0.00  0.00    +0.004 A 
ATOM      7  C   UNL     1       9.053  -0.814  25.655  0.00  0.00    +0.046 A 
BRANCH   3   8
ATOM      8  C   UNL     1       7.855  -3.565  23.259  0.00  0.00    +0.023 C 
ATOM      9  C   UNL     1       6.665  -3.263  22.327  0.00  0.00    +0.008 C 
ATOM     10  C   UNL     1       6.262  -4.593  21.682  0.00  0.00    +0.001 C 
ATOM     11  C   UNL     1       7.247  -5.629  22.201  0.00  0.00    +0.001 C 
ATOM     12  C   UNL     1       7.685  -5.066  23.542  0.00  0.00    +0.008 C 
ENDBRANCH   3   8
ENDBRANCH   1   2
BRANCH   1  13
ATOM     13  C   UNL     1      10.357  -0.319  23.166  0.00  0.00    +0.261 C 
BRANCH  13  14
ATOM     14  C   UNL     1       9.878   0.042  21.746  0.00  0.00    +0.166 C 
BRANCH  14  15
ATOM     15  O   UNL     1       9.573  -1.142  20.992  0.00  0.00    -0.387 OA
ATOM     16  H   UNL     1       8.636  -1.106  20.738  0.00  0.00    +0.210 HD
ENDBRANCH  14  15
BRANCH  14  17
ATOM     17  C   UNL     1       8.634   0.959  21.721  0.00  0.00    +0.116 C 
BRANCH  17  18
ATOM     18  N   UNL     1       8.957   2.395  21.777  0.00  0.00    -0.309 NA
ATOM     19  H   UNL     1       9.974   2.488  21.787  0.00  0.00    +0.123 HD
BRANCH  18  21
ATOM     20  C   UNL     1       9.556   3.832  23.736  0.00  0.00    +0.027 C 
ATOM     21  C   UNL     1       8.436   3.121  22.956  0.00  0.00    +0.011 C 
ATOM     22  C   UNL     1       7.479   4.201  22.407  0.00  0.00    +0.027 C 
ATOM     23  C   UNL     1       7.634   2.208  23.895  0.00  0.00    +0.027 C 
ENDBRANCH  18  21
ENDBRANCH  17  18
ENDBRANCH  14  17
ENDBRANCH  13  14
ENDBRANCH   1  13
TORSDOF 8
ENDMDL
MODEL 2
REMARK VINA RESULT:      -5.8      3.234      4.903
REMARK  Name = 
REMARK  11 active torsions:
REMARK  status: ('A' for Active; 'I' for Inactive)
REMARK    1  A    between atoms: C_1  and  C_2
REMARK    2  A    between atoms: C_2  and  C_3
REMARK    3  A    between atoms: C_2  and  C_4
REMARK    4  A    between atoms: C_2  and  N_5
REMARK    5  A    between atoms: N_5  and  C_6
REMARK    6  A    between atoms: C_6  and  C_7
REMARK    7  A    between atoms: C_7  and  O_9
REMARK    8  A    between atoms: C_7  and  C_10
REMARK    9  A    between atoms: C_10  and  O_11
REMARK   10  A    between atoms: O_11  and  C_12
REMARK   11  A    between atoms: C_17  and  C_18
REMARK                            x       y       z     vdW  Elec       q    Type
REMARK                         _______ _______ _______ _____ _____    ______ ____
ROOT
ATOM      1  O   UNL     1       7.177  -4.435  26.097  0.00  0.00    -0.489 OA
ENDROOT
BRANCH   1   2
ATOM      2  C   UNL     1       6.136  -5.330  26.072  0.00  0.00    +0.124 A 
ATOM      3  C   UNL     1       5.646  -5.728  24.808  0.00  0.00    -0.003 A 
ATOM      4  C   UNL     1       4.586  -6.656  24.773  0.00  0.00    +0.007 A 
ATOM      5  C   UNL     1       3.999  -7.135  25.944  0.00  0.00    +0.001 A 
ATOM      6  C   UNL     1       4.463  -6.704  27.178  0.00  0.00    +0.004 A 
ATOM      7  C   UNL     1       5.525  -5.805  27.244  0.00  0.00    +0.046 A 
BRANCH   3   8
ATOM      8  C   UNL     1       6.271  -5.199  23.526  0.00  0.00    +0.023 C 
ATOM      9  C   UNL     1       5.762  -3.805  23.112  0.00  0.00    +0.008 C 
ATOM     10  C   UNL     1       5.854  -3.738  21.584  0.00  0.00    +0.001 C 
ATOM     11  C   UNL     1       6.459  -5.060  21.140  0.00  0.00    +0.001 C 
ATOM     12  C   UNL     1       6.064  -6.024  22.244  0.00  0.00    +0.008 C 
ENDBRANCH   3   8
ENDBRANCH   1   2
BRANCH   1  13
ATOM     13  C   UNL     1       8.382  -4.897  26.722  0.00  0.00    +0.261 C 
BRANCH  13  14
ATOM     14  C   UNL     1       9.570  -4.788  25.747  0.00  0.00    +0.166 C 
BRANCH  14  15
ATOM     15  O   UNL     1       9.863  -6.062  25.151  0.00  0.00    -0.387 OA
ATOM     16  H   UNL     1      10.608  -6.457  25.633  0.00  0.00    +0.210 HD
ENDBRANCH  14  15
BRANCH  14  17
ATOM     17  C   UNL     1       9.350  -3.766  24.607  0.00  0.00    +0.116 C 
BRANCH  17  18
ATOM     18  N   UNL     1       8.951  -2.430  25.080  0.00  0.00    -0.309 NA
ATOM     19  H   UNL     1       8.033  -2.513  25.519  0.00  0.00    +0.123 HD
BRANCH  18  21
ATOM     20  C   UNL     1       7.516  -0.617  24.121  0.00  0.00    +0.027 C 
ATOM     21  C   UNL     1       8.845  -1.388  24.035  0.00  0.00    +0.011 C 
ATOM     22  C   UNL     1       9.993  -0.390  24.306  0.00  0.00    +0.027 C 
ATOM     23  C   UNL     1       9.036  -1.958  22.621  0.00  0.00    +0.027 C 
ENDBRANCH  18  21
ENDBRANCH  17  18
ENDBRANCH  14  17
ENDBRANCH  13  14
ENDBRANCH   1  13
TORSDOF 8
ENDMDL
MODEL 3
REMARK VINA RESULT:      -5.8      3.241      4.950
REMARK  Name = 
REMARK  11 active torsions:
REMARK  status: ('A' for Active; 'I' for Inactive)
REMARK    1  A    between atoms: C_1  and  C_2
REMARK    2  A    between atoms: C_2  and  C_3
REMARK    3  A    between atoms: C_2  and  C_4
REMARK    4  A    between atoms: C_2  and  N_5
REMARK    5  A    between atoms: N_5  and  C_6
REMARK    6  A    between atoms: C_6  and  C_7
REMARK    7  A    between atoms: C_7  and  O_9
REMARK    8  A    between atoms: C_7  and  C_10
REMARK    9  A    between atoms: C_10  and  O_11
REMARK   10  A    between atoms: O_11  and  C_12
REMARK   11  A    between atoms: C_17  and  C_18
REMARK                            x       y       z     vdW  Elec       q    Type
REMARK                         _______ _______ _______ _____ _____    ______ ____
ROOT
ATOM      1  O   UNL     1       9.167  -4.693  24.906  0.00  0.00    -0.489 OA
ENDROOT
BRANCH   1   2
ATOM      2  C   UNL     1       9.017  -3.562  24.141  0.00  0.00    +0.124 A 
ATOM      3  C   UNL     1       7.966  -3.546  23.197  0.00  0.00    -0.003 A 
ATOM      4  C   UNL     1       7.797  -2.386  22.416  0.00  0.00    +0.007 A 
ATOM      5  C   UNL     1       8.665  -1.300  22.529  0.00  0.00    +0.001 A 
ATOM      6  C   UNL     1       9.718  -1.346  23.431  0.00  0.00    +0.004 A 
ATOM      7  C   UNL     1       9.896  -2.471  24.233  0.00  0.00    +0.046 A 
BRANCH   3   8
ATOM      8  C   UNL     1       7.024  -4.732  23.056  0.00  0.00    +0.023 C 
ATOM      9  C   UNL     1       7.220  -5.536  21.756  0.00  0.00    +0.008 C 
ATOM     10  C   UNL     1       5.859  -6.142  21.403  0.00  0.00    +0.001 C 
ATOM     11  C   UNL     1       4.912  -5.732  22.519  0.00  0.00    +0.001 C 
ATOM     12  C   UNL     1       5.514  -4.440  23.043  0.00  0.00    +0.008 C 
ENDBRANCH   3   8
ENDBRANCH   1   2
BRANCH   1  13
ATOM     13  C   UNL     1       8.976  -4.521  26.317  0.00  0.00    +0.261 C 
BRANCH  13  14
ATOM     14  C   UNL     1       7.593  -5.054  26.741  0.00  0.00    +0.166 C 
BRANCH  14  15
ATOM     15  O   UNL     1       7.721  -6.064  27.754  0.00  0.00    -0.387 OA
ATOM     16  H   UNL     1       7.994  -5.632  28.580  0.00  0.00    +0.210 HD
ENDBRANCH  14  15
BRANCH  14  17
ATOM     17  C   UNL     1       6.640  -3.960  27.275  0.00  0.00    +0.116 C 
BRANCH  17  18
ATOM     18  N   UNL     1       5.968  -3.191  26.214  0.00  0.00    -0.309 NA
ATOM     19  H   UNL     1       6.413  -3.428  25.325  0.00  0.00    +0.123 HD
BRANCH  18  21
ATOM     20  C   UNL     1       7.444  -1.227  26.687  0.00  0.00    +0.027 C 
ATOM     21  C   UNL     1       6.025  -1.720  26.357  0.00  0.00    +0.011 C 
ATOM     22  C   UNL     1       5.626  -1.139  24.982  0.00  0.00    +0.027 C 
ATOM     23  C   UNL     1       5.026  -1.197  27.401  0.00  0.00    +0.027 C 
ENDBRANCH  18  21
ENDBRANCH  17  18
ENDBRANCH  14  17
ENDBRANCH  13  14
ENDBRANCH   1  13
TORSDOF 8
ENDMDL
MODEL 4
REMARK VINA RESULT:      -5.8      3.289      6.216
REMARK  Name = 
REMARK  11 active torsions:
REMARK  status: ('A' for Active; 'I' for Inactive)
REMARK    1  A    between atoms: C_1  and  C_2
REMARK    2  A    between atoms: C_2  and  C_3
REMARK    3  A    between atoms: C_2  and  C_4
REMARK    4  A    between atoms: C_2  and  N_5
REMARK    5  A    between atoms: N_5  and  C_6
REMARK    6  A    between atoms: C_6  and  C_7
REMARK    7  A    between atoms: C_7  and  O_9
REMARK    8  A    between atoms: C_7  and  C_10
REMARK    9  A    between atoms: C_10  and  O_11
REMARK   10  A    between atoms: O_11  and  C_12
REMARK   11  A    between atoms: C_17  and  C_18
REMARK                            x       y       z     vdW  Elec       q    Type
REMARK                         _______ _______ _______ _____ _____    ______ ____
ROOT
ATOM      1  O   UNL     1       7.597  -2.221  25.447  0.00  0.00    -0.489 OA
ENDROOT
BRANCH   1   2
ATOM      2  C   UNL     1       8.339  -1.813  24.365  0.00  0.00    +0.124 A 
ATOM      3  C   UNL     1       8.144  -2.496  23.144  0.00  0.00    -0.003 A 
ATOM      4  C   UNL     1       8.891  -2.077  22.026  0.00  0.00    +0.007 A 
ATOM      5  C   UNL     1       9.832  -1.051  22.122  0.00  0.00    +0.001 A 
ATOM      6  C   UNL     1      10.042  -0.417  23.337  0.00  0.00    +0.004 A 
ATOM      7  C   UNL     1       9.301  -0.795  24.455  0.00  0.00    +0.046 A 
BRANCH   3   8
ATOM      8  C   UNL     1       7.131  -3.626  23.033  0.00  0.00    +0.023 C 
ATOM      9  C   UNL     1       7.760  -5.033  23.037  0.00  0.00    +0.008 C 
ATOM     10  C   UNL     1       6.828  -5.933  22.220  0.00  0.00    +0.001 C 
ATOM     11  C   UNL     1       5.656  -5.061  21.803  0.00  0.00    +0.001 C 
ATOM     12  C   UNL     1       6.242  -3.660  21.779  0.00  0.00    +0.008 C 
ENDBRANCH   3   8
ENDBRANCH   1   2
BRANCH   1  13
ATOM     13  C   UNL     1       8.344  -2.766  26.544  0.00  0.00    +0.261 C 
BRANCH  13  14
ATOM     14  C   UNL     1       8.366  -4.304  26.467  0.00  0.00    +0.166 C 
BRANCH  14  15
ATOM     15  O   UNL     1       9.552  -4.831  27.083  0.00  0.00    -0.387 OA
ATOM     16  H   UNL     1       9.730  -4.315  27.887  0.00  0.00    +0.210 HD
ENDBRANCH  14  15
BRANCH  14  17
ATOM     17  C   UNL     1       7.143  -4.981  27.129  0.00  0.00    +0.116 C 
BRANCH  17  18
ATOM     18  N   UNL     1       6.526  -6.028  26.297  0.00  0.00    -0.309 NA
ATOM     19  H   UNL     1       6.991  -6.022  25.388  0.00  0.00    +0.123 HD
BRANCH  18  21
ATOM     20  C   UNL     1       4.560  -6.872  24.998  0.00  0.00    +0.027 C 
ATOM     21  C   UNL     1       5.075  -5.875  26.051  0.00  0.00    +0.011 C 
ATOM     22  C   UNL     1       4.376  -6.193  27.391  0.00  0.00    +0.027 C 
ATOM     23  C   UNL     1       4.700  -4.440  25.649  0.00  0.00    +0.027 C 
ENDBRANCH  18  21
ENDBRANCH  17  18
ENDBRANCH  14  17
ENDBRANCH  13  14
ENDBRANCH   1  13
TORSDOF 8
ENDMDL
MODEL 5
REMARK VINA RESULT:      -5.7      3.249      6.667
REMARK  Name = 
REMARK  11 active torsions:
REMARK  status: ('A' for Active; 'I' for Inactive)
REMARK    1  A    between atoms: C_1  and  C_2
REMARK    2  A    between atoms: C_2  and  C_3
REMARK    3  A    between atoms: C_2  and  C_4
REMARK    4  A    between atoms: C_2  and  N_5
REMARK    5  A    between atoms: N_5  and  C_6
REMARK    6  A    between atoms: C_6  and  C_7
REMARK    7  A    between atoms: C_7  and  O_9
REMARK    8  A    between atoms: C_7  and  C_10
REMARK    9  A    between atoms: C_10  and  O_11
REMARK   10  A    between atoms: O_11  and  C_12
REMARK   11  A    between atoms: C_17  and  C_18
REMARK                            x       y       z     vdW  Elec       q    Type
REMARK                         _______ _______ _______ _____ _____    ______ ____
ROOT
ATOM      1  O   UNL     1       9.073  -4.312  24.163  0.00  0.00    -0.489 OA
ENDROOT
BRANCH   1   2
ATOM      2  C   UNL     1       8.048  -4.514  23.272  0.00  0.00    +0.124 A 
ATOM      3  C   UNL     1       7.438  -3.371  22.707  0.00  0.00    -0.003 A 
ATOM      4  C   UNL     1       6.393  -3.569  21.783  0.00  0.00    +0.007 A 
ATOM      5  C   UNL     1       5.934  -4.847  21.465  0.00  0.00    +0.001 A 
ATOM      6  C   UNL     1       6.515  -5.958  22.059  0.00  0.00    +0.004 A 
ATOM      7  C   UNL     1       7.566  -5.794  22.959  0.00  0.00    +0.046 A 
BRANCH   3   8
ATOM      8  C   UNL     1       7.922  -1.972  23.059  0.00  0.00    +0.023 C 
ATOM      9  C   UNL     1       6.786  -0.950  23.257  0.00  0.00    +0.008 C 
ATOM     10  C   UNL     1       7.353   0.419  22.869  0.00  0.00    +0.001 C 
ATOM     11  C   UNL     1       8.810   0.184  22.505  0.00  0.00    +0.001 C 
ATOM     12  C   UNL     1       8.837  -1.263  22.047  0.00  0.00    +0.008 C 
ENDBRANCH   3   8
ENDBRANCH   1   2
BRANCH   1  13
ATOM     13  C   UNL     1       9.151  -5.247  25.247  0.00  0.00    +0.261 C 
BRANCH  13  14
ATOM     14  C   UNL     1       8.719  -4.579  26.566  0.00  0.00    +0.166 C 
BRANCH  14  15
ATOM     15  O   UNL     1       8.403  -3.193  26.359  0.00  0.00    -0.387 OA
ATOM     16  H   UNL     1       8.765  -2.686  27.105  0.00  0.00    +0.210 HD
ENDBRANCH  14  15
BRANCH  14  17
ATOM     17  C   UNL     1       7.499  -5.252  27.237  0.00  0.00    +0.116 C 
BRANCH  17  18
ATOM     18  N   UNL     1       6.660  -6.020  26.302  0.00  0.00    -0.309 NA
ATOM     19  H   UNL     1       7.054  -5.915  25.366  0.00  0.00    +0.123 HD
BRANCH  18  21
ATOM     20  C   UNL     1       5.049  -4.345  25.373  0.00  0.00    +0.027 C 
ATOM     21  C   UNL     1       5.240  -5.608  26.230  0.00  0.00    +0.011 C 
ATOM     22  C   UNL     1       4.490  -6.770  25.542  0.00  0.00    +0.027 C 
ATOM     23  C   UNL     1       4.623  -5.403  27.622  0.00  0.00    +0.027 C 
ENDBRANCH  18  21
ENDBRANCH  17  18
ENDBRANCH  14  17
ENDBRANCH  13  14
ENDBRANCH   1  13
TORSDOF 8
ENDMDL
MODEL 6
REMARK VINA RESULT:      -5.7      2.540      3.915
REMARK  Name = 
REMARK  11 active torsions:
REMARK  status: ('A' for Active; 'I' for Inactive)
REMARK    1  A    between atoms: C_1  and  C_2
REMARK    2  A    between atoms: C_2  and  C_3
REMARK    3  A    between atoms: C_2  and  C_4
REMARK    4  A    between atoms: C_2  and  N_5
REMARK    5  A    between atoms: N_5  and  C_6
REMARK    6  A    between atoms: C_6  and  C_7
REMARK    7  A    between atoms: C_7  and  O_9
REMARK    8  A    between atoms: C_7  and  C_10
REMARK    9  A    between atoms: C_10  and  O_11
REMARK   10  A    between atoms: O_11  and  C_12
REMARK   11  A    between atoms: C_17  and  C_18
REMARK                            x       y       z     vdW  Elec       q    Type
REMARK                         _______ _______ _______ _____ _____    ______ ____
ROOT
ATOM      1  O   UNL     1       7.272  -2.854  25.498  0.00  0.00    -0.489 OA
ENDROOT
BRANCH   1   2
ATOM      2  C   UNL     1       6.651  -3.941  26.065  0.00  0.00    +0.124 A 
ATOM      3  C   UNL     1       6.185  -4.953  25.197  0.00  0.00    -0.003 A 
ATOM      4  C   UNL     1       5.557  -6.077  25.770  0.00  0.00    +0.007 A 
ATOM      5  C   UNL     1       5.353  -6.174  27.147  0.00  0.00    +0.001 A 
ATOM      6  C   UNL     1       5.778  -5.152  27.983  0.00  0.00    +0.004 A 
ATOM      7  C   UNL     1       6.423  -4.040  27.447  0.00  0.00    +0.046 A 
BRANCH   3   8
ATOM      8  C   UNL     1       6.390  -4.850  23.693  0.00  0.00    +0.023 C 
ATOM      9  C   UNL     1       5.219  -5.410  22.863  0.00  0.00    +0.008 C 
ATOM     10  C   UNL     1       5.816  -5.913  21.545  0.00  0.00    +0.001 C 
ATOM     11  C   UNL     1       7.300  -5.594  21.604  0.00  0.00    +0.001 C 
ATOM     12  C   UNL     1       7.604  -5.577  23.092  0.00  0.00    +0.008 C 
ENDBRANCH   3   8
ENDBRANCH   1   2
BRANCH   1  13
ATOM     13  C   UNL     1       8.496  -2.441  26.121  0.00  0.00    +0.261 C 
BRANCH  13  14
ATOM     14  C   UNL     1       8.492  -0.919  26.357  0.00  0.00    +0.166 C 
BRANCH  14  15
ATOM     15  O   UNL     1       9.210  -0.583  27.555  0.00  0.00    -0.387 OA
ATOM     16  H   UNL     1       9.284  -1.385  28.098  0.00  0.00    +0.210 HD
ENDBRANCH  14  15
BRANCH  14  17
ATOM     17  C   UNL     1       9.100  -0.105  25.191  0.00  0.00    +0.116 C 
BRANCH  17  18
ATOM     18  N   UNL     1       9.522  -0.933  24.049  0.00  0.00    -0.309 NA
ATOM     19  H   UNL     1      10.514  -0.759  23.883  0.00  0.00    +0.123 HD
BRANCH  18  21
ATOM     20  C   UNL     1       9.688   0.089  21.771  0.00  0.00    +0.027 C 
ATOM     21  C   UNL     1       8.811  -0.676  22.777  0.00  0.00    +0.011 C 
ATOM     22  C   UNL     1       8.494  -2.062  22.174  0.00  0.00    +0.027 C 
ATOM     23  C   UNL     1       7.482   0.064  22.991  0.00  0.00    +0.027 C 
ENDBRANCH  18  21
ENDBRANCH  17  18
ENDBRANCH  14  17
ENDBRANCH  13  14
ENDBRANCH   1  13
TORSDOF 8
ENDMDL
MODEL 7
REMARK VINA RESULT:      -5.6      2.284      2.991
REMARK  Name = 
REMARK  11 active torsions:
REMARK  status: ('A' for Active; 'I' for Inactive)
REMARK    1  A    between atoms: C_1  and  C_2
REMARK    2  A    between atoms: C_2  and  C_3
REMARK    3  A    between atoms: C_2  and  C_4
REMARK    4  A    between atoms: C_2  and  N_5
REMARK    5  A    between atoms: N_5  and  C_6
REMARK    6  A    between atoms: C_6  and  C_7
REMARK    7  A    between atoms: C_7  and  O_9
REMARK    8  A    between atoms: C_7  and  C_10
REMARK    9  A    between atoms: C_10  and  O_11
REMARK   10  A    between atoms: O_11  and  C_12
REMARK   11  A    between atoms: C_17  and  C_18
REMARK                            x       y       z     vdW  Elec       q    Type
REMARK                         _______ _______ _______ _____ _____    ______ ____
ROOT
ATOM      1  O   UNL     1       8.053  -3.781  23.033  0.00  0.00    -0.489 OA
ENDROOT
BRANCH   1   2
ATOM      2  C   UNL     1       8.009  -4.272  24.315  0.00  0.00    +0.124 A 
ATOM      3  C   UNL     1       6.813  -4.897  24.735  0.00  0.00    -0.003 A 
ATOM      4  C   UNL     1       6.763  -5.414  26.044  0.00  0.00    +0.007 A 
ATOM      5  C   UNL     1       7.836  -5.275  26.924  0.00  0.00    +0.001 A 
ATOM      6  C   UNL     1       8.989  -4.622  26.512  0.00  0.00    +0.004 A 
ATOM      7  C   UNL     1       9.076  -4.121  25.214  0.00  0.00    +0.046 A 
BRANCH   3   8
ATOM      8  C   UNL     1       5.632  -5.040  23.787  0.00  0.00    +0.023 C 
ATOM      9  C   UNL     1       4.506  -4.016  24.033  0.00  0.00    +0.008 C 
ATOM     10  C   UNL     1       3.199  -4.686  23.599  0.00  0.00    +0.001 C 
ATOM     11  C   UNL     1       3.584  -6.055  23.062  0.00  0.00    +0.001 C 
ATOM     12  C   UNL     1       4.874  -6.377  23.796  0.00  0.00    +0.008 C 
ENDBRANCH   3   8
ENDBRANCH   1   2
BRANCH   1  13
ATOM     13  C   UNL     1       8.171  -2.357  22.914  0.00  0.00    +0.261 C 
BRANCH  13  14
ATOM     14  C   UNL     1       9.654  -1.945  22.831  0.00  0.00    +0.166 C 
BRANCH  14  15
ATOM     15  O   UNL     1      10.009  -1.578  21.489  0.00  0.00    -0.387 OA
ATOM     16  H   UNL     1       9.288  -1.854  20.898  0.00  0.00    +0.210 HD
ENDBRANCH  14  15
BRANCH  14  17
ATOM     17  C   UNL     1      10.029  -0.770  23.763  0.00  0.00    +0.116 C 
BRANCH  17  18
ATOM     18  N   UNL     1      10.546   0.409  23.049  0.00  0.00    -0.309 NA
ATOM     19  H   UNL     1      11.469   0.627  23.427  0.00  0.00    +0.123 HD
BRANCH  18  21
ATOM     20  C   UNL     1       8.777   1.805  21.960  0.00  0.00    +0.027 C 
ATOM     21  C   UNL     1       9.725   1.634  23.160  0.00  0.00    +0.011 C 
ATOM     22  C   UNL     1       8.861   1.458  24.428  0.00  0.00    +0.027 C 
ATOM     23  C   UNL     1      10.582   2.897  23.341  0.00  0.00    +0.027 C 
ENDBRANCH  18  21
ENDBRANCH  17  18
ENDBRANCH  14  17
ENDBRANCH  13  14
ENDBRANCH   1  13
TORSDOF 8
ENDMDL
MODEL 8
REMARK VINA RESULT:      -5.6      3.327      6.215
REMARK  Name = 
REMARK  11 active torsions:
REMARK  status: ('A' for Active; 'I' for Inactive)
REMARK    1  A    between atoms: C_1  and  C_2
REMARK    2  A    between atoms: C_2  and  C_3
REMARK    3  A    between atoms: C_2  and  C_4
REMARK    4  A    between atoms: C_2  and  N_5
REMARK    5  A    between atoms: N_5  and  C_6
REMARK    6  A    between atoms: C_6  and  C_7
REMARK    7  A    between atoms: C_7  and  O_9
REMARK    8  A    between atoms: C_7  and  C_10
REMARK    9  A    between atoms: C_10  and  O_11
REMARK   10  A    between atoms: O_11  and  C_12
REMARK   11  A    between atoms: C_17  and  C_18
REMARK                            x       y       z     vdW  Elec       q    Type
REMARK                         _______ _______ _______ _____ _____    ______ ____
ROOT
ATOM      1  O   UNL     1       8.029   4.155  24.049  0.00  0.00    -0.489 OA
ENDROOT
BRANCH   1   2
ATOM      2  C   UNL     1       9.345   4.516  23.892  0.00  0.00    +0.124 A 
ATOM      3  C   UNL     1      10.263   3.503  23.537  0.00  0.00    -0.003 A 
ATOM      4  C   UNL     1      11.613   3.866  23.362  0.00  0.00    +0.007 A 
ATOM      5  C   UNL     1      12.050   5.173  23.580  0.00  0.00    +0.001 A 
ATOM      6  C   UNL     1      11.144   6.149  23.970  0.00  0.00    +0.004 A 
ATOM      7  C   UNL     1       9.799   5.824  24.127  0.00  0.00    +0.046 A 
BRANCH   3   8
ATOM      8  C   UNL     1       9.799   2.072  23.312  0.00  0.00    +0.023 C 
ATOM      9  C   UNL     1      10.592   1.024  24.117  0.00  0.00    +0.008 C 
ATOM     10  C   UNL     1      10.563  -0.272  23.301  0.00  0.00    +0.001 C 
ATOM     11  C   UNL     1       9.718   0.021  22.072  0.00  0.00    +0.001 C 
ATOM     12  C   UNL     1       9.875   1.519  21.879  0.00  0.00    +0.008 C 
ENDBRANCH   3   8
ENDBRANCH   1   2
BRANCH   1  13
ATOM     13  C   UNL     1       7.169   4.440  22.937  0.00  0.00    +0.261 C 
BRANCH  13  14
ATOM     14  C   UNL     1       5.858   3.638  23.053  0.00  0.00    +0.166 C 
BRANCH  14  15
ATOM     15  O   UNL     1       4.967   3.953  21.971  0.00  0.00    -0.387 OA
ATOM     16  H   UNL     1       5.230   4.813  21.603  0.00  0.00    +0.210 HD
ENDBRANCH  14  15
BRANCH  14  17
ATOM     17  C   UNL     1       6.064   2.106  23.073  0.00  0.00    +0.116 C 
BRANCH  17  18
ATOM     18  N   UNL     1       5.279   1.418  24.112  0.00  0.00    -0.309 NA
ATOM     19  H   UNL     1       4.975   2.118  24.791  0.00  0.00    +0.123 HD
BRANCH  18  21
ATOM     20  C   UNL     1       6.596  -0.701  23.924  0.00  0.00    +0.027 C 
ATOM     21  C   UNL     1       5.996   0.362  24.860  0.00  0.00    +0.011 C 
ATOM     22  C   UNL     1       7.161   1.067  25.588  0.00  0.00    +0.027 C 
ATOM     23  C   UNL     1       5.108  -0.307  25.920  0.00  0.00    +0.027 C 
ENDBRANCH  18  21
ENDBRANCH  17  18
ENDBRANCH  14  17
ENDBRANCH  13  14
ENDBRANCH   1  13
TORSDOF 8
ENDMDL
MODEL 9
REMARK VINA RESULT:      -5.6      2.724      5.827
REMARK  Name = 
REMARK  11 active torsions:
REMARK  status: ('A' for Active; 'I' for Inactive)
REMARK    1  A    between atoms: C_1  and  C_2
REMARK    2  A    between atoms: C_2  and  C_3
REMARK    3  A    between atoms: C_2  and  C_4
REMARK    4  A    between atoms: C_2  and  N_5
REMARK    5  A    between atoms: N_5  and  C_6
REMARK    6  A    between atoms: C_6  and  C_7
REMARK    7  A    between atoms: C_7  and  O_9
REMARK    8  A    between atoms: C_7  and  C_10
REMARK    9  A    between atoms: C_10  and  O_11
REMARK   10  A    between atoms: O_11  and  C_12
REMARK   11  A    between atoms: C_17  and  C_18
REMARK                            x       y       z     vdW  Elec       q    Type
REMARK                         _______ _______ _______ _____ _____    ______ ____
ROOT
ATOM      1  O   UNL     1       8.491  -2.475  25.430  0.00  0.00    -0.489 OA
ENDROOT
BRANCH   1   2
ATOM      2  C   UNL     1       7.438  -1.596  25.492  0.00  0.00    +0.124 A 
ATOM      3  C   UNL     1       7.515  -0.427  24.702  0.00  0.00    -0.003 A 
ATOM      4  C   UNL     1       6.435   0.475  24.749  0.00  0.00    +0.007 A 
ATOM      5  C   UNL     1       5.339   0.256  25.583  0.00  0.00    +0.001 A 
ATOM      6  C   UNL     1       5.295  -0.875  26.385  0.00  0.00    +0.004 A 
ATOM      7  C   UNL     1       6.339  -1.797  26.342  0.00  0.00    +0.046 A 
BRANCH   3   8
ATOM      8  C   UNL     1       8.713  -0.172  23.799  0.00  0.00    +0.023 C 
ATOM      9  C   UNL     1       9.560   1.048  24.214  0.00  0.00    +0.008 C 
ATOM     10  C   UNL     1      10.189   1.603  22.933  0.00  0.00    +0.001 C 
ATOM     11  C   UNL     1       9.749   0.677  21.810  0.00  0.00    +0.001 C 
ATOM     12  C   UNL     1       8.435   0.105  22.313  0.00  0.00    +0.008 C 
ENDBRANCH   3   8
ENDBRANCH   1   2
BRANCH   1  13
ATOM     13  C   UNL     1       8.527  -3.477  26.456  0.00  0.00    +0.261 C 
BRANCH  13  14
ATOM     14  C   UNL     1       8.841  -4.857  25.848  0.00  0.00    +0.166 C 
BRANCH  14  15
ATOM     15  O   UNL     1       8.261  -5.909  26.637  0.00  0.00    -0.387 OA
ATOM     16  H   UNL     1       8.961  -6.292  27.192  0.00  0.00    +0.210 HD
ENDBRANCH  14  15
BRANCH  14  17
ATOM     17  C   UNL     1       8.348  -5.025  24.392  0.00  0.00    +0.116 C 
BRANCH  17  18
ATOM     18  N   UNL     1       6.882  -4.986  24.257  0.00  0.00    -0.309 NA
ATOM     19  H   UNL     1       6.538  -5.947  24.285  0.00  0.00    +0.123 HD
BRANCH  18  21
ATOM     20  C   UNL     1       7.449  -3.543  22.293  0.00  0.00    +0.027 C 
ATOM     21  C   UNL     1       6.371  -4.373  23.011  0.00  0.00    +0.011 C 
ATOM     22  C   UNL     1       5.978  -5.545  22.085  0.00  0.00    +0.027 C 
ATOM     23  C   UNL     1       5.118  -3.518  23.254  0.00  0.00    +0.027 C 
ENDBRANCH  18  21
ENDBRANCH  17  18
ENDBRANCH  14  17
ENDBRANCH  13  14
ENDBRANCH   1  13
TORSDOF 8
ENDMDL
