MODEL 1
REMARK VINA RESULT:      -7.2      0.000      0.000
REMARK  Name = 
REMARK  13 active torsions:
REMARK  status: ('A' for Active; 'I' for Inactive)
REMARK    1  A    between atoms: C_1  and  O_2
REMARK    2  A    between atoms: O_2  and  C_3
REMARK    3  A    between atoms: C_3  and  C_5
REMARK    4  A    between atoms: C_6  and  O_7
REMARK    5  A    between atoms: C_11  and  O_12
REMARK    6  A    between atoms: O_12  and  C_13
REMARK    7  A    between atoms: C_13  and  C_14
REMARK    8  A    between atoms: C_15  and  C_16
REMARK    9  A    between atoms: C_18  and  C_22
REMARK   10  A    between atoms: C_23  and  C_24
REMARK   11  A    between atoms: C_24  and  O_25
REMARK   12  A    between atoms: C_26  and  C_29
REMARK   13  A    between atoms: C_29  and  O_30
REMARK                            x       y       z     vdW  Elec       q    Type
REMARK                         _______ _______ _______ _____ _____    ______ ____
ROOT
ATOM      1  C   UNL     1       9.166  -1.393  24.084  0.00  0.00    -0.025 A 
ATOM      2  C   UNL     1       9.971  -1.913  23.072  0.00  0.00    +0.008 A 
ATOM      3  C   UNL     1      10.233  -1.147  21.939  0.00  0.00    +0.001 A 
ATOM      4  C   UNL     1       9.680   0.130  21.814  0.00  0.00    +0.012 A 
ATOM      5  C   UNL     1       8.873   0.680  22.825  0.00  0.00    +0.021 A 
ATOM      6  C   UNL     1       8.653  -0.088  23.976  0.00  0.00    +0.019 A 
ENDROOT
BRANCH   5   7
ATOM      7  C   UNL     1       8.259   1.997  22.641  0.00  0.00    +0.173 A 
ATOM      8  O   UNL     1       7.065   1.977  21.981  0.00  0.00    -0.354 OA
ATOM      9  N   UNL     1       6.550   3.247  21.878  0.00  0.00    -0.071 NA
ATOM     10  C   UNL     1       7.445   4.052  22.472  0.00  0.00    +0.196 A 
ATOM     11  C   UNL     1       8.555   3.308  22.986  0.00  0.00    +0.059 A 
BRANCH  10  12
ATOM     12  C   UNL     1       7.189   5.491  22.516  0.00  0.00    +0.359 C 
ATOM     13  O   UNL     1       6.714   6.074  23.481  0.00  0.00    -0.243 OA
BRANCH  12  14
ATOM     14  O   UNL     1       7.542   6.140  21.372  0.00  0.00    -0.476 OA
ATOM     15  H   UNL     1       8.164   6.868  21.600  0.00  0.00    +0.295 HD
ENDBRANCH  12  14
ENDBRANCH  10  12
BRANCH  11  16
ATOM     16  C   UNL     1       9.738   3.829  23.722  0.00  0.00    +0.197 C 
BRANCH  16  17
ATOM     17  O   UNL     1      10.955   3.708  23.000  0.00  0.00    -0.390 OA
ATOM     18  H   UNL     1      10.940   4.363  22.270  0.00  0.00    +0.210 HD
ENDBRANCH  16  17
ENDBRANCH  11  16
ENDBRANCH   5   7
BRANCH   1  20
ATOM     19  C   UNL     1       7.524  -2.312  25.683  0.00  0.00    +0.014 C 
ATOM     20  C   UNL     1       8.780  -2.216  25.226  0.00  0.00    +0.007 C 
BRANCH  19  21
ATOM     21  C   UNL     1       7.116  -3.363  26.669  0.00  0.00    +0.256 C 
BRANCH  21  22
ATOM     22  O   UNL     1       7.456  -4.684  26.232  0.00  0.00    -0.487 OA
BRANCH  22  24
ATOM     23  C   UNL     1       6.201  -5.559  24.347  0.00  0.00    +0.142 A 
ATOM     24  C   UNL     1       6.377  -5.394  25.736  0.00  0.00    +0.138 A 
ATOM     25  C   UNL     1       5.468  -6.024  26.612  0.00  0.00    +0.047 A 
ATOM     26  C   UNL     1       4.374  -6.746  26.142  0.00  0.00    +0.007 A 
ATOM     27  C   UNL     1       4.184  -6.888  24.779  0.00  0.00    +0.046 A 
ATOM     28  C   UNL     1       5.098  -6.320  23.893  0.00  0.00    +0.134 A 
BRANCH  23  29
ATOM     29  C   UNL     1       7.093  -4.994  23.301  0.00  0.00    +0.346 C 
ATOM     30  O   UNL     1       8.304  -5.176  23.342  0.00  0.00    -0.245 OA
BRANCH  29  32
ATOM     31  C   UNL     1       6.103  -3.030  22.504  0.00  0.00    +0.280 C 
ATOM     32  O   UNL     1       6.430  -4.405  22.278  0.00  0.00    -0.464 OA
ENDBRANCH  29  32
ENDBRANCH  23  29
BRANCH  28  33
ATOM     33  O   UNL     1       4.831  -6.564  22.568  0.00  0.00    -0.506 OA
ATOM     34  H   UNL     1       3.906  -6.881  22.486  0.00  0.00    +0.292 HD
ENDBRANCH  28  33
ENDBRANCH  22  24
ENDBRANCH  21  22
ENDBRANCH  19  21
ENDBRANCH   1  20
TORSDOF 12
ENDMDL
MODEL 2
REMARK VINA RESULT:      -6.9      2.047      3.663
REMARK  Name = 
REMARK  13 active torsions:
REMARK  status: ('A' for Active; 'I' for Inactive)
REMARK    1  A    between atoms: C_1  and  O_2
REMARK    2  A    between atoms: O_2  and  C_3
REMARK    3  A    between atoms: C_3  and  C_5
REMARK    4  A    between atoms: C_6  and  O_7
REMARK    5  A    between atoms: C_11  and  O_12
REMARK    6  A    between atoms: O_12  and  C_13
REMARK    7  A    between atoms: C_13  and  C_14
REMARK    8  A    between atoms: C_15  and  C_16
REMARK    9  A    between atoms: C_18  and  C_22
REMARK   10  A    between atoms: C_23  and  C_24
REMARK   11  A    between atoms: C_24  and  O_25
REMARK   12  A    between atoms: C_26  and  C_29
REMARK   13  A    between atoms: C_29  and  O_30
REMARK                            x       y       z     vdW  Elec       q    Type
REMARK                         _______ _______ _______ _____ _____    ______ ____
ROOT
ATOM      1  C   UNL     1       6.050  -0.725  24.701  0.00  0.00    -0.025 A 
ATOM      2  C   UNL     1       5.553  -0.654  26.000  0.00  0.00    +0.008 A 
ATOM      3  C   UNL     1       5.895   0.425  26.810  0.00  0.00    +0.001 A 
ATOM      4  C   UNL     1       6.744   1.424  26.324  0.00  0.00    +0.012 A 
ATOM      5  C   UNL     1       7.251   1.380  25.014  0.00  0.00    +0.021 A 
ATOM      6  C   UNL     1       6.863   0.307  24.200  0.00  0.00    +0.019 A 
ENDROOT
BRANCH   5   7
ATOM      7  C   UNL     1       8.185   2.408  24.551  0.00  0.00    +0.173 A 
ATOM      8  O   UNL     1       7.641   3.653  24.430  0.00  0.00    -0.354 OA
ATOM      9  N   UNL     1       8.592   4.557  24.018  0.00  0.00    -0.071 NA
ATOM     10  C   UNL     1       9.725   3.852  23.876  0.00  0.00    +0.196 A 
ATOM     11  C   UNL     1       9.529   2.474  24.210  0.00  0.00    +0.059 A 
BRANCH  10  12
ATOM     12  C   UNL     1      10.937   4.536  23.427  0.00  0.00    +0.359 C 
ATOM     13  O   UNL     1      12.051   4.029  23.426  0.00  0.00    -0.243 OA
BRANCH  12  14
ATOM     14  O   UNL     1      10.713   5.807  22.991  0.00  0.00    -0.476 OA
ATOM     15  H   UNL     1      10.567   5.787  22.018  0.00  0.00    +0.295 HD
ENDBRANCH  12  14
ENDBRANCH  10  12
BRANCH  11  16
ATOM     16  C   UNL     1      10.537   1.381  24.198  0.00  0.00    +0.197 C 
BRANCH  16  17
ATOM     17  O   UNL     1      10.565   0.620  25.398  0.00  0.00    -0.390 OA
ATOM     18  H   UNL     1      10.349  -0.310  25.171  0.00  0.00    +0.210 HD
ENDBRANCH  16  17
ENDBRANCH  11  16
ENDBRANCH   5   7
BRANCH   1  20
ATOM     19  C   UNL     1       6.472  -2.170  22.742  0.00  0.00    +0.014 C 
ATOM     20  C   UNL     1       5.804  -1.902  23.872  0.00  0.00    +0.007 C 
BRANCH  19  21
ATOM     21  C   UNL     1       6.391  -3.505  22.069  0.00  0.00    +0.256 C 
BRANCH  21  22
ATOM     22  O   UNL     1       7.328  -4.446  22.606  0.00  0.00    -0.487 OA
BRANCH  22  24
ATOM     23  C   UNL     1       7.804  -4.866  24.949  0.00  0.00    +0.142 A 
ATOM     24  C   UNL     1       6.949  -4.962  23.832  0.00  0.00    +0.138 A 
ATOM     25  C   UNL     1       5.671  -5.533  24.006  0.00  0.00    +0.047 A 
ATOM     26  C   UNL     1       5.261  -6.058  25.229  0.00  0.00    +0.007 A 
ATOM     27  C   UNL     1       6.107  -5.989  26.321  0.00  0.00    +0.046 A 
ATOM     28  C   UNL     1       7.354  -5.380  26.188  0.00  0.00    +0.134 A 
BRANCH  23  29
ATOM     29  C   UNL     1       9.159  -4.256  24.936  0.00  0.00    +0.346 C 
ATOM     30  O   UNL     1      10.164  -4.958  24.908  0.00  0.00    -0.245 OA
BRANCH  29  32
ATOM     31  C   UNL     1       9.924  -2.404  23.729  0.00  0.00    +0.280 C 
ATOM     32  O   UNL     1       9.149  -2.907  24.822  0.00  0.00    -0.464 OA
ENDBRANCH  29  32
ENDBRANCH  23  29
BRANCH  28  33
ATOM     33  O   UNL     1       8.089  -5.332  27.348  0.00  0.00    -0.506 OA
ATOM     34  H   UNL     1       7.516  -4.994  28.069  0.00  0.00    +0.292 HD
ENDBRANCH  28  33
ENDBRANCH  22  24
ENDBRANCH  21  22
ENDBRANCH  19  21
ENDBRANCH   1  20
TORSDOF 12
ENDMDL
MODEL 3
REMARK VINA RESULT:      -6.9      2.994      7.888
REMARK  Name = 
REMARK  13 active torsions:
REMARK  status: ('A' for Active; 'I' for Inactive)
REMARK    1  A    between atoms: C_1  and  O_2
REMARK    2  A    between atoms: O_2  and  C_3
REMARK    3  A    between atoms: C_3  and  C_5
REMARK    4  A    between atoms: C_6  and  O_7
REMARK    5  A    between atoms: C_11  and  O_12
REMARK    6  A    between atoms: O_12  and  C_13
REMARK    7  A    between atoms: C_13  and  C_14
REMARK    8  A    between atoms: C_15  and  C_16
REMARK    9  A    between atoms: C_18  and  C_22
REMARK   10  A    between atoms: C_23  and  C_24
REMARK   11  A    between atoms: C_24  and  O_25
REMARK   12  A    between atoms: C_26  and  C_29
REMARK   13  A    between atoms: C_29  and  O_30
REMARK                            x       y       z     vdW  Elec       q    Type
REMARK                         _______ _______ _______ _____ _____    ______ ____
ROOT
ATOM      1  C   UNL     1       5.561  -0.100  25.895  0.00  0.00    -0.025 A 
ATOM      2  C   UNL     1       4.835  -0.372  27.053  0.00  0.00    +0.008 A 
ATOM      3  C   UNL     1       4.262  -1.628  27.227  0.00  0.00    +0.001 A 
ATOM      4  C   UNL     1       4.403  -2.606  26.238  0.00  0.00    +0.012 A 
ATOM      5  C   UNL     1       5.139  -2.359  25.066  0.00  0.00    +0.021 A 
ATOM      6  C   UNL     1       5.743  -1.103  24.926  0.00  0.00    +0.019 A 
ENDROOT
BRANCH   5   7
ATOM      7  C   UNL     1       5.221  -3.381  24.020  0.00  0.00    +0.173 A 
ATOM      8  O   UNL     1       4.019  -3.911  23.651  0.00  0.00    -0.354 OA
ATOM      9  N   UNL     1       4.188  -4.838  22.650  0.00  0.00    -0.071 NA
ATOM     10  C   UNL     1       5.509  -4.881  22.414  0.00  0.00    +0.196 A 
ATOM     11  C   UNL     1       6.220  -3.966  23.254  0.00  0.00    +0.059 A 
BRANCH  10  12
ATOM     12  C   UNL     1       6.020  -5.798  21.395  0.00  0.00    +0.359 C 
ATOM     13  O   UNL     1       5.981  -5.578  20.193  0.00  0.00    -0.243 OA
BRANCH  12  14
ATOM     14  O   UNL     1       6.562  -6.936  21.912  0.00  0.00    -0.476 OA
ATOM     15  H   UNL     1       7.144  -6.694  22.668  0.00  0.00    +0.295 HD
ENDBRANCH  12  14
ENDBRANCH  10  12
BRANCH  11  16
ATOM     16  C   UNL     1       7.684  -3.706  23.284  0.00  0.00    +0.197 C 
BRANCH  16  17
ATOM     17  O   UNL     1       8.082  -2.603  22.482  0.00  0.00    -0.390 OA
ATOM     18  H   UNL     1       8.031  -1.794  23.035  0.00  0.00    +0.210 HD
ENDBRANCH  16  17
ENDBRANCH  11  16
ENDBRANCH   5   7
BRANCH   1  20
ATOM     19  C   UNL     1       7.228   1.708  26.127  0.00  0.00    +0.014 C 
ATOM     20  C   UNL     1       6.073   1.242  25.634  0.00  0.00    +0.007 C 
BRANCH  19  21
ATOM     21  C   UNL     1       7.853   2.973  25.626  0.00  0.00    +0.256 C 
BRANCH  21  22
ATOM     22  O   UNL     1       9.081   2.736  24.927  0.00  0.00    -0.487 OA
BRANCH  22  24
ATOM     23  C   UNL     1       9.549   1.067  23.228  0.00  0.00    +0.142 A 
ATOM     24  C   UNL     1       8.899   2.246  23.646  0.00  0.00    +0.138 A 
ATOM     25  C   UNL     1       8.008   2.879  22.755  0.00  0.00    +0.047 A 
ATOM     26  C   UNL     1       7.803   2.407  21.461  0.00  0.00    +0.007 A 
ATOM     27  C   UNL     1       8.459   1.264  21.039  0.00  0.00    +0.046 A 
ATOM     28  C   UNL     1       9.304   0.590  21.919  0.00  0.00    +0.134 A 
BRANCH  23  29
ATOM     29  C   UNL     1      10.482   0.265  24.062  0.00  0.00    +0.346 C 
ATOM     30  O   UNL     1      11.471   0.781  24.571  0.00  0.00    -0.245 OA
BRANCH  29  32
ATOM     31  C   UNL     1       9.305  -1.152  25.503  0.00  0.00    +0.280 C 
ATOM     32  O   UNL     1      10.057  -0.999  24.295  0.00  0.00    -0.464 OA
ENDBRANCH  29  32
ENDBRANCH  23  29
BRANCH  28  33
ATOM     33  O   UNL     1       9.864  -0.553  21.403  0.00  0.00    -0.506 OA
ATOM     34  H   UNL     1      10.654  -0.785  21.937  0.00  0.00    +0.292 HD
ENDBRANCH  28  33
ENDBRANCH  22  24
ENDBRANCH  21  22
ENDBRANCH  19  21
ENDBRANCH   1  20
TORSDOF 12
ENDMDL
MODEL 4
REMARK VINA RESULT:      -6.7      2.020      3.082
REMARK  Name = 
REMARK  13 active torsions:
REMARK  status: ('A' for Active; 'I' for Inactive)
REMARK    1  A    between atoms: C_1  and  O_2
REMARK    2  A    between atoms: O_2  and  C_3
REMARK    3  A    between atoms: C_3  and  C_5
REMARK    4  A    between atoms: C_6  and  O_7
REMARK    5  A    between atoms: C_11  and  O_12
REMARK    6  A    between atoms: O_12  and  C_13
REMARK    7  A    between atoms: C_13  and  C_14
REMARK    8  A    between atoms: C_15  and  C_16
REMARK    9  A    between atoms: C_18  and  C_22
REMARK   10  A    between atoms: C_23  and  C_24
REMARK   11  A    between atoms: C_24  and  O_25
REMARK   12  A    between atoms: C_26  and  C_29
REMARK   13  A    between atoms: C_29  and  O_30
REMARK                            x       y       z     vdW  Elec       q    Type
REMARK                         _______ _______ _______ _____ _____    ______ ____
ROOT
ATOM      1  C   UNL     1       9.294  -0.817  23.889  0.00  0.00    -0.025 A 
ATOM      2  C   UNL     1       9.283  -1.221  22.556  0.00  0.00    +0.008 A 
ATOM      3  C   UNL     1       9.563  -0.297  21.554  0.00  0.00    +0.001 A 
ATOM      4  C   UNL     1       9.840   1.032  21.884  0.00  0.00    +0.012 A 
ATOM      5  C   UNL     1       9.866   1.463  23.222  0.00  0.00    +0.021 A 
ATOM      6  C   UNL     1       9.622   0.510  24.220  0.00  0.00    +0.019 A 
ENDROOT
BRANCH   5   7
ATOM      7  C   UNL     1      10.101   2.874  23.537  0.00  0.00    +0.173 A 
ATOM      8  O   UNL     1      11.306   3.354  23.116  0.00  0.00    -0.354 OA
ATOM      9  N   UNL     1      11.429   4.688  23.429  0.00  0.00    -0.071 NA
ATOM     10  C   UNL     1      10.290   5.021  24.056  0.00  0.00    +0.196 A 
ATOM     11  C   UNL     1       9.399   3.904  24.148  0.00  0.00    +0.059 A 
BRANCH  10  12
ATOM     12  C   UNL     1      10.116   6.391  24.535  0.00  0.00    +0.359 C 
ATOM     13  O   UNL     1       9.170   7.107  24.235  0.00  0.00    -0.243 OA
BRANCH  12  14
ATOM     14  O   UNL     1      11.110   6.806  25.368  0.00  0.00    -0.476 OA
ATOM     15  H   UNL     1      11.115   6.232  26.167  0.00  0.00    +0.295 HD
ENDBRANCH  12  14
ENDBRANCH  10  12
BRANCH  11  16
ATOM     16  C   UNL     1       8.040   3.870  24.752  0.00  0.00    +0.197 C 
BRANCH  16  17
ATOM     17  O   UNL     1       7.964   3.091  25.938  0.00  0.00    -0.390 OA
ATOM     18  H   UNL     1       8.740   2.490  25.955  0.00  0.00    +0.210 HD
ENDBRANCH  16  17
ENDBRANCH  11  16
ENDBRANCH   5   7
BRANCH   1  20
ATOM     19  C   UNL     1       7.619  -2.088  25.184  0.00  0.00    +0.014 C 
ATOM     20  C   UNL     1       8.890  -1.735  24.950  0.00  0.00    +0.007 C 
BRANCH  19  21
ATOM     21  C   UNL     1       7.265  -3.229  26.089  0.00  0.00    +0.256 C 
BRANCH  21  22
ATOM     22  O   UNL     1       7.811  -4.474  25.637  0.00  0.00    -0.487 OA
BRANCH  22  24
ATOM     23  C   UNL     1       5.943  -5.659  24.639  0.00  0.00    +0.142 A 
ATOM     24  C   UNL     1       7.172  -4.981  24.520  0.00  0.00    +0.138 A 
ATOM     25  C   UNL     1       7.706  -4.772  23.231  0.00  0.00    +0.047 A 
ATOM     26  C   UNL     1       7.085  -5.269  22.088  0.00  0.00    +0.007 A 
ATOM     27  C   UNL     1       5.890  -5.957  22.204  0.00  0.00    +0.046 A 
ATOM     28  C   UNL     1       5.315  -6.130  23.462  0.00  0.00    +0.134 A 
BRANCH  23  29
ATOM     29  C   UNL     1       5.234  -5.922  25.919  0.00  0.00    +0.346 C 
ATOM     30  O   UNL     1       5.676  -6.730  26.728  0.00  0.00    -0.245 OA
BRANCH  29  32
ATOM     31  C   UNL     1       3.051  -5.747  26.741  0.00  0.00    +0.280 C 
ATOM     32  O   UNL     1       4.176  -5.104  26.135  0.00  0.00    -0.464 OA
ENDBRANCH  29  32
ENDBRANCH  23  29
BRANCH  28  33
ATOM     33  O   UNL     1       4.110  -6.790  23.448  0.00  0.00    -0.506 OA
ATOM     34  H   UNL     1       3.508  -6.359  24.092  0.00  0.00    +0.292 HD
ENDBRANCH  28  33
ENDBRANCH  22  24
ENDBRANCH  21  22
ENDBRANCH  19  21
ENDBRANCH   1  20
TORSDOF 12
ENDMDL
MODEL 5
REMARK VINA RESULT:      -6.7      1.632      2.838
REMARK  Name = 
REMARK  13 active torsions:
REMARK  status: ('A' for Active; 'I' for Inactive)
REMARK    1  A    between atoms: C_1  and  O_2
REMARK    2  A    between atoms: O_2  and  C_3
REMARK    3  A    between atoms: C_3  and  C_5
REMARK    4  A    between atoms: C_6  and  O_7
REMARK    5  A    between atoms: C_11  and  O_12
REMARK    6  A    between atoms: O_12  and  C_13
REMARK    7  A    between atoms: C_13  and  C_14
REMARK    8  A    between atoms: C_15  and  C_16
REMARK    9  A    between atoms: C_18  and  C_22
REMARK   10  A    between atoms: C_23  and  C_24
REMARK   11  A    between atoms: C_24  and  O_25
REMARK   12  A    between atoms: C_26  and  C_29
REMARK   13  A    between atoms: C_29  and  O_30
REMARK                            x       y       z     vdW  Elec       q    Type
REMARK                         _______ _______ _______ _____ _____    ______ ____
ROOT
ATOM      1  C   UNL     1       8.744  -1.568  24.109  0.00  0.00    -0.025 A 
ATOM      2  C   UNL     1       9.787  -2.002  23.295  0.00  0.00    +0.008 A 
ATOM      3  C   UNL     1      10.306  -1.148  22.326  0.00  0.00    +0.001 A 
ATOM      4  C   UNL     1       9.772   0.134  22.164  0.00  0.00    +0.012 A 
ATOM      5  C   UNL     1       8.725   0.598  22.979  0.00  0.00    +0.021 A 
ATOM      6  C   UNL     1       8.243  -0.261  23.975  0.00  0.00    +0.019 A 
ENDROOT
BRANCH   5   7
ATOM      7  C   UNL     1       8.145   1.923  22.748  0.00  0.00    +0.173 A 
ATOM      8  O   UNL     1       6.936   1.909  22.117  0.00  0.00    -0.354 OA
ATOM      9  N   UNL     1       6.456   3.188  21.966  0.00  0.00    -0.071 NA
ATOM     10  C   UNL     1       7.388   3.992  22.503  0.00  0.00    +0.196 A 
ATOM     11  C   UNL     1       8.488   3.240  23.025  0.00  0.00    +0.059 A 
BRANCH  10  12
ATOM     12  C   UNL     1       7.176   5.439  22.485  0.00  0.00    +0.359 C 
ATOM     13  O   UNL     1       6.667   6.068  23.403  0.00  0.00    -0.243 OA
BRANCH  12  14
ATOM     14  O   UNL     1       7.611   6.038  21.342  0.00  0.00    -0.476 OA
ATOM     15  H   UNL     1       7.197   6.928  21.273  0.00  0.00    +0.295 HD
ENDBRANCH  12  14
ENDBRANCH  10  12
BRANCH  11  16
ATOM     16  C   UNL     1       9.703   3.757  23.709  0.00  0.00    +0.197 C 
BRANCH  16  17
ATOM     17  O   UNL     1      10.902   3.542  22.978  0.00  0.00    -0.390 OA
ATOM     18  H   UNL     1      11.293   2.695  23.282  0.00  0.00    +0.210 HD
ENDBRANCH  16  17
ENDBRANCH  11  16
ENDBRANCH   5   7
BRANCH   1  20
ATOM     19  C   UNL     1       8.693  -3.580  25.541  0.00  0.00    +0.014 C 
ATOM     20  C   UNL     1       8.103  -2.481  25.051  0.00  0.00    +0.007 C 
BRANCH  19  21
ATOM     21  C   UNL     1       8.123  -4.338  26.700  0.00  0.00    +0.256 C 
BRANCH  21  22
ATOM     22  O   UNL     1       7.697  -5.656  26.335  0.00  0.00    -0.487 OA
BRANCH  22  24
ATOM     23  C   UNL     1       5.429  -6.113  27.072  0.00  0.00    +0.142 A 
ATOM     24  C   UNL     1       6.343  -5.741  26.065  0.00  0.00    +0.138 A 
ATOM     25  C   UNL     1       5.841  -5.392  24.793  0.00  0.00    +0.047 A 
ATOM     26  C   UNL     1       4.484  -5.466  24.492  0.00  0.00    +0.007 A 
ATOM     27  C   UNL     1       3.587  -5.855  25.472  0.00  0.00    +0.046 A 
ATOM     28  C   UNL     1       4.052  -6.153  26.751  0.00  0.00    +0.134 A 
BRANCH  23  29
ATOM     29  C   UNL     1       5.797  -6.468  28.468  0.00  0.00    +0.346 C 
ATOM     30  O   UNL     1       5.907  -7.640  28.810  0.00  0.00    -0.245 OA
BRANCH  29  32
ATOM     31  C   UNL     1       5.087  -5.008  30.152  0.00  0.00    +0.280 C 
ATOM     32  O   UNL     1       6.115  -5.400  29.237  0.00  0.00    -0.464 OA
ENDBRANCH  29  32
ENDBRANCH  23  29
BRANCH  28  33
ATOM     33  O   UNL     1       3.067  -6.485  27.650  0.00  0.00    -0.506 OA
ATOM     34  H   UNL     1       3.188  -5.949  28.462  0.00  0.00    +0.292 HD
ENDBRANCH  28  33
ENDBRANCH  22  24
ENDBRANCH  21  22
ENDBRANCH  19  21
ENDBRANCH   1  20
TORSDOF 12
ENDMDL
MODEL 6
REMARK VINA RESULT:      -6.6      1.195      2.365
REMARK  Name = 
REMARK  13 active torsions:
REMARK  status: ('A' for Active; 'I' for Inactive)
REMARK    1  A    between atoms: C_1  and  O_2
REMARK    2  A    between atoms: O_2  and  C_3
REMARK    3  A    between atoms: C_3  and  C_5
REMARK    4  A    between atoms: C_6  and  O_7
REMARK    5  A    between atoms: C_11  and  O_12
REMARK    6  A    between atoms: O_12  and  C_13
REMARK    7  A    between atoms: C_13  and  C_14
REMARK    8  A    between atoms: C_15  and  C_16
REMARK    9  A    between atoms: C_18  and  C_22
REMARK   10  A    between atoms: C_23  and  C_24
REMARK   11  A    between atoms: C_24  and  O_25
REMARK   12  A    between atoms: C_26  and  C_29
REMARK   13  A    between atoms: C_29  and  O_30
REMARK                            x       y       z     vdW  Elec       q    Type
REMARK                         _______ _______ _______ _____ _____    ______ ____
ROOT
ATOM      1  C   UNL     1       9.052  -1.404  24.123  0.00  0.00    -0.025 A 
ATOM      2  C   UNL     1       9.986  -1.887  23.210  0.00  0.00    +0.008 A 
ATOM      3  C   UNL     1      10.379  -1.089  22.140  0.00  0.00    +0.001 A 
ATOM      4  C   UNL     1       9.828   0.185  21.976  0.00  0.00    +0.012 A 
ATOM      5  C   UNL     1       8.890   0.698  22.890  0.00  0.00    +0.021 A 
ATOM      6  C   UNL     1       8.537  -0.103  23.983  0.00  0.00    +0.019 A 
ENDROOT
BRANCH   5   7
ATOM      7  C   UNL     1       8.285   2.012  22.662  0.00  0.00    +0.173 A 
ATOM      8  O   UNL     1       7.131   1.984  21.934  0.00  0.00    -0.354 OA
ATOM      9  N   UNL     1       6.620   3.253  21.793  0.00  0.00    -0.071 NA
ATOM     10  C   UNL     1       7.478   4.064  22.433  0.00  0.00    +0.196 A 
ATOM     11  C   UNL     1       8.558   3.327  23.015  0.00  0.00    +0.059 A 
BRANCH  10  12
ATOM     12  C   UNL     1       7.217   5.503  22.451  0.00  0.00    +0.359 C 
ATOM     13  O   UNL     1       8.069   6.351  22.678  0.00  0.00    -0.243 OA
BRANCH  12  14
ATOM     14  O   UNL     1       5.921   5.823  22.180  0.00  0.00    -0.476 OA
ATOM     15  H   UNL     1       5.883   6.759  21.877  0.00  0.00    +0.295 HD
ENDBRANCH  12  14
ENDBRANCH  10  12
BRANCH  11  16
ATOM     16  C   UNL     1       9.695   3.855  23.814  0.00  0.00    +0.197 C 
BRANCH  16  17
ATOM     17  O   UNL     1      10.535   4.743  23.089  0.00  0.00    -0.390 OA
ATOM     18  H   UNL     1      10.032   5.069  22.313  0.00  0.00    +0.210 HD
ENDBRANCH  16  17
ENDBRANCH  11  16
ENDBRANCH   5   7
BRANCH   1  20
ATOM     19  C   UNL     1       7.263  -2.679  25.254  0.00  0.00    +0.014 C 
ATOM     20  C   UNL     1       8.535  -2.262  25.186  0.00  0.00    +0.007 C 
BRANCH  19  21
ATOM     21  C   UNL     1       6.833  -3.767  26.189  0.00  0.00    +0.256 C 
BRANCH  21  22
ATOM     22  O   UNL     1       7.205  -5.068  25.721  0.00  0.00    -0.487 OA
BRANCH  22  24
ATOM     23  C   UNL     1       5.415  -5.696  24.205  0.00  0.00    +0.142 A 
ATOM     24  C   UNL     1       6.759  -5.340  24.440  0.00  0.00    +0.138 A 
ATOM     25  C   UNL     1       7.624  -5.202  23.334  0.00  0.00    +0.047 A 
ATOM     26  C   UNL     1       7.203  -5.467  22.034  0.00  0.00    +0.007 A 
ATOM     27  C   UNL     1       5.892  -5.841  21.803  0.00  0.00    +0.046 A 
ATOM     28  C   UNL     1       5.003  -5.932  22.873  0.00  0.00    +0.134 A 
BRANCH  23  29
ATOM     29  C   UNL     1       4.375  -5.841  25.258  0.00  0.00    +0.346 C 
ATOM     30  O   UNL     1       3.415  -5.081  25.302  0.00  0.00    -0.245 OA
BRANCH  29  32
ATOM     31  C   UNL     1       4.474  -6.681  27.438  0.00  0.00    +0.280 C 
ATOM     32  O   UNL     1       4.533  -6.940  26.032  0.00  0.00    -0.464 OA
ENDBRANCH  29  32
ENDBRANCH  23  29
BRANCH  28  33
ATOM     33  O   UNL     1       3.719  -6.269  22.517  0.00  0.00    -0.506 OA
ATOM     34  H   UNL     1       3.706  -6.491  21.562  0.00  0.00    +0.292 HD
ENDBRANCH  28  33
ENDBRANCH  22  24
ENDBRANCH  21  22
ENDBRANCH  19  21
ENDBRANCH   1  20
TORSDOF 12
ENDMDL
MODEL 7
REMARK VINA RESULT:      -6.5      2.109      3.120
REMARK  Name = 
REMARK  13 active torsions:
REMARK  status: ('A' for Active; 'I' for Inactive)
REMARK    1  A    between atoms: C_1  and  O_2
REMARK    2  A    between atoms: O_2  and  C_3
REMARK    3  A    between atoms: C_3  and  C_5
REMARK    4  A    between atoms: C_6  and  O_7
REMARK    5  A    between atoms: C_11  and  O_12
REMARK    6  A    between atoms: O_12  and  C_13
REMARK    7  A    between atoms: C_13  and  C_14
REMARK    8  A    between atoms: C_15  and  C_16
REMARK    9  A    between atoms: C_18  and  C_22
REMARK   10  A    between atoms: C_23  and  C_24
REMARK   11  A    between atoms: C_24  and  O_25
REMARK   12  A    between atoms: C_26  and  C_29
REMARK   13  A    between atoms: C_29  and  O_30
REMARK                            x       y       z     vdW  Elec       q    Type
REMARK                         _______ _______ _______ _____ _____    ______ ____
ROOT
ATOM      1  C   UNL     1       9.672  -0.888  23.404  0.00  0.00    -0.025 A 
ATOM      2  C   UNL     1       9.781  -0.700  22.028  0.00  0.00    +0.008 A 
ATOM      3  C   UNL     1       9.535   0.556  21.483  0.00  0.00    +0.001 A 
ATOM      4  C   UNL     1       9.166   1.619  22.312  0.00  0.00    +0.012 A 
ATOM      5  C   UNL     1       9.058   1.458  23.704  0.00  0.00    +0.021 A 
ATOM      6  C   UNL     1       9.349   0.196  24.240  0.00  0.00    +0.019 A 
ENDROOT
BRANCH   5   7
ATOM      7  C   UNL     1       8.613   2.573  24.542  0.00  0.00    +0.173 A 
ATOM      8  O   UNL     1       7.763   2.220  25.549  0.00  0.00    -0.354 OA
ATOM      9  N   UNL     1       7.419   3.321  26.298  0.00  0.00    -0.071 NA
ATOM     10  C   UNL     1       8.058   4.358  25.734  0.00  0.00    +0.196 A 
ATOM     11  C   UNL     1       8.843   3.941  24.612  0.00  0.00    +0.059 A 
BRANCH  10  12
ATOM     12  C   UNL     1       7.882   5.695  26.301  0.00  0.00    +0.359 C 
ATOM     13  O   UNL     1       6.902   6.400  26.102  0.00  0.00    -0.243 OA
BRANCH  12  14
ATOM     14  O   UNL     1       8.918   6.090  27.091  0.00  0.00    -0.476 OA
ATOM     15  H   UNL     1       8.570   6.676  27.801  0.00  0.00    +0.295 HD
ENDBRANCH  12  14
ENDBRANCH  10  12
BRANCH  11  16
ATOM     16  C   UNL     1       9.705   4.782  23.740  0.00  0.00    +0.197 C 
BRANCH  16  17
ATOM     17  O   UNL     1       8.975   5.569  22.809  0.00  0.00    -0.390 OA
ATOM     18  H   UNL     1       8.714   4.990  22.062  0.00  0.00    +0.210 HD
ENDBRANCH  16  17
ENDBRANCH  11  16
ENDBRANCH   5   7
BRANCH   1  20
ATOM     19  C   UNL     1       8.882  -2.788  24.770  0.00  0.00    +0.014 C 
ATOM     20  C   UNL     1       9.809  -2.219  23.989  0.00  0.00    +0.007 C 
BRANCH  19  21
ATOM     21  C   UNL     1       8.926  -4.243  25.125  0.00  0.00    +0.256 C 
BRANCH  21  22
ATOM     22  O   UNL     1       7.620  -4.798  25.316  0.00  0.00    -0.487 OA
BRANCH  22  24
ATOM     23  C   UNL     1       5.666  -5.608  24.125  0.00  0.00    +0.142 A 
ATOM     24  C   UNL     1       7.016  -5.203  24.139  0.00  0.00    +0.138 A 
ATOM     25  C   UNL     1       7.720  -5.155  22.918  0.00  0.00    +0.047 A 
ATOM     26  C   UNL     1       7.138  -5.554  21.718  0.00  0.00    +0.007 A 
ATOM     27  C   UNL     1       5.820  -5.976  21.704  0.00  0.00    +0.046 A 
ATOM     28  C   UNL     1       5.087  -5.982  22.889  0.00  0.00    +0.134 A 
BRANCH  23  29
ATOM     29  C   UNL     1       4.782  -5.672  25.318  0.00  0.00    +0.346 C 
ATOM     30  O   UNL     1       3.863  -4.874  25.464  0.00  0.00    -0.245 OA
BRANCH  29  32
ATOM     31  C   UNL     1       5.178  -6.428  27.496  0.00  0.00    +0.280 C 
ATOM     32  O   UNL     1       5.011  -6.746  26.111  0.00  0.00    -0.464 OA
ENDBRANCH  29  32
ENDBRANCH  23  29
BRANCH  28  33
ATOM     33  O   UNL     1       3.779  -6.378  22.746  0.00  0.00    -0.506 OA
ATOM     34  H   UNL     1       3.513  -6.880  23.545  0.00  0.00    +0.292 HD
ENDBRANCH  28  33
ENDBRANCH  22  24
ENDBRANCH  21  22
ENDBRANCH  19  21
ENDBRANCH   1  20
TORSDOF 12
ENDMDL
MODEL 8
REMARK VINA RESULT:      -6.4      3.125      9.295
REMARK  Name = 
REMARK  13 active torsions:
REMARK  status: ('A' for Active; 'I' for Inactive)
REMARK    1  A    between atoms: C_1  and  O_2
REMARK    2  A    between atoms: O_2  and  C_3
REMARK    3  A    between atoms: C_3  and  C_5
REMARK    4  A    between atoms: C_6  and  O_7
REMARK    5  A    between atoms: C_11  and  O_12
REMARK    6  A    between atoms: O_12  and  C_13
REMARK    7  A    between atoms: C_13  and  C_14
REMARK    8  A    between atoms: C_15  and  C_16
REMARK    9  A    between atoms: C_18  and  C_22
REMARK   10  A    between atoms: C_23  and  C_24
REMARK   11  A    between atoms: C_24  and  O_25
REMARK   12  A    between atoms: C_26  and  C_29
REMARK   13  A    between atoms: C_29  and  O_30
REMARK                            x       y       z     vdW  Elec       q    Type
REMARK                         _______ _______ _______ _____ _____    ______ ____
ROOT
ATOM      1  C   UNL     1       7.090  -3.568  22.454  0.00  0.00    -0.025 A 
ATOM      2  C   UNL     1       6.931  -4.324  21.295  0.00  0.00    +0.008 A 
ATOM      3  C   UNL     1       6.291  -5.558  21.360  0.00  0.00    +0.001 A 
ATOM      4  C   UNL     1       5.823  -6.040  22.586  0.00  0.00    +0.012 A 
ATOM      5  C   UNL     1       5.962  -5.292  23.767  0.00  0.00    +0.021 A 
ATOM      6  C   UNL     1       6.573  -4.034  23.675  0.00  0.00    +0.019 A 
ENDROOT
BRANCH   5   7
ATOM      7  C   UNL     1       5.516  -5.847  25.047  0.00  0.00    +0.173 A 
ATOM      8  O   UNL     1       4.426  -6.663  24.960  0.00  0.00    -0.354 OA
ATOM      9  N   UNL     1       4.094  -7.157  26.199  0.00  0.00    -0.071 NA
ATOM     10  C   UNL     1       4.986  -6.628  27.052  0.00  0.00    +0.196 A 
ATOM     11  C   UNL     1       5.924  -5.788  26.372  0.00  0.00    +0.059 A 
BRANCH  10  12
ATOM     12  C   UNL     1       4.891  -6.956  28.474  0.00  0.00    +0.359 C 
ATOM     13  O   UNL     1       3.920  -6.699  29.174  0.00  0.00    -0.243 OA
BRANCH  12  14
ATOM     14  O   UNL     1       5.992  -7.593  28.960  0.00  0.00    -0.476 OA
ATOM     15  H   UNL     1       6.720  -6.938  29.057  0.00  0.00    +0.295 HD
ENDBRANCH  12  14
ENDBRANCH  10  12
BRANCH  11  16
ATOM     16  C   UNL     1       7.068  -5.040  26.958  0.00  0.00    +0.197 C 
BRANCH  16  17
ATOM     17  O   UNL     1       8.087  -5.879  27.485  0.00  0.00    -0.390 OA
ATOM     18  H   UNL     1       8.630  -5.344  28.102  0.00  0.00    +0.210 HD
ENDBRANCH  16  17
ENDBRANCH  11  16
ENDBRANCH   5   7
BRANCH   1  20
ATOM     19  C   UNL     1       8.177  -1.632  23.534  0.00  0.00    +0.014 C 
ATOM     20  C   UNL     1       7.860  -2.327  22.435  0.00  0.00    +0.007 C 
BRANCH  19  21
ATOM     21  C   UNL     1       9.188  -0.527  23.511  0.00  0.00    +0.256 C 
BRANCH  21  22
ATOM     22  O   UNL     1       9.118   0.303  24.677  0.00  0.00    -0.487 OA
BRANCH  22  24
ATOM     23  C   UNL     1       8.511   2.643  24.903  0.00  0.00    +0.142 A 
ATOM     24  C   UNL     1       9.373   1.638  24.417  0.00  0.00    +0.138 A 
ATOM     25  C   UNL     1      10.536   2.024  23.719  0.00  0.00    +0.047 A 
ATOM     26  C   UNL     1      10.819   3.360  23.445  0.00  0.00    +0.007 A 
ATOM     27  C   UNL     1       9.963   4.347  23.898  0.00  0.00    +0.046 A 
ATOM     28  C   UNL     1       8.835   3.994  24.637  0.00  0.00    +0.134 A 
BRANCH  23  29
ATOM     29  C   UNL     1       7.273   2.399  25.688  0.00  0.00    +0.346 C 
ATOM     30  O   UNL     1       7.189   2.757  26.857  0.00  0.00    -0.245 OA
BRANCH  29  32
ATOM     31  C   UNL     1       5.669   0.706  25.511  0.00  0.00    +0.280 C 
ATOM     32  O   UNL     1       6.255   1.888  24.956  0.00  0.00    -0.464 OA
ENDBRANCH  29  32
ENDBRANCH  23  29
BRANCH  28  33
ATOM     33  O   UNL     1       8.084   5.060  25.070  0.00  0.00    -0.506 OA
ATOM     34  H   UNL     1       8.521   5.456  25.854  0.00  0.00    +0.292 HD
ENDBRANCH  28  33
ENDBRANCH  22  24
ENDBRANCH  21  22
ENDBRANCH  19  21
ENDBRANCH   1  20
TORSDOF 12
ENDMDL
MODEL 9
REMARK VINA RESULT:      -6.4      2.628      8.882
REMARK  Name = 
REMARK  13 active torsions:
REMARK  status: ('A' for Active; 'I' for Inactive)
REMARK    1  A    between atoms: C_1  and  O_2
REMARK    2  A    between atoms: O_2  and  C_3
REMARK    3  A    between atoms: C_3  and  C_5
REMARK    4  A    between atoms: C_6  and  O_7
REMARK    5  A    between atoms: C_11  and  O_12
REMARK    6  A    between atoms: O_12  and  C_13
REMARK    7  A    between atoms: C_13  and  C_14
REMARK    8  A    between atoms: C_15  and  C_16
REMARK    9  A    between atoms: C_18  and  C_22
REMARK   10  A    between atoms: C_23  and  C_24
REMARK   11  A    between atoms: C_24  and  O_25
REMARK   12  A    between atoms: C_26  and  C_29
REMARK   13  A    between atoms: C_29  and  O_30
REMARK                            x       y       z     vdW  Elec       q    Type
REMARK                         _______ _______ _______ _____ _____    ______ ____
ROOT
ATOM      1  C   UNL     1       9.399   0.432  23.479  0.00  0.00    -0.025 A 
ATOM      2  C   UNL     1       9.921   0.015  22.257  0.00  0.00    +0.008 A 
ATOM      3  C   UNL     1       9.773  -1.311  21.861  0.00  0.00    +0.001 A 
ATOM      4  C   UNL     1       9.114  -2.221  22.694  0.00  0.00    +0.012 A 
ATOM      5  C   UNL     1       8.570  -1.822  23.927  0.00  0.00    +0.021 A 
ATOM      6  C   UNL     1       8.694  -0.474  24.290  0.00  0.00    +0.019 A 
ENDROOT
BRANCH   5   7
ATOM      7  C   UNL     1       7.938  -2.808  24.806  0.00  0.00    +0.173 A 
ATOM      8  O   UNL     1       6.783  -2.383  25.395  0.00  0.00    -0.354 OA
ATOM      9  N   UNL     1       6.247  -3.378  26.177  0.00  0.00    -0.071 NA
ATOM     10  C   UNL     1       7.089  -4.418  26.072  0.00  0.00    +0.196 A 
ATOM     11  C   UNL     1       8.185  -4.115  25.202  0.00  0.00    +0.059 A 
BRANCH  10  12
ATOM     12  C   UNL     1       6.800  -5.646  26.811  0.00  0.00    +0.359 C 
ATOM     13  O   UNL     1       5.839  -6.370  26.588  0.00  0.00    -0.243 OA
BRANCH  12  14
ATOM     14  O   UNL     1       7.714  -5.925  27.781  0.00  0.00    -0.476 OA
ATOM     15  H   UNL     1       8.587  -5.561  27.507  0.00  0.00    +0.295 HD
ENDBRANCH  12  14
ENDBRANCH  10  12
BRANCH  11  16
ATOM     16  C   UNL     1       9.314  -5.004  24.816  0.00  0.00    +0.197 C 
BRANCH  16  17
ATOM     17  O   UNL     1      10.130  -5.394  25.911  0.00  0.00    -0.390 OA
ATOM     18  H   UNL     1      10.138  -6.375  25.948  0.00  0.00    +0.210 HD
ENDBRANCH  16  17
ENDBRANCH  11  16
ENDBRANCH   5   7
BRANCH   1  20
ATOM     19  C   UNL     1      10.413   2.680  23.339  0.00  0.00    +0.014 C 
ATOM     20  C   UNL     1       9.642   1.785  23.971  0.00  0.00    +0.007 C 
BRANCH  19  21
ATOM     21  C   UNL     1      10.423   4.129  23.717  0.00  0.00    +0.256 C 
BRANCH  21  22
ATOM     22  O   UNL     1       9.314   4.484  24.552  0.00  0.00    -0.487 OA
BRANCH  22  24
ATOM     23  C   UNL     1       6.950   4.518  24.000  0.00  0.00    +0.142 A 
ATOM     24  C   UNL     1       8.254   5.033  23.853  0.00  0.00    +0.138 A 
ATOM     25  C   UNL     1       8.445   6.163  23.031  0.00  0.00    +0.047 A 
ATOM     26  C   UNL     1       7.397   6.739  22.317  0.00  0.00    +0.007 A 
ATOM     27  C   UNL     1       6.120   6.220  22.439  0.00  0.00    +0.046 A 
ATOM     28  C   UNL     1       5.896   5.137  23.287  0.00  0.00    +0.134 A 
BRANCH  23  29
ATOM     29  C   UNL     1       6.581   3.362  24.858  0.00  0.00    +0.346 C 
ATOM     30  O   UNL     1       6.542   3.472  26.078  0.00  0.00    -0.245 OA
BRANCH  29  32
ATOM     31  C   UNL     1       5.319   1.393  24.893  0.00  0.00    +0.280 C 
ATOM     32  O   UNL     1       6.180   2.271  24.163  0.00  0.00    -0.464 OA
ENDBRANCH  29  32
ENDBRANCH  23  29
BRANCH  28  33
ATOM     33  O   UNL     1       4.584   4.736  23.361  0.00  0.00    -0.506 OA
ATOM     34  H   UNL     1       4.028   5.515  23.575  0.00  0.00    +0.292 HD
ENDBRANCH  28  33
ENDBRANCH  22  24
ENDBRANCH  21  22
ENDBRANCH  19  21
ENDBRANCH   1  20
TORSDOF 12
ENDMDL
