MODEL 1
REMARK VINA RESULT:      -6.3      0.000      0.000
REMARK  Name = 
REMARK  6 active torsions:
REMARK  status: ('A' for Active; 'I' for Inactive)
REMARK    1  A    between atoms: N_1  and  S_2
REMARK    2  A    between atoms: S_2  and  C_5
REMARK    3  A    between atoms: C_8  and  S_10
REMARK    4  A    between atoms: S_10  and  N_13
REMARK    5  A    between atoms: N_13  and  C_14
REMARK    6  A    between atoms: C_14  and  C_15
REMARK                            x       y       z     vdW  Elec       q    Type
REMARK                         _______ _______ _______ _____ _____    ______ ____
ROOT
ATOM      1  C   UNL     1       5.490  -5.647  23.615  0.00  0.00    +0.144 A 
ATOM      2  S   UNL     1       6.280  -4.703  24.807  0.00  0.00    -0.049 S 
ATOM      3  C   UNL     1       7.751  -4.698  23.936  0.00  0.00    +0.144 A 
ATOM      4  C   UNL     1       7.637  -5.400  22.749  0.00  0.00    +0.038 A 
ATOM      5  C   UNL     1       6.335  -5.948  22.565  0.00  0.00    +0.038 A 
ENDROOT
BRANCH   1   6
ATOM      6  S   UNL     1       3.797  -6.059  23.938  0.00  0.00    +0.062 S 
ATOM      7  O   UNL     1       3.485  -5.502  25.231  0.00  0.00    -0.153 OA
ATOM      8  O   UNL     1       3.067  -5.707  22.743  0.00  0.00    -0.153 OA
BRANCH   6   9
ATOM      9  N   UNL     1       3.701  -7.729  24.103  0.00  0.00    -0.203 NA
ATOM     10  H   UNL     1       2.732  -8.040  24.022  0.00  0.00    +0.144 HD
ATOM     11  H   UNL     1       4.298  -8.173  23.404  0.00  0.00    +0.144 HD
ENDBRANCH   6   9
ENDBRANCH   1   6
BRANCH   3  12
ATOM     12  S   UNL     1       9.140  -3.839  24.660  0.00  0.00    +0.065 S 
ATOM     13  O   UNL     1      10.093  -4.897  24.904  0.00  0.00    -0.153 OA
ATOM     14  O   UNL     1       8.615  -3.012  25.724  0.00  0.00    -0.153 OA
BRANCH  12  15
ATOM     15  N   UNL     1       9.806  -2.857  23.470  0.00  0.00    -0.185 NA
ATOM     16  H   UNL     1      10.504  -3.343  22.908  0.00  0.00    +0.148 HD
BRANCH  15  17
ATOM     17  C   UNL     1       8.870  -2.038  22.698  0.00  0.00    +0.148 C 
BRANCH  17  18
ATOM     18  C   UNL     1       9.375  -0.626  22.715  0.00  0.00    +0.005 A 
ATOM     19  S   UNL     1       9.907   0.085  24.183  0.00  0.00    -0.100 S 
ATOM     20  C   UNL     1      10.322   1.547  23.400  0.00  0.00    +0.045 A 
ATOM     21  C   UNL     1      10.047   1.509  22.051  0.00  0.00    +0.008 A 
ATOM     22  C   UNL     1       9.492   0.256  21.657  0.00  0.00    +0.012 A 
ENDBRANCH  17  18
ENDBRANCH  15  17
ENDBRANCH  12  15
ENDBRANCH   3  12
TORSDOF 6
ENDMDL
MODEL 2
REMARK VINA RESULT:      -6.1      2.160      2.597
REMARK  Name = 
REMARK  6 active torsions:
REMARK  status: ('A' for Active; 'I' for Inactive)
REMARK    1  A    between atoms: N_1  and  S_2
REMARK    2  A    between atoms: S_2  and  C_5
REMARK    3  A    between atoms: C_8  and  S_10
REMARK    4  A    between atoms: S_10  and  N_13
REMARK    5  A    between atoms: N_13  and  C_14
REMARK    6  A    between atoms: C_14  and  C_15
REMARK                            x       y       z     vdW  Elec       q    Type
REMARK                         _______ _______ _______ _____ _____    ______ ____
ROOT
ATOM      1  C   UNL     1       6.641  -4.761  23.235  0.00  0.00    +0.144 A 
ATOM      2  S   UNL     1       7.215  -3.357  22.437  0.00  0.00    -0.049 S 
ATOM      3  C   UNL     1       8.453  -3.116  23.592  0.00  0.00    +0.144 A 
ATOM      4  C   UNL     1       8.433  -4.099  24.565  0.00  0.00    +0.038 A 
ATOM      5  C   UNL     1       7.388  -5.045  24.361  0.00  0.00    +0.038 A 
ENDROOT
BRANCH   1   6
ATOM      6  S   UNL     1       5.239  -5.559  22.501  0.00  0.00    +0.062 S 
ATOM      7  O   UNL     1       4.102  -4.717  22.780  0.00  0.00    -0.153 OA
ATOM      8  O   UNL     1       5.638  -5.909  21.158  0.00  0.00    -0.153 OA
BRANCH   6   9
ATOM      9  N   UNL     1       4.981  -6.999  23.331  0.00  0.00    -0.203 NA
ATOM     10  H   UNL     1       5.408  -7.779  22.829  0.00  0.00    +0.144 HD
ATOM     11  H   UNL     1       5.349  -6.914  24.279  0.00  0.00    +0.144 HD
ENDBRANCH   6   9
ENDBRANCH   1   6
BRANCH   3  12
ATOM     12  S   UNL     1       9.522  -1.701  23.378  0.00  0.00    +0.065 S 
ATOM     13  O   UNL     1      10.668  -2.252  22.694  0.00  0.00    -0.153 OA
ATOM     14  O   UNL     1       9.629  -1.056  24.669  0.00  0.00    -0.153 OA
BRANCH  12  15
ATOM     15  N   UNL     1       8.772  -0.657  22.296  0.00  0.00    -0.185 NA
ATOM     16  H   UNL     1       7.894  -0.287  22.656  0.00  0.00    +0.148 HD
BRANCH  15  17
ATOM     17  C   UNL     1       9.628   0.339  21.647  0.00  0.00    +0.148 C 
BRANCH  17  18
ATOM     18  C   UNL     1       9.441   1.642  22.365  0.00  0.00    +0.005 A 
ATOM     19  S   UNL     1       7.987   2.533  22.175  0.00  0.00    -0.100 S 
ATOM     20  C   UNL     1       8.515   3.747  23.258  0.00  0.00    +0.045 A 
ATOM     21  C   UNL     1       9.778   3.494  23.744  0.00  0.00    +0.008 A 
ATOM     22  C   UNL     1      10.316   2.282  23.221  0.00  0.00    +0.012 A 
ENDBRANCH  17  18
ENDBRANCH  15  17
ENDBRANCH  12  15
ENDBRANCH   3  12
TORSDOF 6
ENDMDL
MODEL 3
REMARK VINA RESULT:      -6.1      2.641      3.629
REMARK  Name = 
REMARK  6 active torsions:
REMARK  status: ('A' for Active; 'I' for Inactive)
REMARK    1  A    between atoms: N_1  and  S_2
REMARK    2  A    between atoms: S_2  and  C_5
REMARK    3  A    between atoms: C_8  and  S_10
REMARK    4  A    between atoms: S_10  and  N_13
REMARK    5  A    between atoms: N_13  and  C_14
REMARK    6  A    between atoms: C_14  and  C_15
REMARK                            x       y       z     vdW  Elec       q    Type
REMARK                         _______ _______ _______ _____ _____    ______ ____
ROOT
ATOM      1  C   UNL     1       5.536  -6.043  26.158  0.00  0.00    +0.144 A 
ATOM      2  S   UNL     1       6.616  -5.118  25.201  0.00  0.00    -0.049 S 
ATOM      3  C   UNL     1       5.830  -5.566  23.750  0.00  0.00    +0.144 A 
ATOM      4  C   UNL     1       4.755  -6.401  23.995  0.00  0.00    +0.038 A 
ATOM      5  C   UNL     1       4.586  -6.677  25.381  0.00  0.00    +0.038 A 
ENDROOT
BRANCH   1   6
ATOM      6  S   UNL     1       5.828  -6.025  27.907  0.00  0.00    +0.062 S 
ATOM      7  O   UNL     1       7.258  -5.945  28.077  0.00  0.00    -0.153 OA
ATOM      8  O   UNL     1       4.924  -5.039  28.451  0.00  0.00    -0.153 OA
BRANCH   6   9
ATOM      9  N   UNL     1       5.358  -7.518  28.517  0.00  0.00    -0.203 NA
ATOM     10  H   UNL     1       5.733  -8.273  27.939  0.00  0.00    +0.144 HD
ATOM     11  H   UNL     1       5.664  -7.600  29.487  0.00  0.00    +0.144 HD
ENDBRANCH   6   9
ENDBRANCH   1   6
BRANCH   3  12
ATOM     12  S   UNL     1       6.491  -4.925  22.218  0.00  0.00    +0.065 S 
ATOM     13  O   UNL     1       5.388  -4.168  21.674  0.00  0.00    -0.153 OA
ATOM     14  O   UNL     1       7.082  -6.042  21.515  0.00  0.00    -0.153 OA
BRANCH  12  15
ATOM     15  N   UNL     1       7.691  -3.815  22.608  0.00  0.00    -0.185 NA
ATOM     16  H   UNL     1       8.611  -4.105  22.281  0.00  0.00    +0.148 HD
BRANCH  15  17
ATOM     17  C   UNL     1       7.380  -2.404  22.369  0.00  0.00    +0.148 C 
BRANCH  17  18
ATOM     18  C   UNL     1       8.513  -1.587  22.916  0.00  0.00    +0.005 A 
ATOM     19  S   UNL     1       9.454  -0.605  21.871  0.00  0.00    -0.100 S 
ATOM     20  C   UNL     1      10.410  -0.029  23.167  0.00  0.00    +0.045 A 
ATOM     21  C   UNL     1      10.037  -0.583  24.372  0.00  0.00    +0.008 A 
ATOM     22  C   UNL     1       8.946  -1.489  24.225  0.00  0.00    +0.012 A 
ENDBRANCH  17  18
ENDBRANCH  15  17
ENDBRANCH  12  15
ENDBRANCH   3  12
TORSDOF 6
ENDMDL
MODEL 4
REMARK VINA RESULT:      -5.9      2.322      2.888
REMARK  Name = 
REMARK  6 active torsions:
REMARK  status: ('A' for Active; 'I' for Inactive)
REMARK    1  A    between atoms: N_1  and  S_2
REMARK    2  A    between atoms: S_2  and  C_5
REMARK    3  A    between atoms: C_8  and  S_10
REMARK    4  A    between atoms: S_10  and  N_13
REMARK    5  A    between atoms: N_13  and  C_14
REMARK    6  A    between atoms: C_14  and  C_15
REMARK                            x       y       z     vdW  Elec       q    Type
REMARK                         _______ _______ _______ _____ _____    ______ ____
ROOT
ATOM      1  C   UNL     1       6.539  -4.650  23.547  0.00  0.00    +0.144 A 
ATOM      2  S   UNL     1       7.187  -3.496  22.458  0.00  0.00    -0.049 S 
ATOM      3  C   UNL     1       8.340  -2.957  23.601  0.00  0.00    +0.144 A 
ATOM      4  C   UNL     1       8.236  -3.655  24.791  0.00  0.00    +0.038 A 
ATOM      5  C   UNL     1       7.197  -4.628  24.760  0.00  0.00    +0.038 A 
ENDROOT
BRANCH   1   6
ATOM      6  S   UNL     1       5.184  -5.621  22.941  0.00  0.00    +0.062 S 
ATOM      7  O   UNL     1       4.998  -6.691  23.889  0.00  0.00    -0.153 OA
ATOM      8  O   UNL     1       4.138  -4.682  22.613  0.00  0.00    -0.153 OA
BRANCH   6   9
ATOM      9  N   UNL     1       5.675  -6.338  21.502  0.00  0.00    -0.203 NA
ATOM     10  H   UNL     1       5.400  -5.761  20.706  0.00  0.00    +0.144 HD
ATOM     11  H   UNL     1       6.683  -6.490  21.527  0.00  0.00    +0.144 HD
ENDBRANCH   6   9
ENDBRANCH   1   6
BRANCH   3  12
ATOM     12  S   UNL     1       9.439  -1.637  23.109  0.00  0.00    +0.065 S 
ATOM     13  O   UNL     1       8.625  -0.842  22.220  0.00  0.00    -0.153 OA
ATOM     14  O   UNL     1      10.674  -2.257  22.677  0.00  0.00    -0.153 OA
BRANCH  12  15
ATOM     15  N   UNL     1       9.737  -0.692  24.465  0.00  0.00    -0.185 NA
ATOM     16  H   UNL     1       9.775  -1.240  25.323  0.00  0.00    +0.148 HD
BRANCH  15  17
ATOM     17  C   UNL     1      10.794   0.314  24.343  0.00  0.00    +0.148 C 
BRANCH  17  18
ATOM     18  C   UNL     1      10.137   1.656  24.214  0.00  0.00    +0.005 A 
ATOM     19  S   UNL     1       8.568   1.916  24.858  0.00  0.00    -0.100 S 
ATOM     20  C   UNL     1       8.572   3.557  24.376  0.00  0.00    +0.045 A 
ATOM     21  C   UNL     1       9.734   3.902  23.722  0.00  0.00    +0.008 A 
ATOM     22  C   UNL     1      10.634   2.801  23.622  0.00  0.00    +0.012 A 
ENDBRANCH  17  18
ENDBRANCH  15  17
ENDBRANCH  12  15
ENDBRANCH   3  12
TORSDOF 6
ENDMDL
MODEL 5
REMARK VINA RESULT:      -5.8      2.692      7.385
REMARK  Name = 
REMARK  6 active torsions:
REMARK  status: ('A' for Active; 'I' for Inactive)
REMARK    1  A    between atoms: N_1  and  S_2
REMARK    2  A    between atoms: S_2  and  C_5
REMARK    3  A    between atoms: C_8  and  S_10
REMARK    4  A    between atoms: S_10  and  N_13
REMARK    5  A    between atoms: N_13  and  C_14
REMARK    6  A    between atoms: C_14  and  C_15
REMARK                            x       y       z     vdW  Elec       q    Type
REMARK                         _______ _______ _______ _____ _____    ______ ____
ROOT
ATOM      1  C   UNL     1       9.625  -0.012  23.056  0.00  0.00    +0.144 A 
ATOM      2  S   UNL     1       9.448  -0.889  24.517  0.00  0.00    -0.049 S 
ATOM      3  C   UNL     1       9.259  -2.374  23.691  0.00  0.00    +0.144 A 
ATOM      4  C   UNL     1       9.340  -2.202  22.321  0.00  0.00    +0.038 A 
ATOM      5  C   UNL     1       9.548  -0.842  21.955  0.00  0.00    +0.038 A 
ENDROOT
BRANCH   1   6
ATOM      6  S   UNL     1       9.857   1.738  23.217  0.00  0.00    +0.062 S 
ATOM      7  O   UNL     1       8.585   2.279  23.629  0.00  0.00    -0.153 OA
ATOM      8  O   UNL     1      11.063   1.909  23.992  0.00  0.00    -0.153 OA
BRANCH   6   9
ATOM      9  N   UNL     1      10.162   2.354  21.683  0.00  0.00    -0.203 NA
ATOM     10  H   UNL     1       9.413   2.986  21.398  0.00  0.00    +0.144 HD
ATOM     11  H   UNL     1      11.070   2.819  21.680  0.00  0.00    +0.144 HD
ENDBRANCH   6   9
ENDBRANCH   1   6
BRANCH   3  12
ATOM     12  S   UNL     1       8.994  -3.842  24.675  0.00  0.00    +0.065 S 
ATOM     13  O   UNL     1       8.386  -3.327  25.879  0.00  0.00    -0.153 OA
ATOM     14  O   UNL     1      10.245  -4.569  24.690  0.00  0.00    -0.153 OA
BRANCH  12  15
ATOM     15  N   UNL     1       7.823  -4.766  23.902  0.00  0.00    -0.185 NA
ATOM     16  H   UNL     1       7.933  -5.763  24.079  0.00  0.00    +0.148 HD
BRANCH  15  17
ATOM     17  C   UNL     1       6.443  -4.284  23.992  0.00  0.00    +0.148 C 
BRANCH  17  18
ATOM     18  C   UNL     1       5.637  -5.332  24.699  0.00  0.00    +0.005 A 
ATOM     19  S   UNL     1       4.494  -6.274  23.832  0.00  0.00    -0.100 S 
ATOM     20  C   UNL     1       4.081  -7.173  25.227  0.00  0.00    +0.045 A 
ATOM     21  C   UNL     1       4.783  -6.758  26.337  0.00  0.00    +0.008 A 
ATOM     22  C   UNL     1       5.675  -5.689  26.033  0.00  0.00    +0.012 A 
ENDBRANCH  17  18
ENDBRANCH  15  17
ENDBRANCH  12  15
ENDBRANCH   3  12
TORSDOF 6
ENDMDL
MODEL 6
REMARK VINA RESULT:      -5.7      2.730      3.260
REMARK  Name = 
REMARK  6 active torsions:
REMARK  status: ('A' for Active; 'I' for Inactive)
REMARK    1  A    between atoms: N_1  and  S_2
REMARK    2  A    between atoms: S_2  and  C_5
REMARK    3  A    between atoms: C_8  and  S_10
REMARK    4  A    between atoms: S_10  and  N_13
REMARK    5  A    between atoms: N_13  and  C_14
REMARK    6  A    between atoms: C_14  and  C_15
REMARK                            x       y       z     vdW  Elec       q    Type
REMARK                         _______ _______ _______ _____ _____    ______ ____
ROOT
ATOM      1  C   UNL     1       5.903  -5.015  27.220  0.00  0.00    +0.144 A 
ATOM      2  S   UNL     1       7.526  -5.265  26.730  0.00  0.00    -0.049 S 
ATOM      3  C   UNL     1       7.355  -4.232  25.378  0.00  0.00    +0.144 A 
ATOM      4  C   UNL     1       6.081  -3.699  25.309  0.00  0.00    +0.038 A 
ATOM      5  C   UNL     1       5.244  -4.151  26.368  0.00  0.00    +0.038 A 
ENDROOT
BRANCH   1   6
ATOM      6  S   UNL     1       5.382  -5.886  28.674  0.00  0.00    +0.062 S 
ATOM      7  O   UNL     1       6.442  -5.732  29.640  0.00  0.00    -0.153 OA
ATOM      8  O   UNL     1       4.028  -5.456  28.931  0.00  0.00    -0.153 OA
BRANCH   6   9
ATOM      9  N   UNL     1       5.318  -7.521  28.292  0.00  0.00    -0.203 NA
ATOM     10  H   UNL     1       4.351  -7.815  28.148  0.00  0.00    +0.144 HD
ATOM     11  H   UNL     1       5.892  -7.699  27.467  0.00  0.00    +0.144 HD
ENDBRANCH   6   9
ENDBRANCH   1   6
BRANCH   3  12
ATOM     12  S   UNL     1       8.774  -4.019  24.314  0.00  0.00    +0.065 S 
ATOM     13  O   UNL     1       8.236  -4.253  22.994  0.00  0.00    -0.153 OA
ATOM     14  O   UNL     1       9.840  -4.827  24.867  0.00  0.00    -0.153 OA
BRANCH  12  15
ATOM     15  N   UNL     1       9.216  -2.400  24.374  0.00  0.00    -0.185 NA
ATOM     16  H   UNL     1       9.418  -2.085  25.322  0.00  0.00    +0.148 HD
BRANCH  15  17
ATOM     17  C   UNL     1      10.178  -1.945  23.368  0.00  0.00    +0.148 C 
BRANCH  17  18
ATOM     18  C   UNL     1      10.198  -0.446  23.397  0.00  0.00    +0.005 A 
ATOM     19  S   UNL     1       9.734   0.452  22.010  0.00  0.00    -0.100 S 
ATOM     20  C   UNL     1       9.972   1.941  22.815  0.00  0.00    +0.045 A 
ATOM     21  C   UNL     1      10.413   1.767  24.108  0.00  0.00    +0.008 A 
ATOM     22  C   UNL     1      10.551   0.387  24.441  0.00  0.00    +0.012 A 
ENDBRANCH  17  18
ENDBRANCH  15  17
ENDBRANCH  12  15
ENDBRANCH   3  12
TORSDOF 6
ENDMDL
MODEL 7
REMARK VINA RESULT:      -5.7      2.407      2.680
REMARK  Name = 
REMARK  6 active torsions:
REMARK  status: ('A' for Active; 'I' for Inactive)
REMARK    1  A    between atoms: N_1  and  S_2
REMARK    2  A    between atoms: S_2  and  C_5
REMARK    3  A    between atoms: C_8  and  S_10
REMARK    4  A    between atoms: S_10  and  N_13
REMARK    5  A    between atoms: N_13  and  C_14
REMARK    6  A    between atoms: C_14  and  C_15
REMARK                            x       y       z     vdW  Elec       q    Type
REMARK                         _______ _______ _______ _____ _____    ______ ____
ROOT
ATOM      1  C   UNL     1       6.423  -5.514  26.535  0.00  0.00    +0.144 A 
ATOM      2  S   UNL     1       6.448  -4.600  25.086  0.00  0.00    -0.049 S 
ATOM      3  C   UNL     1       8.045  -4.058  25.367  0.00  0.00    +0.144 A 
ATOM      4  C   UNL     1       8.553  -4.576  26.546  0.00  0.00    +0.038 A 
ATOM      5  C   UNL     1       7.618  -5.412  27.219  0.00  0.00    +0.038 A 
ENDROOT
BRANCH   1   6
ATOM      6  S   UNL     1       4.919  -6.385  26.885  0.00  0.00    +0.062 S 
ATOM      7  O   UNL     1       3.991  -5.404  27.391  0.00  0.00    -0.153 OA
ATOM      8  O   UNL     1       4.642  -7.186  25.715  0.00  0.00    -0.153 OA
BRANCH   6   9
ATOM      9  N   UNL     1       5.228  -7.448  28.150  0.00  0.00    -0.203 NA
ATOM     10  H   UNL     1       4.472  -7.415  28.835  0.00  0.00    +0.144 HD
ATOM     11  H   UNL     1       5.359  -8.389  27.777  0.00  0.00    +0.144 HD
ENDBRANCH   6   9
ENDBRANCH   1   6
BRANCH   3  12
ATOM     12  S   UNL     1       8.772  -2.958  24.162  0.00  0.00    +0.065 S 
ATOM     13  O   UNL     1       7.835  -3.005  23.064  0.00  0.00    -0.153 OA
ATOM     14  O   UNL     1      10.156  -3.352  24.013  0.00  0.00    -0.153 OA
BRANCH  12  15
ATOM     15  N   UNL     1       8.702  -1.401  24.788  0.00  0.00    -0.185 NA
ATOM     16  H   UNL     1       9.621  -1.040  25.041  0.00  0.00    +0.148 HD
BRANCH  15  17
ATOM     17  C   UNL     1       7.851  -0.446  24.075  0.00  0.00    +0.148 C 
BRANCH  17  18
ATOM     18  C   UNL     1       8.741   0.606  23.481  0.00  0.00    +0.005 A 
ATOM     19  S   UNL     1       9.202   1.973  24.408  0.00  0.00    -0.100 S 
ATOM     20  C   UNL     1      10.158   2.595  23.134  0.00  0.00    +0.045 A 
ATOM     21  C   UNL     1      10.117   1.792  22.016  0.00  0.00    +0.008 A 
ATOM     22  C   UNL     1       9.292   0.647  22.215  0.00  0.00    +0.012 A 
ENDBRANCH  17  18
ENDBRANCH  15  17
ENDBRANCH  12  15
ENDBRANCH   3  12
TORSDOF 6
ENDMDL
MODEL 8
REMARK VINA RESULT:      -5.6      1.600      1.739
REMARK  Name = 
REMARK  6 active torsions:
REMARK  status: ('A' for Active; 'I' for Inactive)
REMARK    1  A    between atoms: N_1  and  S_2
REMARK    2  A    between atoms: S_2  and  C_5
REMARK    3  A    between atoms: C_8  and  S_10
REMARK    4  A    between atoms: S_10  and  N_13
REMARK    5  A    between atoms: N_13  and  C_14
REMARK    6  A    between atoms: C_14  and  C_15
REMARK                            x       y       z     vdW  Elec       q    Type
REMARK                         _______ _______ _______ _____ _____    ______ ____
ROOT
ATOM      1  C   UNL     1       5.364  -5.506  24.819  0.00  0.00    +0.144 A 
ATOM      2  S   UNL     1       6.817  -5.154  25.657  0.00  0.00    -0.049 S 
ATOM      3  C   UNL     1       7.377  -4.130  24.408  0.00  0.00    +0.144 A 
ATOM      4  C   UNL     1       6.463  -4.051  23.372  0.00  0.00    +0.038 A 
ATOM      5  C   UNL     1       5.305  -4.845  23.608  0.00  0.00    +0.038 A 
ENDROOT
BRANCH   1   6
ATOM      6  S   UNL     1       4.246  -6.619  25.626  0.00  0.00    +0.062 S 
ATOM      7  O   UNL     1       3.126  -5.823  26.063  0.00  0.00    -0.153 OA
ATOM      8  O   UNL     1       4.098  -7.748  24.737  0.00  0.00    -0.153 OA
BRANCH   6   9
ATOM      9  N   UNL     1       5.003  -7.182  27.017  0.00  0.00    -0.203 NA
ATOM     10  H   UNL     1       5.984  -7.396  26.827  0.00  0.00    +0.144 HD
ATOM     11  H   UNL     1       4.906  -6.489  27.760  0.00  0.00    +0.144 HD
ENDBRANCH   6   9
ENDBRANCH   1   6
BRANCH   3  12
ATOM     12  S   UNL     1       8.978  -3.365  24.619  0.00  0.00    +0.065 S 
ATOM     13  O   UNL     1       9.882  -4.490  24.644  0.00  0.00    -0.153 OA
ATOM     14  O   UNL     1       8.861  -2.443  25.729  0.00  0.00    -0.153 OA
BRANCH  12  15
ATOM     15  N   UNL     1       9.319  -2.504  23.216  0.00  0.00    -0.185 NA
ATOM     16  H   UNL     1       8.519  -2.450  22.588  0.00  0.00    +0.148 HD
BRANCH  15  17
ATOM     17  C   UNL     1      10.044  -1.243  23.382  0.00  0.00    +0.148 C 
BRANCH  17  18
ATOM     18  C   UNL     1       9.216  -0.154  22.769  0.00  0.00    +0.005 A 
ATOM     19  S   UNL     1       7.596   0.091  23.277  0.00  0.00    -0.100 S 
ATOM     20  C   UNL     1       7.397   1.422  22.222  0.00  0.00    +0.045 A 
ATOM     21  C   UNL     1       8.532   1.670  21.482  0.00  0.00    +0.008 A 
ATOM     22  C   UNL     1       9.580   0.754  21.793  0.00  0.00    +0.012 A 
ENDBRANCH  17  18
ENDBRANCH  15  17
ENDBRANCH  12  15
ENDBRANCH   3  12
TORSDOF 6
ENDMDL
MODEL 9
REMARK VINA RESULT:      -5.6      3.504      7.607
REMARK  Name = 
REMARK  6 active torsions:
REMARK  status: ('A' for Active; 'I' for Inactive)
REMARK    1  A    between atoms: N_1  and  S_2
REMARK    2  A    between atoms: S_2  and  C_5
REMARK    3  A    between atoms: C_8  and  S_10
REMARK    4  A    between atoms: S_10  and  N_13
REMARK    5  A    between atoms: N_13  and  C_14
REMARK    6  A    between atoms: C_14  and  C_15
REMARK                            x       y       z     vdW  Elec       q    Type
REMARK                         _______ _______ _______ _____ _____    ______ ____
ROOT
ATOM      1  C   UNL     1       8.707   2.351  22.820  0.00  0.00    +0.144 A 
ATOM      2  S   UNL     1       8.964   1.139  24.004  0.00  0.00    -0.049 S 
ATOM      3  C   UNL     1       9.283  -0.053  22.820  0.00  0.00    +0.144 A 
ATOM      4  C   UNL     1       9.204   0.471  21.542  0.00  0.00    +0.038 A 
ATOM      5  C   UNL     1       8.870   1.855  21.542  0.00  0.00    +0.038 A 
ENDROOT
BRANCH   1   6
ATOM      6  S   UNL     1       8.286   3.962  23.430  0.00  0.00    +0.062 S 
ATOM      7  O   UNL     1       7.157   3.780  24.308  0.00  0.00    -0.153 OA
ATOM      8  O   UNL     1       9.526   4.557  23.870  0.00  0.00    -0.153 OA
BRANCH   6   9
ATOM      9  N   UNL     1       7.736   4.871  22.128  0.00  0.00    -0.203 NA
ATOM     10  H   UNL     1       6.794   4.578  21.862  0.00  0.00    +0.144 HD
ATOM     11  H   UNL     1       7.768   5.862  22.368  0.00  0.00    +0.144 HD
ENDBRANCH   6   9
ENDBRANCH   1   6
BRANCH   3  12
ATOM     12  S   UNL     1       9.644  -1.709  23.387  0.00  0.00    +0.065 S 
ATOM     13  O   UNL     1       9.703  -1.561  24.823  0.00  0.00    -0.153 OA
ATOM     14  O   UNL     1      10.771  -2.182  22.613  0.00  0.00    -0.153 OA
BRANCH  12  15
ATOM     15  N   UNL     1       8.302  -2.664  23.056  0.00  0.00    -0.185 NA
ATOM     16  H   UNL     1       8.087  -2.703  22.061  0.00  0.00    +0.148 HD
BRANCH  15  17
ATOM     17  C   UNL     1       8.232  -3.955  23.742  0.00  0.00    +0.148 C 
BRANCH  17  18
ATOM     18  C   UNL     1       7.140  -4.757  23.099  0.00  0.00    +0.005 A 
ATOM     19  S   UNL     1       5.654  -5.009  23.920  0.00  0.00    -0.100 S 
ATOM     20  C   UNL     1       5.006  -5.895  22.608  0.00  0.00    +0.045 A 
ATOM     21  C   UNL     1       5.903  -6.015  21.570  0.00  0.00    +0.008 A 
ATOM     22  C   UNL     1       7.139  -5.364  21.858  0.00  0.00    +0.012 A 
ENDBRANCH  17  18
ENDBRANCH  15  17
ENDBRANCH  12  15
ENDBRANCH   3  12
TORSDOF 6
ENDMDL
