MODEL 1
REMARK VINA RESULT:      -7.3      0.000      0.000
REMARK  Name = 
REMARK  5 active torsions:
REMARK  status: ('A' for Active; 'I' for Inactive)
REMARK    1  A    between atoms: C_1  and  S_2
REMARK    2  A    between atoms: S_2  and  C_4
REMARK    3  A    between atoms: C_7  and  C_10
REMARK    4  A    between atoms: C_12  and  C_21
REMARK    5  A    between atoms: C_13  and  C_15
REMARK                            x       y       z     vdW  Elec       q    Type
REMARK                         _______ _______ _______ _____ _____    ______ ____
ROOT
ATOM      1  C   UNL     1       8.167   1.127  23.179  0.00  0.00    +0.139 A 
ATOM      2  N   UNL     1       7.192   2.022  22.814  0.00  0.00    -0.337 N 
ATOM      3  H   UNL     1       6.277   1.767  22.476  0.00  0.00    +0.167 HD
ATOM      4  C   UNL     1       7.652   3.315  22.972  0.00  0.00    +0.074 A 
ATOM      5  C   UNL     1       8.954   3.130  23.427  0.00  0.00    +0.097 A 
ATOM      6  N   UNL     1       9.251   1.786  23.522  0.00  0.00    -0.227 NA
ENDROOT
BRANCH   5   7
ATOM      7  C   UNL     1       9.973   4.126  23.743  0.00  0.00    +0.003 A 
ATOM      8  C   UNL     1       9.704   5.278  24.495  0.00  0.00    +0.013 A 
ATOM      9  C   UNL     1      10.684   6.263  24.660  0.00  0.00    +0.039 A 
ATOM     10  C   UNL     1      11.954   6.062  24.134  0.00  0.00    +0.123 A 
ATOM     11  F   UNL     1      12.886   7.015  24.277  0.00  0.00    -0.205 F 
ATOM     12  C   UNL     1      12.271   4.888  23.465  0.00  0.00    +0.039 A 
ATOM     13  C   UNL     1      11.281   3.923  23.271  0.00  0.00    +0.013 A 
ENDBRANCH   5   7
BRANCH   1  17
ATOM     14  C   UNL     1       7.778  -3.134  23.542  0.00  0.00    +0.039 A 
ATOM     15  C   UNL     1       6.673  -2.365  23.164  0.00  0.00    +0.018 A 
ATOM     16  C   UNL     1       6.788  -0.979  23.004  0.00  0.00    +0.012 A 
ATOM     17  C   UNL     1       8.010  -0.336  23.225  0.00  0.00    +0.017 A 
ATOM     18  C   UNL     1       9.128  -1.121  23.546  0.00  0.00    +0.012 A 
ATOM     19  C   UNL     1       9.018  -2.507  23.697  0.00  0.00    +0.018 A 
BRANCH  14  21
ATOM     20  C   UNL     1       7.240  -5.398  22.141  0.00  0.00    +0.127 C 
ATOM     21  S   UNL     1       7.618  -4.909  23.846  0.00  0.00    +0.051 S 
ATOM     22  O   UNL     1       9.003  -5.400  24.151  0.00  0.00    -0.252 OA
ENDBRANCH  14  21
ENDBRANCH   1  17
BRANCH   4  23
ATOM     23  C   UNL     1       6.805   4.480  22.665  0.00  0.00    +0.003 A 
ATOM     24  C   UNL     1       5.456   4.502  23.033  0.00  0.00    +0.030 A 
ATOM     25  C   UNL     1       4.710   5.648  22.796  0.00  0.00    +0.111 A 
ATOM     26  N   UNL     1       5.212   6.766  22.235  0.00  0.00    -0.263 NA
ATOM     27  C   UNL     1       6.506   6.723  21.861  0.00  0.00    +0.111 A 
ATOM     28  C   UNL     1       7.317   5.609  22.022  0.00  0.00    +0.030 A 
ENDBRANCH   4  23
TORSDOF 4
ENDMDL
MODEL 2
REMARK VINA RESULT:      -7.3      5.080      9.248
REMARK  Name = 
REMARK  5 active torsions:
REMARK  status: ('A' for Active; 'I' for Inactive)
REMARK    1  A    between atoms: C_1  and  S_2
REMARK    2  A    between atoms: S_2  and  C_4
REMARK    3  A    between atoms: C_7  and  C_10
REMARK    4  A    between atoms: C_12  and  C_21
REMARK    5  A    between atoms: C_13  and  C_15
REMARK                            x       y       z     vdW  Elec       q    Type
REMARK                         _______ _______ _______ _____ _____    ______ ____
ROOT
ATOM      1  C   UNL     1       8.362  -0.279  24.397  0.00  0.00    +0.139 A 
ATOM      2  N   UNL     1       8.126  -1.012  25.534  0.00  0.00    -0.337 N 
ATOM      3  H   UNL     1       8.315  -0.693  26.472  0.00  0.00    +0.167 HD
ATOM      4  C   UNL     1       7.603  -2.247  25.203  0.00  0.00    +0.074 A 
ATOM      5  C   UNL     1       7.566  -2.208  23.812  0.00  0.00    +0.097 A 
ATOM      6  N   UNL     1       8.056  -1.005  23.345  0.00  0.00    -0.227 NA
ENDROOT
BRANCH   5   7
ATOM      7  C   UNL     1       7.141  -3.237  22.869  0.00  0.00    +0.003 A 
ATOM      8  C   UNL     1       6.151  -3.023  21.901  0.00  0.00    +0.013 A 
ATOM      9  C   UNL     1       5.692  -4.080  21.108  0.00  0.00    +0.039 A 
ATOM     10  C   UNL     1       6.273  -5.336  21.235  0.00  0.00    +0.123 A 
ATOM     11  F   UNL     1       5.819  -6.351  20.488  0.00  0.00    -0.205 F 
ATOM     12  C   UNL     1       7.318  -5.551  22.122  0.00  0.00    +0.039 A 
ATOM     13  C   UNL     1       7.750  -4.503  22.936  0.00  0.00    +0.013 A 
ENDBRANCH   5   7
BRANCH   1  17
ATOM     14  C   UNL     1       9.703   3.785  24.058  0.00  0.00    +0.039 A 
ATOM     15  C   UNL     1       8.641   3.473  24.912  0.00  0.00    +0.018 A 
ATOM     16  C   UNL     1       8.213   2.149  25.066  0.00  0.00    +0.012 A 
ATOM     17  C   UNL     1       8.836   1.114  24.362  0.00  0.00    +0.017 A 
ATOM     18  C   UNL     1       9.938   1.428  23.551  0.00  0.00    +0.012 A 
ATOM     19  C   UNL     1      10.373   2.748  23.405  0.00  0.00    +0.018 A 
BRANCH  14  21
ATOM     20  C   UNL     1       9.542   6.182  25.326  0.00  0.00    +0.127 C 
ATOM     21  S   UNL     1      10.199   5.501  23.778  0.00  0.00    +0.051 S 
ATOM     22  O   UNL     1      11.697   5.518  23.887  0.00  0.00    -0.252 OA
ENDBRANCH  14  21
ENDBRANCH   1  17
BRANCH   4  23
ATOM     23  C   UNL     1       7.245  -3.237  26.232  0.00  0.00    +0.003 A 
ATOM     24  C   UNL     1       6.075  -3.096  26.985  0.00  0.00    +0.030 A 
ATOM     25  C   UNL     1       5.731  -4.089  27.891  0.00  0.00    +0.111 A 
ATOM     26  N   UNL     1       6.457  -5.207  28.089  0.00  0.00    -0.263 NA
ATOM     27  C   UNL     1       7.595  -5.318  27.377  0.00  0.00    +0.111 A 
ATOM     28  C   UNL     1       8.039  -4.360  26.478  0.00  0.00    +0.030 A 
ENDBRANCH   4  23
TORSDOF 4
ENDMDL
MODEL 3
REMARK VINA RESULT:      -7.0      2.455      4.406
REMARK  Name = 
REMARK  5 active torsions:
REMARK  status: ('A' for Active; 'I' for Inactive)
REMARK    1  A    between atoms: C_1  and  S_2
REMARK    2  A    between atoms: S_2  and  C_4
REMARK    3  A    between atoms: C_7  and  C_10
REMARK    4  A    between atoms: C_12  and  C_21
REMARK    5  A    between atoms: C_13  and  C_15
REMARK                            x       y       z     vdW  Elec       q    Type
REMARK                         _______ _______ _______ _____ _____    ______ ____
ROOT
ATOM      1  C   UNL     1       8.779   1.022  24.299  0.00  0.00    +0.139 A 
ATOM      2  N   UNL     1       9.866   1.859  24.341  0.00  0.00    -0.337 N 
ATOM      3  H   UNL     1      10.794   1.580  24.624  0.00  0.00    +0.167 HD
ATOM      4  C   UNL     1       9.502   3.132  23.949  0.00  0.00    +0.074 A 
ATOM      5  C   UNL     1       8.140   3.003  23.696  0.00  0.00    +0.097 A 
ATOM      6  N   UNL     1       7.719   1.711  23.939  0.00  0.00    -0.227 NA
ENDROOT
BRANCH   5   7
ATOM      7  C   UNL     1       7.177   4.017  23.279  0.00  0.00    +0.003 A 
ATOM      8  C   UNL     1       7.505   5.070  22.415  0.00  0.00    +0.013 A 
ATOM      9  C   UNL     1       6.581   6.086  22.150  0.00  0.00    +0.039 A 
ATOM     10  C   UNL     1       5.304   6.011  22.693  0.00  0.00    +0.123 A 
ATOM     11  F   UNL     1       4.427   6.995  22.453  0.00  0.00    -0.205 F 
ATOM     12  C   UNL     1       4.926   4.931  23.478  0.00  0.00    +0.039 A 
ATOM     13  C   UNL     1       5.861   3.937  23.769  0.00  0.00    +0.013 A 
ENDBRANCH   5   7
BRANCH   1  17
ATOM     14  C   UNL     1       9.087  -3.193  25.056  0.00  0.00    +0.039 A 
ATOM     15  C   UNL     1       8.481  -2.360  26.001  0.00  0.00    +0.018 A 
ATOM     16  C   UNL     1       8.337  -0.989  25.757  0.00  0.00    +0.012 A 
ATOM     17  C   UNL     1       8.803  -0.425  24.565  0.00  0.00    +0.017 A 
ATOM     18  C   UNL     1       9.357  -1.277  23.597  0.00  0.00    +0.012 A 
ATOM     19  C   UNL     1       9.493  -2.648  23.835  0.00  0.00    +0.018 A 
BRANCH  14  21
ATOM     20  C   UNL     1       7.972  -5.176  26.540  0.00  0.00    +0.127 C 
ATOM     21  S   UNL     1       9.366  -4.946  25.402  0.00  0.00    +0.051 S 
ATOM     22  O   UNL     1       9.027  -5.673  24.133  0.00  0.00    -0.252 OA
ENDBRANCH  14  21
ENDBRANCH   1  17
BRANCH   4  23
ATOM     23  C   UNL     1      10.479   4.233  23.891  0.00  0.00    +0.003 A 
ATOM     24  C   UNL     1      10.215   5.458  24.511  0.00  0.00    +0.030 A 
ATOM     25  C   UNL     1      11.192   6.444  24.501  0.00  0.00    +0.111 A 
ATOM     26  N   UNL     1      12.405   6.291  23.935  0.00  0.00    -0.263 NA
ATOM     27  C   UNL     1      12.637   5.115  23.319  0.00  0.00    +0.111 A 
ATOM     28  C   UNL     1      11.708   4.088  23.243  0.00  0.00    +0.030 A 
ENDBRANCH   4  23
TORSDOF 4
ENDMDL
MODEL 4
REMARK VINA RESULT:      -6.9      1.467      1.758
REMARK  Name = 
REMARK  5 active torsions:
REMARK  status: ('A' for Active; 'I' for Inactive)
REMARK    1  A    between atoms: C_1  and  S_2
REMARK    2  A    between atoms: S_2  and  C_4
REMARK    3  A    between atoms: C_7  and  C_10
REMARK    4  A    between atoms: C_12  and  C_21
REMARK    5  A    between atoms: C_13  and  C_15
REMARK                            x       y       z     vdW  Elec       q    Type
REMARK                         _______ _______ _______ _____ _____    ______ ____
ROOT
ATOM      1  C   UNL     1       7.760   0.831  23.212  0.00  0.00    +0.139 A 
ATOM      2  N   UNL     1       6.730   1.719  23.395  0.00  0.00    -0.337 N 
ATOM      3  H   UNL     1       5.751   1.478  23.358  0.00  0.00    +0.167 HD
ATOM      4  C   UNL     1       7.230   2.986  23.628  0.00  0.00    +0.074 A 
ATOM      5  C   UNL     1       8.607   2.796  23.551  0.00  0.00    +0.097 A 
ATOM      6  N   UNL     1       8.903   1.478  23.272  0.00  0.00    -0.227 NA
ENDROOT
BRANCH   5   7
ATOM      7  C   UNL     1       9.682   3.774  23.675  0.00  0.00    +0.003 A 
ATOM      8  C   UNL     1       9.477   5.076  24.151  0.00  0.00    +0.013 A 
ATOM      9  C   UNL     1      10.516   6.012  24.130  0.00  0.00    +0.039 A 
ATOM     10  C   UNL     1      11.779   5.626  23.698  0.00  0.00    +0.123 A 
ATOM     11  F   UNL     1      12.768   6.529  23.661  0.00  0.00    -0.205 F 
ATOM     12  C   UNL     1      12.030   4.318  23.309  0.00  0.00    +0.039 A 
ATOM     13  C   UNL     1      10.983   3.395  23.298  0.00  0.00    +0.013 A 
ENDBRANCH   5   7
BRANCH   1  17
ATOM     14  C   UNL     1       7.142  -3.363  22.527  0.00  0.00    +0.039 A 
ATOM     15  C   UNL     1       8.367  -2.777  22.192  0.00  0.00    +0.018 A 
ATOM     16  C   UNL     1       8.602  -1.420  22.442  0.00  0.00    +0.012 A 
ATOM     17  C   UNL     1       7.613  -0.622  23.025  0.00  0.00    +0.017 A 
ATOM     18  C   UNL     1       6.408  -1.230  23.412  0.00  0.00    +0.012 A 
ATOM     19  C   UNL     1       6.176  -2.588  23.173  0.00  0.00    +0.018 A 
BRANCH  14  21
ATOM     20  C   UNL     1       5.697  -5.436  23.524  0.00  0.00    +0.127 C 
ATOM     21  S   UNL     1       6.794  -5.090  22.120  0.00  0.00    +0.051 S 
ATOM     22  O   UNL     1       5.938  -5.056  20.888  0.00  0.00    -0.252 OA
ENDBRANCH  14  21
ENDBRANCH   1  17
BRANCH   4  23
ATOM     23  C   UNL     1       6.342   4.135  23.871  0.00  0.00    +0.003 A 
ATOM     24  C   UNL     1       5.942   4.471  25.168  0.00  0.00    +0.030 A 
ATOM     25  C   UNL     1       5.169   5.607  25.364  0.00  0.00    +0.111 A 
ATOM     26  N   UNL     1       4.783   6.430  24.370  0.00  0.00    -0.263 NA
ATOM     27  C   UNL     1       5.153   6.082  23.122  0.00  0.00    +0.111 A 
ATOM     28  C   UNL     1       5.891   4.946  22.826  0.00  0.00    +0.030 A 
ENDBRANCH   4  23
TORSDOF 4
ENDMDL
MODEL 5
REMARK VINA RESULT:      -6.9      5.117      9.190
REMARK  Name = 
REMARK  5 active torsions:
REMARK  status: ('A' for Active; 'I' for Inactive)
REMARK    1  A    between atoms: C_1  and  S_2
REMARK    2  A    between atoms: S_2  and  C_4
REMARK    3  A    between atoms: C_7  and  C_10
REMARK    4  A    between atoms: C_12  and  C_21
REMARK    5  A    between atoms: C_13  and  C_15
REMARK                            x       y       z     vdW  Elec       q    Type
REMARK                         _______ _______ _______ _____ _____    ______ ____
ROOT
ATOM      1  C   UNL     1       8.063  -0.452  24.513  0.00  0.00    +0.139 A 
ATOM      2  N   UNL     1       7.861  -1.286  23.441  0.00  0.00    -0.337 N 
ATOM      3  H   UNL     1       7.988  -1.021  22.476  0.00  0.00    +0.167 HD
ATOM      4  C   UNL     1       7.452  -2.531  23.878  0.00  0.00    +0.074 A 
ATOM      5  C   UNL     1       7.404  -2.376  25.260  0.00  0.00    +0.097 A 
ATOM      6  N   UNL     1       7.759  -1.092  25.620  0.00  0.00    -0.227 NA
ENDROOT
BRANCH   5   7
ATOM      7  C   UNL     1       7.005  -3.336  26.284  0.00  0.00    +0.003 A 
ATOM      8  C   UNL     1       7.762  -4.473  26.599  0.00  0.00    +0.013 A 
ATOM      9  C   UNL     1       7.271  -5.426  27.497  0.00  0.00    +0.039 A 
ATOM     10  C   UNL     1       6.056  -5.208  28.134  0.00  0.00    +0.123 A 
ATOM     11  F   UNL     1       5.579  -6.132  28.979  0.00  0.00    -0.205 F 
ATOM     12  C   UNL     1       5.332  -4.046  27.908  0.00  0.00    +0.039 A 
ATOM     13  C   UNL     1       5.807  -3.113  26.985  0.00  0.00    +0.013 A 
ENDBRANCH   5   7
BRANCH   1  17
ATOM     14  C   UNL     1       9.571   3.543  24.061  0.00  0.00    +0.039 A 
ATOM     15  C   UNL     1       8.399   3.321  24.790  0.00  0.00    +0.018 A 
ATOM     16  C   UNL     1       7.910   2.023  24.980  0.00  0.00    +0.012 A 
ATOM     17  C   UNL     1       8.584   0.923  24.440  0.00  0.00    +0.017 A 
ATOM     18  C   UNL     1       9.791   1.148  23.760  0.00  0.00    +0.012 A 
ATOM     19  C   UNL     1      10.285   2.444  23.577  0.00  0.00    +0.018 A 
BRANCH  14  21
ATOM     20  C   UNL     1       9.551   5.981  25.258  0.00  0.00    +0.127 C 
ATOM     21  S   UNL     1      10.156   5.220  23.726  0.00  0.00    +0.051 S 
ATOM     22  O   UNL     1      11.653   5.160  23.823  0.00  0.00    -0.252 OA
ENDBRANCH  14  21
ENDBRANCH   1  17
BRANCH   4  23
ATOM     23  C   UNL     1       7.173  -3.628  22.936  0.00  0.00    +0.003 A 
ATOM     24  C   UNL     1       7.776  -4.879  23.094  0.00  0.00    +0.030 A 
ATOM     25  C   UNL     1       7.428  -5.911  22.233  0.00  0.00    +0.111 A 
ATOM     26  N   UNL     1       6.521  -5.787  21.245  0.00  0.00    -0.263 NA
ATOM     27  C   UNL     1       5.967  -4.570  21.086  0.00  0.00    +0.111 A 
ATOM     28  C   UNL     1       6.281  -3.471  21.872  0.00  0.00    +0.030 A 
ENDBRANCH   4  23
TORSDOF 4
ENDMDL
MODEL 6
REMARK VINA RESULT:      -6.8      5.013      8.743
REMARK  Name = 
REMARK  5 active torsions:
REMARK  status: ('A' for Active; 'I' for Inactive)
REMARK    1  A    between atoms: C_1  and  S_2
REMARK    2  A    between atoms: S_2  and  C_4
REMARK    3  A    between atoms: C_7  and  C_10
REMARK    4  A    between atoms: C_12  and  C_21
REMARK    5  A    between atoms: C_13  and  C_15
REMARK                            x       y       z     vdW  Elec       q    Type
REMARK                         _______ _______ _______ _____ _____    ______ ____
ROOT
ATOM      1  C   UNL     1       8.185   0.481  24.236  0.00  0.00    +0.139 A 
ATOM      2  N   UNL     1       7.324   0.225  25.274  0.00  0.00    -0.337 N 
ATOM      3  H   UNL     1       7.119   0.870  26.021  0.00  0.00    +0.167 HD
ATOM      4  C   UNL     1       6.791  -1.044  25.147  0.00  0.00    +0.074 A 
ATOM      5  C   UNL     1       7.401  -1.524  23.992  0.00  0.00    +0.097 A 
ATOM      6  N   UNL     1       8.265  -0.584  23.469  0.00  0.00    -0.227 NA
ENDROOT
BRANCH   5   7
ATOM      7  C   UNL     1       7.272  -2.830  23.353  0.00  0.00    +0.003 A 
ATOM      8  C   UNL     1       6.441  -3.058  22.248  0.00  0.00    +0.013 A 
ATOM      9  C   UNL     1       6.256  -4.355  21.756  0.00  0.00    +0.039 A 
ATOM     10  C   UNL     1       6.956  -5.412  22.323  0.00  0.00    +0.123 A 
ATOM     11  F   UNL     1       6.762  -6.655  21.861  0.00  0.00    -0.205 F 
ATOM     12  C   UNL     1       7.855  -5.197  23.358  0.00  0.00    +0.039 A 
ATOM     13  C   UNL     1       8.011  -3.908  23.871  0.00  0.00    +0.013 A 
ENDBRANCH   5   7
BRANCH   1  17
ATOM     14  C   UNL     1      10.179   4.253  23.758  0.00  0.00    +0.039 A 
ATOM     15  C   UNL     1      10.806   3.078  23.335  0.00  0.00    +0.018 A 
ATOM     16  C   UNL     1      10.158   1.842  23.447  0.00  0.00    +0.012 A 
ATOM     17  C   UNL     1       8.872   1.760  23.991  0.00  0.00    +0.017 A 
ATOM     18  C   UNL     1       8.226   2.950  24.360  0.00  0.00    +0.012 A 
ATOM     19  C   UNL     1       8.868   4.186  24.239  0.00  0.00    +0.018 A 
BRANCH  14  21
ATOM     20  C   UNL     1      10.283   6.560  25.190  0.00  0.00    +0.127 C 
ATOM     21  S   UNL     1      11.044   5.841  23.708  0.00  0.00    +0.051 S 
ATOM     22  O   UNL     1      12.475   5.539  24.046  0.00  0.00    -0.252 OA
ENDBRANCH  14  21
ENDBRANCH   1  17
BRANCH   4  23
ATOM     23  C   UNL     1       5.824  -1.577  26.121  0.00  0.00    +0.003 A 
ATOM     24  C   UNL     1       6.037  -2.814  26.737  0.00  0.00    +0.030 A 
ATOM     25  C   UNL     1       5.144  -3.248  27.707  0.00  0.00    +0.111 A 
ATOM     26  N   UNL     1       4.073  -2.537  28.111  0.00  0.00    -0.263 NA
ATOM     27  C   UNL     1       3.865  -1.359  27.492  0.00  0.00    +0.111 A 
ATOM     28  C   UNL     1       4.680  -0.863  26.485  0.00  0.00    +0.030 A 
ENDBRANCH   4  23
TORSDOF 4
ENDMDL
MODEL 7
REMARK VINA RESULT:      -6.3      2.874      4.178
REMARK  Name = 
REMARK  5 active torsions:
REMARK  status: ('A' for Active; 'I' for Inactive)
REMARK    1  A    between atoms: C_1  and  S_2
REMARK    2  A    between atoms: S_2  and  C_4
REMARK    3  A    between atoms: C_7  and  C_10
REMARK    4  A    between atoms: C_12  and  C_21
REMARK    5  A    between atoms: C_13  and  C_15
REMARK                            x       y       z     vdW  Elec       q    Type
REMARK                         _______ _______ _______ _____ _____    ______ ____
ROOT
ATOM      1  C   UNL     1       7.692   0.707  23.868  0.00  0.00    +0.139 A 
ATOM      2  N   UNL     1       8.765   1.468  23.477  0.00  0.00    -0.337 N 
ATOM      3  H   UNL     1       9.494   1.155  22.854  0.00  0.00    +0.167 HD
ATOM      4  C   UNL     1       8.701   2.717  24.064  0.00  0.00    +0.074 A 
ATOM      5  C   UNL     1       7.546   2.639  24.838  0.00  0.00    +0.097 A 
ATOM      6  N   UNL     1       6.963   1.394  24.719  0.00  0.00    -0.227 NA
ENDROOT
BRANCH   5   7
ATOM      7  C   UNL     1       6.960   3.637  25.726  0.00  0.00    +0.003 A 
ATOM      8  C   UNL     1       6.195   4.715  25.262  0.00  0.00    +0.013 A 
ATOM      9  C   UNL     1       5.765   5.712  26.143  0.00  0.00    +0.039 A 
ATOM     10  C   UNL     1       6.039   5.595  27.500  0.00  0.00    +0.123 A 
ATOM     11  F   UNL     1       5.643   6.560  28.340  0.00  0.00    -0.205 F 
ATOM     12  C   UNL     1       6.716   4.489  27.997  0.00  0.00    +0.039 A 
ATOM     13  C   UNL     1       7.174   3.513  27.110  0.00  0.00    +0.013 A 
ENDBRANCH   5   7
BRANCH   1  17
ATOM     14  C   UNL     1       6.985  -3.316  22.544  0.00  0.00    +0.039 A 
ATOM     15  C   UNL     1       6.037  -2.672  23.344  0.00  0.00    +0.018 A 
ATOM     16  C   UNL     1       6.231  -1.348  23.756  0.00  0.00    +0.012 A 
ATOM     17  C   UNL     1       7.381  -0.646  23.379  0.00  0.00    +0.017 A 
ATOM     18  C   UNL     1       8.299  -1.280  22.527  0.00  0.00    +0.012 A 
ATOM     19  C   UNL     1       8.102  -2.599  22.107  0.00  0.00    +0.018 A 
BRANCH  14  21
ATOM     20  C   UNL     1       5.738  -5.539  23.484  0.00  0.00    +0.127 C 
ATOM     21  S   UNL     1       6.791  -5.055  22.088  0.00  0.00    +0.051 S 
ATOM     22  O   UNL     1       5.929  -5.064  20.859  0.00  0.00    -0.252 OA
ENDBRANCH  14  21
ENDBRANCH   1  17
BRANCH   4  23
ATOM     23  C   UNL     1       9.722   3.745  23.808  0.00  0.00    +0.003 A 
ATOM     24  C   UNL     1       9.430   5.103  23.973  0.00  0.00    +0.030 A 
ATOM     25  C   UNL     1      10.441   6.038  23.799  0.00  0.00    +0.111 A 
ATOM     26  N   UNL     1      11.712   5.717  23.487  0.00  0.00    -0.263 NA
ATOM     27  C   UNL     1      11.975   4.409  23.306  0.00  0.00    +0.111 A 
ATOM     28  C   UNL     1      11.021   3.408  23.420  0.00  0.00    +0.030 A 
ENDBRANCH   4  23
TORSDOF 4
ENDMDL
MODEL 8
REMARK VINA RESULT:      -6.3      2.371      4.358
REMARK  Name = 
REMARK  5 active torsions:
REMARK  status: ('A' for Active; 'I' for Inactive)
REMARK    1  A    between atoms: C_1  and  S_2
REMARK    2  A    between atoms: S_2  and  C_4
REMARK    3  A    between atoms: C_7  and  C_10
REMARK    4  A    between atoms: C_12  and  C_21
REMARK    5  A    between atoms: C_13  and  C_15
REMARK                            x       y       z     vdW  Elec       q    Type
REMARK                         _______ _______ _______ _____ _____    ______ ____
ROOT
ATOM      1  C   UNL     1       7.809   0.731  23.717  0.00  0.00    +0.139 A 
ATOM      2  N   UNL     1       8.987   1.435  23.722  0.00  0.00    -0.337 N 
ATOM      3  H   UNL     1       9.905   1.018  23.706  0.00  0.00    +0.167 HD
ATOM      4  C   UNL     1       8.729   2.792  23.761  0.00  0.00    +0.074 A 
ATOM      5  C   UNL     1       7.339   2.845  23.800  0.00  0.00    +0.097 A 
ATOM      6  N   UNL     1       6.802   1.573  23.796  0.00  0.00    -0.227 NA
ENDROOT
BRANCH   5   7
ATOM      7  C   UNL     1       6.460   4.006  23.886  0.00  0.00    +0.003 A 
ATOM      8  C   UNL     1       5.943   4.483  25.098  0.00  0.00    +0.013 A 
ATOM      9  C   UNL     1       5.004   5.520  25.111  0.00  0.00    +0.039 A 
ATOM     10  C   UNL     1       4.636   6.127  23.918  0.00  0.00    +0.123 A 
ATOM     11  F   UNL     1       3.722   7.107  23.931  0.00  0.00    -0.205 F 
ATOM     12  C   UNL     1       5.202   5.734  22.714  0.00  0.00    +0.039 A 
ATOM     13  C   UNL     1       6.112   4.676  22.700  0.00  0.00    +0.013 A 
ENDBRANCH   5   7
BRANCH   1  17
ATOM     14  C   UNL     1       7.259  -3.499  23.225  0.00  0.00    +0.039 A 
ATOM     15  C   UNL     1       8.451  -2.900  22.807  0.00  0.00    +0.018 A 
ATOM     16  C   UNL     1       8.665  -1.529  22.992  0.00  0.00    +0.012 A 
ATOM     17  C   UNL     1       7.687  -0.731  23.594  0.00  0.00    +0.017 A 
ATOM     18  C   UNL     1       6.518  -1.350  24.064  0.00  0.00    +0.012 A 
ATOM     19  C   UNL     1       6.307  -2.720  23.888  0.00  0.00    +0.018 A 
BRANCH  14  21
ATOM     20  C   UNL     1       5.131  -5.184  23.111  0.00  0.00    +0.127 C 
ATOM     21  S   UNL     1       6.932  -5.248  22.902  0.00  0.00    +0.051 S 
ATOM     22  O   UNL     1       7.201  -5.453  21.440  0.00  0.00    -0.252 OA
ENDBRANCH  14  21
ENDBRANCH   1  17
BRANCH   4  23
ATOM     23  C   UNL     1       9.815   3.786  23.764  0.00  0.00    +0.003 A 
ATOM     24  C   UNL     1      11.104   3.440  23.345  0.00  0.00    +0.030 A 
ATOM     25  C   UNL     1      12.082   4.423  23.288  0.00  0.00    +0.111 A 
ATOM     26  N   UNL     1      11.865   5.715  23.602  0.00  0.00    -0.263 NA
ATOM     27  C   UNL     1      10.626   6.030  24.028  0.00  0.00    +0.111 A 
ATOM     28  C   UNL     1       9.597   5.109  24.155  0.00  0.00    +0.030 A 
ENDBRANCH   4  23
TORSDOF 4
ENDMDL
MODEL 9
REMARK VINA RESULT:      -6.2      3.059      4.741
REMARK  Name = 
REMARK  5 active torsions:
REMARK  status: ('A' for Active; 'I' for Inactive)
REMARK    1  A    between atoms: C_1  and  S_2
REMARK    2  A    between atoms: S_2  and  C_4
REMARK    3  A    between atoms: C_7  and  C_10
REMARK    4  A    between atoms: C_12  and  C_21
REMARK    5  A    between atoms: C_13  and  C_15
REMARK                            x       y       z     vdW  Elec       q    Type
REMARK                         _______ _______ _______ _____ _____    ______ ____
ROOT
ATOM      1  C   UNL     1       8.127   0.797  24.837  0.00  0.00    +0.139 A 
ATOM      2  N   UNL     1       8.950   1.885  24.985  0.00  0.00    -0.337 N 
ATOM      3  H   UNL     1       9.912   1.839  25.285  0.00  0.00    +0.167 HD
ATOM      4  C   UNL     1       8.267   3.044  24.672  0.00  0.00    +0.074 A 
ATOM      5  C   UNL     1       6.994   2.579  24.353  0.00  0.00    +0.097 A 
ATOM      6  N   UNL     1       6.929   1.207  24.485  0.00  0.00    -0.227 NA
ENDROOT
BRANCH   5   7
ATOM      7  C   UNL     1       5.804   3.333  23.972  0.00  0.00    +0.003 A 
ATOM      8  C   UNL     1       5.180   4.253  24.824  0.00  0.00    +0.013 A 
ATOM      9  C   UNL     1       3.970   4.853  24.458  0.00  0.00    +0.039 A 
ATOM     10  C   UNL     1       3.421   4.585  23.210  0.00  0.00    +0.123 A 
ATOM     11  F   UNL     1       2.253   5.146  22.869  0.00  0.00    -0.205 F 
ATOM     12  C   UNL     1       4.068   3.748  22.312  0.00  0.00    +0.039 A 
ATOM     13  C   UNL     1       5.257   3.124  22.694  0.00  0.00    +0.013 A 
ENDBRANCH   5   7
BRANCH   1  17
ATOM     14  C   UNL     1       9.075  -3.361  25.336  0.00  0.00    +0.039 A 
ATOM     15  C   UNL     1       9.458  -2.697  24.167  0.00  0.00    +0.018 A 
ATOM     16  C   UNL     1       9.192  -1.333  24.000  0.00  0.00    +0.012 A 
ATOM     17  C   UNL     1       8.531  -0.610  24.998  0.00  0.00    +0.017 A 
ATOM     18  C   UNL     1       8.202  -1.270  26.193  0.00  0.00    +0.012 A 
ATOM     19  C   UNL     1       8.476  -2.630  26.365  0.00  0.00    +0.018 A 
BRANCH  14  21
ATOM     20  C   UNL     1       7.775  -5.501  26.389  0.00  0.00    +0.127 C 
ATOM     21  S   UNL     1       9.326  -5.142  25.520  0.00  0.00    +0.051 S 
ATOM     22  O   UNL     1       9.204  -5.719  24.139  0.00  0.00    -0.252 OA
ENDBRANCH  14  21
ENDBRANCH   1  17
BRANCH   4  23
ATOM     23  C   UNL     1       8.915   4.364  24.734  0.00  0.00    +0.003 A 
ATOM     24  C   UNL     1       9.906   4.720  23.813  0.00  0.00    +0.030 A 
ATOM     25  C   UNL     1      10.438   6.002  23.855  0.00  0.00    +0.111 A 
ATOM     26  N   UNL     1      10.047   6.947  24.732  0.00  0.00    -0.263 NA
ATOM     27  C   UNL     1       9.110   6.583  25.630  0.00  0.00    +0.111 A 
ATOM     28  C   UNL     1       8.550   5.316  25.689  0.00  0.00    +0.030 A 
ENDBRANCH   4  23
TORSDOF 4
ENDMDL
