MODEL 1
REMARK VINA RESULT:      -6.1      0.000      0.000
REMARK  Name = 
REMARK  8 active torsions:
REMARK  status: ('A' for Active; 'I' for Inactive)
REMARK    1  A    between atoms: C_2  and  O_3
REMARK    2  A    between atoms: C_4  and  O_6
REMARK    3  A    between atoms: C_7  and  N_9
REMARK    4  A    between atoms: N_9  and  C_10
REMARK    5  A    between atoms: C_10  and  C_11
REMARK    6  A    between atoms: C_17  and  S_19
REMARK    7  A    between atoms: S_19  and  C_20
REMARK    8  A    between atoms: C_21  and  O_23
REMARK                            x       y       z     vdW  Elec       q    Type
REMARK                         _______ _______ _______ _____ _____    ______ ____
ROOT
ATOM      1  C   UNL     1       8.273  -4.996  26.185  0.00  0.00    +0.174 C 
ATOM      2  C   UNL     1       6.917  -4.306  26.003  0.00  0.00    +0.160 C 
ATOM      3  C   UNL     1       6.970  -3.546  24.659  0.00  0.00    +0.097 C 
ATOM      4  C   UNL     1       8.399  -3.752  24.084  0.00  0.00    +0.101 C 
ATOM      5  C   UNL     1       8.837  -5.078  24.765  0.00  0.00    +0.163 C 
ENDROOT
BRANCH   2   6
ATOM      6  O   UNL     1       6.645  -3.409  27.083  0.00  0.00    -0.388 OA
ATOM      7  H   UNL     1       6.331  -3.989  27.813  0.00  0.00    +0.210 HD
ENDBRANCH   2   6
BRANCH   3   8
ATOM      8  S   UNL     1       5.722  -4.198  23.459  0.00  0.00    -0.156 S 
ATOM      9  C   UNL     1       6.632  -3.931  21.913  0.00  0.00    +0.084 C 
ENDBRANCH   3   8
BRANCH   4  10
ATOM     10  N   UNL     1       9.380  -2.687  24.402  0.00  0.00    -0.306 NA
ATOM     11  H   UNL     1      10.058  -3.071  25.064  0.00  0.00    +0.123 HD
BRANCH  10  12
ATOM     12  C   UNL     1      10.160  -2.239  23.246  0.00  0.00    +0.116 C 
BRANCH  12  13
ATOM     13  C   UNL     1      10.156  -0.728  23.178  0.00  0.00    -0.034 A 
ATOM     14  C   UNL     1      10.476   0.027  24.318  0.00  0.00    +0.005 A 
ATOM     15  C   UNL     1      10.494   1.421  24.267  0.00  0.00    +0.000 A 
ATOM     16  C   UNL     1      10.187   2.076  23.077  0.00  0.00    +0.000 A 
ATOM     17  C   UNL     1       9.857   1.339  21.941  0.00  0.00    +0.000 A 
ATOM     18  C   UNL     1       9.841  -0.057  21.989  0.00  0.00    +0.005 A 
ENDBRANCH  12  13
ENDBRANCH  10  12
ENDBRANCH   4  10
BRANCH   5  19
ATOM     19  O   UNL     1      10.255  -5.241  24.793  0.00  0.00    -0.388 OA
ATOM     20  H   UNL     1      10.411  -6.094  24.343  0.00  0.00    +0.210 HD
ENDBRANCH   5  19
BRANCH   1  21
ATOM     21  O   UNL     1       9.106  -4.218  27.058  0.00  0.00    -0.387 OA
ATOM     22  H   UNL     1       9.984  -4.644  27.039  0.00  0.00    +0.210 HD
ENDBRANCH   1  21
TORSDOF 7
ENDMDL
MODEL 2
REMARK VINA RESULT:      -6.1      1.500      2.301
REMARK  Name = 
REMARK  8 active torsions:
REMARK  status: ('A' for Active; 'I' for Inactive)
REMARK    1  A    between atoms: C_2  and  O_3
REMARK    2  A    between atoms: C_4  and  O_6
REMARK    3  A    between atoms: C_7  and  N_9
REMARK    4  A    between atoms: N_9  and  C_10
REMARK    5  A    between atoms: C_10  and  C_11
REMARK    6  A    between atoms: C_17  and  S_19
REMARK    7  A    between atoms: S_19  and  C_20
REMARK    8  A    between atoms: C_21  and  O_23
REMARK                            x       y       z     vdW  Elec       q    Type
REMARK                         _______ _______ _______ _____ _____    ______ ____
ROOT
ATOM      1  C   UNL     1       8.401  -5.356  25.077  0.00  0.00    +0.174 C 
ATOM      2  C   UNL     1       8.428  -4.481  26.334  0.00  0.00    +0.160 C 
ATOM      3  C   UNL     1       8.314  -3.012  25.869  0.00  0.00    +0.097 C 
ATOM      4  C   UNL     1       8.279  -3.036  24.315  0.00  0.00    +0.101 C 
ATOM      5  C   UNL     1       7.741  -4.463  24.023  0.00  0.00    +0.163 C 
ENDROOT
BRANCH   2   6
ATOM      6  O   UNL     1       9.631  -4.685  27.079  0.00  0.00    -0.388 OA
ATOM      7  H   UNL     1       9.761  -3.845  27.574  0.00  0.00    +0.210 HD
ENDBRANCH   2   6
BRANCH   3   8
ATOM      8  S   UNL     1       6.773  -2.214  26.509  0.00  0.00    -0.156 S 
ATOM      9  C   UNL     1       6.366  -1.171  25.081  0.00  0.00    +0.084 C 
ENDBRANCH   3   8
BRANCH   4  10
ATOM     10  N   UNL     1       9.586  -2.852  23.641  0.00  0.00    -0.306 NA
ATOM     11  H   UNL     1       9.900  -3.767  23.310  0.00  0.00    +0.123 HD
BRANCH  10  12
ATOM     12  C   UNL     1       9.521  -1.998  22.452  0.00  0.00    +0.116 C 
BRANCH  12  13
ATOM     13  C   UNL     1       9.875  -0.575  22.823  0.00  0.00    -0.034 A 
ATOM     14  C   UNL     1       9.741   0.451  21.873  0.00  0.00    +0.005 A 
ATOM     15  C   UNL     1      10.047   1.772  22.204  0.00  0.00    +0.000 A 
ATOM     16  C   UNL     1      10.494   2.080  23.487  0.00  0.00    +0.000 A 
ATOM     17  C   UNL     1      10.640   1.070  24.435  0.00  0.00    +0.000 A 
ATOM     18  C   UNL     1      10.333  -0.253  24.107  0.00  0.00    +0.005 A 
ENDBRANCH  12  13
ENDBRANCH  10  12
ENDBRANCH   4  10
BRANCH   5  19
ATOM     19  O   UNL     1       8.063  -4.914  22.707  0.00  0.00    -0.388 OA
ATOM     20  H   UNL     1       8.151  -4.094  22.183  0.00  0.00    +0.210 HD
ENDBRANCH   5  19
BRANCH   1  21
ATOM     21  O   UNL     1       9.737  -5.734  24.712  0.00  0.00    -0.387 OA
ATOM     22  H   UNL     1      10.024  -5.086  24.041  0.00  0.00    +0.210 HD
ENDBRANCH   1  21
TORSDOF 7
ENDMDL
MODEL 3
REMARK VINA RESULT:      -6.0      0.659      1.389
REMARK  Name = 
REMARK  8 active torsions:
REMARK  status: ('A' for Active; 'I' for Inactive)
REMARK    1  A    between atoms: C_2  and  O_3
REMARK    2  A    between atoms: C_4  and  O_6
REMARK    3  A    between atoms: C_7  and  N_9
REMARK    4  A    between atoms: N_9  and  C_10
REMARK    5  A    between atoms: C_10  and  C_11
REMARK    6  A    between atoms: C_17  and  S_19
REMARK    7  A    between atoms: S_19  and  C_20
REMARK    8  A    between atoms: C_21  and  O_23
REMARK                            x       y       z     vdW  Elec       q    Type
REMARK                         _______ _______ _______ _____ _____    ______ ____
ROOT
ATOM      1  C   UNL     1       8.292  -5.020  26.184  0.00  0.00    +0.174 C 
ATOM      2  C   UNL     1       6.931  -4.343  25.994  0.00  0.00    +0.160 C 
ATOM      3  C   UNL     1       6.988  -3.574  24.655  0.00  0.00    +0.097 C 
ATOM      4  C   UNL     1       8.424  -3.762  24.092  0.00  0.00    +0.101 C 
ATOM      5  C   UNL     1       8.869  -5.087  24.768  0.00  0.00    +0.163 C 
ENDROOT
BRANCH   2   6
ATOM      6  O   UNL     1       6.640  -3.456  27.076  0.00  0.00    -0.388 OA
ATOM      7  H   UNL     1       7.087  -3.860  27.854  0.00  0.00    +0.210 HD
ENDBRANCH   2   6
BRANCH   3   8
ATOM      8  S   UNL     1       5.757  -4.231  23.440  0.00  0.00    -0.156 S 
ATOM      9  C   UNL     1       5.116  -5.632  24.397  0.00  0.00    +0.084 C 
ENDBRANCH   3   8
BRANCH   4  10
ATOM     10  N   UNL     1       9.390  -2.689  24.425  0.00  0.00    -0.306 NA
ATOM     11  H   UNL     1      10.067  -3.070  25.090  0.00  0.00    +0.123 HD
BRANCH  10  12
ATOM     12  C   UNL     1      10.176  -2.226  23.278  0.00  0.00    +0.116 C 
BRANCH  12  13
ATOM     13  C   UNL     1      10.158  -0.714  23.221  0.00  0.00    -0.034 A 
ATOM     14  C   UNL     1       9.863  -0.061  22.014  0.00  0.00    +0.005 A 
ATOM     15  C   UNL     1       9.826   1.332  21.948  0.00  0.00    +0.000 A 
ATOM     16  C   UNL     1      10.088   2.088  23.088  0.00  0.00    +0.000 A 
ATOM     17  C   UNL     1      10.392   1.452  24.291  0.00  0.00    +0.000 A 
ATOM     18  C   UNL     1      10.428   0.057  24.359  0.00  0.00    +0.005 A 
ENDBRANCH  12  13
ENDBRANCH  10  12
ENDBRANCH   4  10
BRANCH   5  19
ATOM     19  O   UNL     1      10.289  -5.236  24.808  0.00  0.00    -0.388 OA
ATOM     20  H   UNL     1      10.432  -6.089  25.263  0.00  0.00    +0.210 HD
ENDBRANCH   5  19
BRANCH   1  21
ATOM     21  O   UNL     1       9.109  -4.240  27.069  0.00  0.00    -0.387 OA
ATOM     22  H   UNL     1       8.558  -4.059  27.853  0.00  0.00    +0.210 HD
ENDBRANCH   1  21
TORSDOF 7
ENDMDL
MODEL 4
REMARK VINA RESULT:      -6.0      2.105      3.013
REMARK  Name = 
REMARK  8 active torsions:
REMARK  status: ('A' for Active; 'I' for Inactive)
REMARK    1  A    between atoms: C_2  and  O_3
REMARK    2  A    between atoms: C_4  and  O_6
REMARK    3  A    between atoms: C_7  and  N_9
REMARK    4  A    between atoms: N_9  and  C_10
REMARK    5  A    between atoms: C_10  and  C_11
REMARK    6  A    between atoms: C_17  and  S_19
REMARK    7  A    between atoms: S_19  and  C_20
REMARK    8  A    between atoms: C_21  and  O_23
REMARK                            x       y       z     vdW  Elec       q    Type
REMARK                         _______ _______ _______ _____ _____    ______ ____
ROOT
ATOM      1  C   UNL     1       6.713  -4.887  23.181  0.00  0.00    +0.174 C 
ATOM      2  C   UNL     1       7.666  -4.747  24.372  0.00  0.00    +0.160 C 
ATOM      3  C   UNL     1       7.910  -3.237  24.585  0.00  0.00    +0.097 C 
ATOM      4  C   UNL     1       7.132  -2.495  23.462  0.00  0.00    +0.101 C 
ATOM      5  C   UNL     1       6.025  -3.522  23.099  0.00  0.00    +0.163 C 
ENDROOT
BRANCH   2   6
ATOM      6  O   UNL     1       8.898  -5.431  24.131  0.00  0.00    -0.388 OA
ATOM      7  H   UNL     1       9.091  -5.265  23.181  0.00  0.00    +0.210 HD
ENDBRANCH   2   6
BRANCH   3   8
ATOM      8  S   UNL     1       7.296  -2.674  26.237  0.00  0.00    -0.156 S 
ATOM      9  C   UNL     1       6.958  -4.288  26.992  0.00  0.00    +0.084 C 
ENDBRANCH   3   8
BRANCH   4  10
ATOM     10  N   UNL     1       7.916  -2.163  22.249  0.00  0.00    -0.306 NA
ATOM     11  H   UNL     1       7.616  -1.241  21.923  0.00  0.00    +0.123 HD
BRANCH  10  12
ATOM     12  C   UNL     1       9.356  -2.052  22.489  0.00  0.00    +0.116 C 
BRANCH  12  13
ATOM     13  C   UNL     1       9.725  -0.606  22.738  0.00  0.00    -0.034 A 
ATOM     14  C   UNL     1      10.231  -0.216  23.989  0.00  0.00    +0.005 A 
ATOM     15  C   UNL     1      10.592   1.110  24.229  0.00  0.00    +0.000 A 
ATOM     16  C   UNL     1      10.447   2.063  23.223  0.00  0.00    +0.000 A 
ATOM     17  C   UNL     1       9.936   1.691  21.981  0.00  0.00    +0.000 A 
ATOM     18  C   UNL     1       9.576   0.363  21.737  0.00  0.00    +0.005 A 
ENDBRANCH  12  13
ENDBRANCH  10  12
ENDBRANCH   4  10
BRANCH   5  19
ATOM     19  O   UNL     1       5.481  -3.308  21.796  0.00  0.00    -0.388 OA
ATOM     20  H   UNL     1       4.674  -3.858  21.776  0.00  0.00    +0.210 HD
ENDBRANCH   5  19
BRANCH   1  21
ATOM     21  O   UNL     1       7.455  -5.195  21.992  0.00  0.00    -0.387 OA
ATOM     22  H   UNL     1       8.279  -5.622  22.294  0.00  0.00    +0.210 HD
ENDBRANCH   1  21
TORSDOF 7
ENDMDL
MODEL 5
REMARK VINA RESULT:      -6.0      2.380      3.300
REMARK  Name = 
REMARK  8 active torsions:
REMARK  status: ('A' for Active; 'I' for Inactive)
REMARK    1  A    between atoms: C_2  and  O_3
REMARK    2  A    between atoms: C_4  and  O_6
REMARK    3  A    between atoms: C_7  and  N_9
REMARK    4  A    between atoms: N_9  and  C_10
REMARK    5  A    between atoms: C_10  and  C_11
REMARK    6  A    between atoms: C_17  and  S_19
REMARK    7  A    between atoms: S_19  and  C_20
REMARK    8  A    between atoms: C_21  and  O_23
REMARK                            x       y       z     vdW  Elec       q    Type
REMARK                         _______ _______ _______ _____ _____    ______ ____
ROOT
ATOM      1  C   UNL     1       5.573  -3.700  22.682  0.00  0.00    +0.174 C 
ATOM      2  C   UNL     1       6.227  -4.996  23.171  0.00  0.00    +0.160 C 
ATOM      3  C   UNL     1       7.521  -4.599  23.916  0.00  0.00    +0.097 C 
ATOM      4  C   UNL     1       7.646  -3.054  23.805  0.00  0.00    +0.101 C 
ATOM      5  C   UNL     1       6.170  -2.622  23.589  0.00  0.00    +0.163 C 
ENDROOT
BRANCH   2   6
ATOM      6  O   UNL     1       6.519  -5.871  22.079  0.00  0.00    -0.388 OA
ATOM      7  H   UNL     1       7.150  -6.528  22.450  0.00  0.00    +0.210 HD
ENDBRANCH   2   6
BRANCH   3   8
ATOM      8  S   UNL     1       7.456  -5.086  25.700  0.00  0.00    -0.156 S 
ATOM      9  C   UNL     1       8.609  -3.863  26.382  0.00  0.00    +0.084 C 
ENDBRANCH   3   8
BRANCH   4  10
ATOM     10  N   UNL     1       8.475  -2.555  22.682  0.00  0.00    -0.306 NA
ATOM     11  H   UNL     1       8.041  -1.701  22.325  0.00  0.00    +0.123 HD
BRANCH  10  12
ATOM     12  C   UNL     1       9.834  -2.177  23.076  0.00  0.00    +0.116 C 
BRANCH  12  13
ATOM     13  C   UNL     1       9.974  -0.670  23.054  0.00  0.00    -0.034 A 
ATOM     14  C   UNL     1      10.381   0.013  24.211  0.00  0.00    +0.005 A 
ATOM     15  C   UNL     1      10.532   1.400  24.203  0.00  0.00    +0.000 A 
ATOM     16  C   UNL     1      10.272   2.120  23.039  0.00  0.00    +0.000 A 
ATOM     17  C   UNL     1       9.857   1.455  21.887  0.00  0.00    +0.000 A 
ATOM     18  C   UNL     1       9.708   0.066  21.892  0.00  0.00    +0.005 A 
ENDBRANCH  12  13
ENDBRANCH  10  12
ENDBRANCH   4  10
BRANCH   5  19
ATOM     19  O   UNL     1       6.055  -1.333  22.985  0.00  0.00    -0.388 OA
ATOM     20  H   UNL     1       6.878  -1.232  22.469  0.00  0.00    +0.210 HD
ENDBRANCH   5  19
BRANCH   1  21
ATOM     21  O   UNL     1       5.887  -3.483  21.298  0.00  0.00    -0.387 OA
ATOM     22  H   UNL     1       6.663  -2.892  21.290  0.00  0.00    +0.210 HD
ENDBRANCH   1  21
TORSDOF 7
ENDMDL
MODEL 6
REMARK VINA RESULT:      -5.6      3.247      6.319
REMARK  Name = 
REMARK  8 active torsions:
REMARK  status: ('A' for Active; 'I' for Inactive)
REMARK    1  A    between atoms: C_2  and  O_3
REMARK    2  A    between atoms: C_4  and  O_6
REMARK    3  A    between atoms: C_7  and  N_9
REMARK    4  A    between atoms: N_9  and  C_10
REMARK    5  A    between atoms: C_10  and  C_11
REMARK    6  A    between atoms: C_17  and  S_19
REMARK    7  A    between atoms: S_19  and  C_20
REMARK    8  A    between atoms: C_21  and  O_23
REMARK                            x       y       z     vdW  Elec       q    Type
REMARK                         _______ _______ _______ _____ _____    ______ ____
ROOT
ATOM      1  C   UNL     1      10.201  -0.366  22.316  0.00  0.00    +0.174 C 
ATOM      2  C   UNL     1       9.438   0.963  22.325  0.00  0.00    +0.160 C 
ATOM      3  C   UNL     1       8.243   0.794  23.288  0.00  0.00    +0.097 C 
ATOM      4  C   UNL     1       8.282  -0.673  23.799  0.00  0.00    +0.101 C 
ATOM      5  C   UNL     1       9.781  -1.039  23.625  0.00  0.00    +0.163 C 
ENDROOT
BRANCH   2   6
ATOM      6  O   UNL     1       8.988   1.308  21.012  0.00  0.00    -0.388 OA
ATOM      7  H   UNL     1       9.471   0.693  20.415  0.00  0.00    +0.210 HD
ENDBRANCH   2   6
BRANCH   3   8
ATOM      8  S   UNL     1       8.359   1.952  24.726  0.00  0.00    -0.156 S 
ATOM      9  C   UNL     1       9.509   3.171  24.032  0.00  0.00    +0.084 C 
ENDBRANCH   3   8
BRANCH   4  10
ATOM     10  N   UNL     1       7.447  -1.638  23.045  0.00  0.00    -0.306 NA
ATOM     11  H   UNL     1       8.073  -2.306  22.589  0.00  0.00    +0.123 HD
BRANCH  10  12
ATOM     12  C   UNL     1       6.560  -2.438  23.892  0.00  0.00    +0.116 C 
BRANCH  12  13
ATOM     13  C   UNL     1       6.400  -3.823  23.305  0.00  0.00    -0.034 A 
ATOM     14  C   UNL     1       7.225  -4.236  22.245  0.00  0.00    +0.005 A 
ATOM     15  C   UNL     1       7.101  -5.516  21.704  0.00  0.00    +0.000 A 
ATOM     16  C   UNL     1       6.149  -6.396  22.213  0.00  0.00    +0.000 A 
ATOM     17  C   UNL     1       5.318  -5.996  23.257  0.00  0.00    +0.000 A 
ATOM     18  C   UNL     1       5.441  -4.715  23.803  0.00  0.00    +0.005 A 
ENDBRANCH  12  13
ENDBRANCH  10  12
ENDBRANCH   4  10
BRANCH   5  19
ATOM     19  O   UNL     1      10.001  -2.448  23.561  0.00  0.00    -0.388 OA
ATOM     20  H   UNL     1      10.180  -2.625  22.617  0.00  0.00    +0.210 HD
ENDBRANCH   5  19
BRANCH   1  21
ATOM     21  O   UNL     1       9.831  -1.137  21.163  0.00  0.00    -0.387 OA
ATOM     22  H   UNL     1      10.604  -1.117  20.568  0.00  0.00    +0.210 HD
ENDBRANCH   1  21
TORSDOF 7
ENDMDL
MODEL 7
REMARK VINA RESULT:      -5.5      3.439      6.041
REMARK  Name = 
REMARK  8 active torsions:
REMARK  status: ('A' for Active; 'I' for Inactive)
REMARK    1  A    between atoms: C_2  and  O_3
REMARK    2  A    between atoms: C_4  and  O_6
REMARK    3  A    between atoms: C_7  and  N_9
REMARK    4  A    between atoms: N_9  and  C_10
REMARK    5  A    between atoms: C_10  and  C_11
REMARK    6  A    between atoms: C_17  and  S_19
REMARK    7  A    between atoms: S_19  and  C_20
REMARK    8  A    between atoms: C_21  and  O_23
REMARK                            x       y       z     vdW  Elec       q    Type
REMARK                         _______ _______ _______ _____ _____    ______ ____
ROOT
ATOM      1  C   UNL     1       9.961   1.835  24.111  0.00  0.00    +0.174 C 
ATOM      2  C   UNL     1       9.263   2.188  22.794  0.00  0.00    +0.160 C 
ATOM      3  C   UNL     1       8.180   1.114  22.551  0.00  0.00    +0.097 C 
ATOM      4  C   UNL     1       8.294   0.091  23.715  0.00  0.00    +0.101 C 
ATOM      5  C   UNL     1       8.949   0.944  24.835  0.00  0.00    +0.163 C 
ENDROOT
BRANCH   2   6
ATOM      6  O   UNL     1      10.193   2.225  21.710  0.00  0.00    -0.388 OA
ATOM      7  H   UNL     1      10.769   2.999  21.904  0.00  0.00    +0.210 HD
ENDBRANCH   2   6
BRANCH   3   8
ATOM      8  S   UNL     1       6.482   1.849  22.539  0.00  0.00    -0.156 S 
ATOM      9  C   UNL     1       6.915   3.586  22.247  0.00  0.00    +0.084 C 
ENDBRANCH   3   8
BRANCH   4  10
ATOM     10  N   UNL     1       9.134  -1.099  23.445  0.00  0.00    -0.306 NA
ATOM     11  H   UNL     1       9.043  -1.736  24.240  0.00  0.00    +0.123 HD
BRANCH  10  12
ATOM     12  C   UNL     1       8.711  -1.866  22.271  0.00  0.00    +0.116 C 
BRANCH  12  13
ATOM     13  C   UNL     1       7.636  -2.855  22.663  0.00  0.00    -0.034 A 
ATOM     14  C   UNL     1       7.962  -3.969  23.454  0.00  0.00    +0.005 A 
ATOM     15  C   UNL     1       6.978  -4.880  23.839  0.00  0.00    +0.000 A 
ATOM     16  C   UNL     1       5.659  -4.692  23.434  0.00  0.00    +0.000 A 
ATOM     17  C   UNL     1       5.324  -3.596  22.641  0.00  0.00    +0.000 A 
ATOM     18  C   UNL     1       6.307  -2.680  22.256  0.00  0.00    +0.005 A 
ENDBRANCH  12  13
ENDBRANCH  10  12
ENDBRANCH   4  10
BRANCH   5  19
ATOM     19  O   UNL     1       9.597   0.146  25.827  0.00  0.00    -0.388 OA
ATOM     20  H   UNL     1       9.360  -0.772  25.595  0.00  0.00    +0.210 HD
ENDBRANCH   5  19
BRANCH   1  21
ATOM     21  O   UNL     1      11.195   1.152  23.844  0.00  0.00    -0.387 OA
ATOM     22  H   UNL     1      11.880   1.845  23.796  0.00  0.00    +0.210 HD
ENDBRANCH   1  21
TORSDOF 7
ENDMDL
MODEL 8
REMARK VINA RESULT:      -5.4      5.695      7.936
REMARK  Name = 
REMARK  8 active torsions:
REMARK  status: ('A' for Active; 'I' for Inactive)
REMARK    1  A    between atoms: C_2  and  O_3
REMARK    2  A    between atoms: C_4  and  O_6
REMARK    3  A    between atoms: C_7  and  N_9
REMARK    4  A    between atoms: N_9  and  C_10
REMARK    5  A    between atoms: C_10  and  C_11
REMARK    6  A    between atoms: C_17  and  S_19
REMARK    7  A    between atoms: S_19  and  C_20
REMARK    8  A    between atoms: C_21  and  O_23
REMARK                            x       y       z     vdW  Elec       q    Type
REMARK                         _______ _______ _______ _____ _____    ______ ____
ROOT
ATOM      1  C   UNL     1       7.540   6.208  22.881  0.00  0.00    +0.174 C 
ATOM      2  C   UNL     1       6.435   5.273  23.379  0.00  0.00    +0.160 C 
ATOM      3  C   UNL     1       7.126   4.110  24.126  0.00  0.00    +0.097 C 
ATOM      4  C   UNL     1       8.657   4.348  24.006  0.00  0.00    +0.101 C 
ATOM      5  C   UNL     1       8.732   5.883  23.784  0.00  0.00    +0.163 C 
ENDROOT
BRANCH   2   6
ATOM      6  O   UNL     1       5.646   4.780  22.293  0.00  0.00    -0.388 OA
ATOM      7  H   UNL     1       6.248   4.174  21.805  0.00  0.00    +0.210 HD
ENDBRANCH   2   6
BRANCH   3   8
ATOM      8  S   UNL     1       6.646   4.068  25.912  0.00  0.00    -0.156 S 
ATOM      9  C   UNL     1       5.053   4.930  25.810  0.00  0.00    +0.084 C 
ENDBRANCH   3   8
BRANCH   4  10
ATOM     10  N   UNL     1       9.329   3.652  22.884  0.00  0.00    -0.306 NA
ATOM     11  H   UNL     1       9.720   4.364  22.261  0.00  0.00    +0.123 HD
BRANCH  10  12
ATOM     12  C   UNL     1      10.461   2.820  23.298  0.00  0.00    +0.116 C 
BRANCH  12  13
ATOM     13  C   UNL     1      10.195   1.375  22.939  0.00  0.00    -0.034 A 
ATOM     14  C   UNL     1       9.617   1.054  21.700  0.00  0.00    +0.005 A 
ATOM     15  C   UNL     1       9.381  -0.274  21.347  0.00  0.00    +0.000 A 
ATOM     16  C   UNL     1       9.716  -1.298  22.231  0.00  0.00    +0.000 A 
ATOM     17  C   UNL     1      10.281  -0.993  23.468  0.00  0.00    +0.000 A 
ATOM     18  C   UNL     1      10.520   0.337  23.823  0.00  0.00    +0.005 A 
ENDBRANCH  12  13
ENDBRANCH  10  12
ENDBRANCH   4  10
BRANCH   5  19
ATOM     19  O   UNL     1       9.956   6.291  23.172  0.00  0.00    -0.388 OA
ATOM     20  H   UNL     1      10.537   5.508  23.242  0.00  0.00    +0.210 HD
ENDBRANCH   5  19
BRANCH   1  21
ATOM     21  O   UNL     1       7.818   5.947  21.497  0.00  0.00    -0.387 OA
ATOM     22  H   UNL     1       8.199   6.772  21.140  0.00  0.00    +0.210 HD
ENDBRANCH   1  21
TORSDOF 7
ENDMDL
MODEL 9
REMARK VINA RESULT:      -5.4      2.815      5.515
REMARK  Name = 
REMARK  8 active torsions:
REMARK  status: ('A' for Active; 'I' for Inactive)
REMARK    1  A    between atoms: C_2  and  O_3
REMARK    2  A    between atoms: C_4  and  O_6
REMARK    3  A    between atoms: C_7  and  N_9
REMARK    4  A    between atoms: N_9  and  C_10
REMARK    5  A    between atoms: C_10  and  C_11
REMARK    6  A    between atoms: C_17  and  S_19
REMARK    7  A    between atoms: S_19  and  C_20
REMARK    8  A    between atoms: C_21  and  O_23
REMARK                            x       y       z     vdW  Elec       q    Type
REMARK                         _______ _______ _______ _____ _____    ______ ____
ROOT
ATOM      1  C   UNL     1       8.342  -1.114  22.897  0.00  0.00    +0.174 C 
ATOM      2  C   UNL     1       7.415  -1.089  24.117  0.00  0.00    +0.160 C 
ATOM      3  C   UNL     1       8.125  -1.873  25.244  0.00  0.00    +0.097 C 
ATOM      4  C   UNL     1       9.456  -2.408  24.647  0.00  0.00    +0.101 C 
ATOM      5  C   UNL     1       9.722  -1.406  23.491  0.00  0.00    +0.163 C 
ENDROOT
BRANCH   2   6
ATOM      6  O   UNL     1       6.147  -1.674  23.813  0.00  0.00    -0.388 OA
ATOM      7  H   UNL     1       5.913  -1.314  22.929  0.00  0.00    +0.210 HD
ENDBRANCH   2   6
BRANCH   3   8
ATOM      8  S   UNL     1       8.492  -0.790  26.698  0.00  0.00    -0.156 S 
ATOM      9  C   UNL     1       7.627   0.715  26.172  0.00  0.00    +0.084 C 
ENDBRANCH   3   8
BRANCH   4  10
ATOM     10  N   UNL     1       9.408  -3.787  24.104  0.00  0.00    -0.306 NA
ATOM     11  H   UNL     1      10.348  -4.185  24.175  0.00  0.00    +0.123 HD
BRANCH  10  12
ATOM     12  C   UNL     1       8.535  -4.688  24.860  0.00  0.00    +0.116 C 
BRANCH  12  13
ATOM     13  C   UNL     1       7.362  -5.105  24.001  0.00  0.00    -0.034 A 
ATOM     14  C   UNL     1       6.060  -5.073  24.527  0.00  0.00    +0.005 A 
ATOM     15  C   UNL     1       4.966  -5.438  23.743  0.00  0.00    +0.000 A 
ATOM     16  C   UNL     1       5.160  -5.843  22.425  0.00  0.00    +0.000 A 
ATOM     17  C   UNL     1       6.447  -5.888  21.893  0.00  0.00    +0.000 A 
ATOM     18  C   UNL     1       7.545  -5.521  22.676  0.00  0.00    +0.005 A 
ENDBRANCH  12  13
ENDBRANCH  10  12
ENDBRANCH   4  10
BRANCH   5  19
ATOM     19  O   UNL     1      10.599  -1.933  22.495  0.00  0.00    -0.388 OA
ATOM     20  H   UNL     1      10.045  -2.560  21.990  0.00  0.00    +0.210 HD
ENDBRANCH   5  19
BRANCH   1  21
ATOM     21  O   UNL     1       7.918  -2.133  21.979  0.00  0.00    -0.387 OA
ATOM     22  H   UNL     1       8.428  -2.932  22.211  0.00  0.00    +0.210 HD
ENDBRANCH   1  21
TORSDOF 7
ENDMDL
