MODEL 1
REMARK VINA RESULT:      -7.0      0.000      0.000
REMARK  Name = 
REMARK  11 active torsions:
REMARK  status: ('A' for Active; 'I' for Inactive)
REMARK    1  A    between atoms: C_2  and  N_3
REMARK    2  A    between atoms: C_2  and  C_13
REMARK    3  A    between atoms: C_2  and  C_23
REMARK    4  A    between atoms: C_4  and  C_6
REMARK    5  A    between atoms: C_6  and  C_7
REMARK    6  A    between atoms: N_15  and  C_16
REMARK    7  A    between atoms: C_16  and  C_17
REMARK    8  A    between atoms: CA_26  and  C_28
REMARK    9  A    between atoms: C_28  and  O_29
REMARK   10  A    between atoms: C_31  and  C_32
REMARK   11  A    between atoms: C_31  and  C_33
REMARK                            x       y       z     vdW  Elec       q    Type
REMARK                         _______ _______ _______ _____ _____    ______ ____
ROOT
ATOM      1  C   UNL     1       7.581  -3.168  24.878  0.00  0.00    +0.186 C 
ENDROOT
BRANCH   1   2
ATOM      2  C   UNL     1       7.414  -4.722  24.859  0.00  0.00    +0.143 C 
ATOM      3  S   UNL     1       6.482  -5.342  26.295  0.00  0.00    -0.131 S 
ATOM      4  C   UNL     1       4.885  -5.496  25.401  0.00  0.00    +0.038 C 
ATOM      5  C   UNL     1       3.871  -4.593  26.103  0.00  0.00    +0.024 C 
ATOM      6  C   UNL     1       4.469  -6.970  25.491  0.00  0.00    +0.024 C 
ATOM      7  CA  UNL     1       5.211  -4.987  23.979  0.00  0.00    +0.180 C 
ATOM      8  N   UNL     1       6.667  -5.276  23.685  0.00  0.00    -0.290 NA
ATOM      9  H   UNL     1       6.791  -6.291  23.780  0.00  0.00    +0.124 HD
BRANCH   7  10
ATOM     10  C   UNL     1       4.314  -5.609  22.900  0.00  0.00    +0.323 C 
ATOM     11  OXT UNL     1       3.104  -5.448  22.817  0.00  0.00    -0.249 OA
BRANCH  10  12
ATOM     12  O   UNL     1       5.013  -6.367  22.019  0.00  0.00    -0.479 OA
ATOM     13  H   UNL     1       5.479  -7.073  22.525  0.00  0.00    +0.295 HD
ENDBRANCH  10  12
ENDBRANCH   7  10
ENDBRANCH   1   2
BRANCH   1  14
ATOM     14  C   UNL     1       8.022  -2.609  26.261  0.00  0.00    +0.236 C 
ATOM     15  N   UNL     1       7.258  -1.626  26.855  0.00  0.00    -0.310 N 
ATOM     16  H   UNL     1       7.629  -1.278  27.731  0.00  0.00    +0.149 HD
ATOM     17  O   UNL     1       9.038  -2.989  26.843  0.00  0.00    -0.274 OA
BRANCH  15  18
ATOM     18  C   UNL     1       6.199  -0.881  26.218  0.00  0.00    +0.139 C 
BRANCH  18  19
ATOM     19  C   UNL     1       6.637   0.386  25.555  0.00  0.00    -0.030 A 
ATOM     20  C   UNL     1       7.260   1.381  26.321  0.00  0.00    +0.005 A 
ATOM     21  C   UNL     1       7.565   2.615  25.756  0.00  0.00    +0.000 A 
ATOM     22  C   UNL     1       7.263   2.862  24.419  0.00  0.00    +0.000 A 
ATOM     23  C   UNL     1       6.658   1.873  23.644  0.00  0.00    +0.000 A 
ATOM     24  C   UNL     1       6.348   0.636  24.207  0.00  0.00    +0.005 A 
ENDBRANCH  18  19
ENDBRANCH  15  18
ENDBRANCH   1  14
BRANCH   1  25
ATOM     25  N   UNL     1       8.597  -2.735  23.906  0.00  0.00    -0.302 N 
ATOM     26  H   UNL     1       9.567  -2.745  24.198  0.00  0.00    +0.150 HD
ATOM     27  C   UNL     1       8.262  -2.231  22.672  0.00  0.00    +0.218 C 
ATOM     28  O   UNL     1       7.116  -2.241  22.233  0.00  0.00    -0.275 OA
BRANCH  27  29
ATOM     29  C   UNL     1       9.419  -1.602  21.921  0.00  0.00    +0.130 C 
BRANCH  29  30
ATOM     30  C   UNL     1       9.814  -0.293  22.537  0.00  0.00    -0.039 A 
ATOM     31  C   UNL     1      10.268  -0.229  23.860  0.00  0.00    +0.004 A 
ATOM     32  C   UNL     1      10.666   0.992  24.402  0.00  0.00    +0.000 A 
ATOM     33  C   UNL     1      10.604   2.153  23.627  0.00  0.00    +0.000 A 
ATOM     34  C   UNL     1      10.148   2.097  22.311  0.00  0.00    +0.000 A 
ATOM     35  C   UNL     1       9.748   0.878  21.773  0.00  0.00    +0.004 A 
ENDBRANCH  29  30
ENDBRANCH  27  29
ENDBRANCH   1  25
TORSDOF 9
ENDMDL
MODEL 2
REMARK VINA RESULT:      -6.8      0.829      3.526
REMARK  Name = 
REMARK  11 active torsions:
REMARK  status: ('A' for Active; 'I' for Inactive)
REMARK    1  A    between atoms: C_2  and  N_3
REMARK    2  A    between atoms: C_2  and  C_13
REMARK    3  A    between atoms: C_2  and  C_23
REMARK    4  A    between atoms: C_4  and  C_6
REMARK    5  A    between atoms: C_6  and  C_7
REMARK    6  A    between atoms: N_15  and  C_16
REMARK    7  A    between atoms: C_16  and  C_17
REMARK    8  A    between atoms: CA_26  and  C_28
REMARK    9  A    between atoms: C_28  and  O_29
REMARK   10  A    between atoms: C_31  and  C_32
REMARK   11  A    between atoms: C_31  and  C_33
REMARK                            x       y       z     vdW  Elec       q    Type
REMARK                         _______ _______ _______ _____ _____    ______ ____
ROOT
ATOM      1  C   UNL     1       8.016  -3.490  24.095  0.00  0.00    +0.186 C 
ENDROOT
BRANCH   1   2
ATOM      2  C   UNL     1       7.578  -4.980  24.272  0.00  0.00    +0.143 C 
ATOM      3  S   UNL     1       6.887  -5.312  25.923  0.00  0.00    -0.131 S 
ATOM      4  C   UNL     1       5.132  -5.212  25.390  0.00  0.00    +0.038 C 
ATOM      5  C   UNL     1       4.469  -4.085  26.184  0.00  0.00    +0.024 C 
ATOM      6  C   UNL     1       4.493  -6.568  25.716  0.00  0.00    +0.024 C 
ATOM      7  CA  UNL     1       5.226  -4.870  23.886  0.00  0.00    +0.180 C 
ATOM      8  N   UNL     1       6.509  -5.454  23.338  0.00  0.00    -0.290 NA
ATOM      9  H   UNL     1       6.470  -6.465  23.511  0.00  0.00    +0.124 HD
BRANCH   7  10
ATOM     10  C   UNL     1       4.021  -5.375  23.081  0.00  0.00    +0.323 C 
ATOM     11  OXT UNL     1       2.883  -4.933  23.172  0.00  0.00    -0.249 OA
BRANCH  10  12
ATOM     12  O   UNL     1       4.350  -6.380  22.231  0.00  0.00    -0.479 OA
ATOM     13  H   UNL     1       5.131  -6.091  21.705  0.00  0.00    +0.295 HD
ENDBRANCH  10  12
ENDBRANCH   7  10
ENDBRANCH   1   2
BRANCH   1  14
ATOM     14  C   UNL     1       7.981  -3.004  22.617  0.00  0.00    +0.236 C 
ATOM     15  N   UNL     1       9.058  -2.298  22.125  0.00  0.00    -0.310 N 
ATOM     16  H   UNL     1       8.949  -1.976  21.170  0.00  0.00    +0.149 HD
ATOM     17  O   UNL     1       7.024  -3.203  21.870  0.00  0.00    -0.274 OA
BRANCH  15  18
ATOM     18  C   UNL     1      10.139  -1.751  22.909  0.00  0.00    +0.139 C 
BRANCH  18  19
ATOM     19  C   UNL     1      10.138  -0.259  23.019  0.00  0.00    -0.030 A 
ATOM     20  C   UNL     1       9.781   0.510  21.904  0.00  0.00    +0.005 A 
ATOM     21  C   UNL     1       9.890   1.897  21.941  0.00  0.00    +0.000 A 
ATOM     22  C   UNL     1      10.344   2.527  23.097  0.00  0.00    +0.000 A 
ATOM     23  C   UNL     1      10.685   1.772  24.218  0.00  0.00    +0.000 A 
ATOM     24  C   UNL     1      10.580   0.382  24.184  0.00  0.00    +0.005 A 
ENDBRANCH  18  19
ENDBRANCH  15  18
ENDBRANCH   1  14
BRANCH   1  25
ATOM     25  N   UNL     1       7.135  -2.588  24.853  0.00  0.00    -0.302 N 
ATOM     26  H   UNL     1       6.153  -2.564  24.605  0.00  0.00    +0.150 HD
ATOM     27  C   UNL     1       7.617  -1.720  25.804  0.00  0.00    +0.218 C 
ATOM     28  O   UNL     1       8.782  -1.733  26.193  0.00  0.00    -0.275 OA
BRANCH  27  29
ATOM     29  C   UNL     1       6.607  -0.699  26.287  0.00  0.00    +0.130 C 
BRANCH  29  30
ATOM     30  C   UNL     1       6.787   0.613  25.584  0.00  0.00    -0.039 A 
ATOM     31  C   UNL     1       6.404   0.771  24.247  0.00  0.00    +0.004 A 
ATOM     32  C   UNL     1       6.545   2.011  23.623  0.00  0.00    +0.000 A 
ATOM     33  C   UNL     1       7.077   3.091  24.330  0.00  0.00    +0.000 A 
ATOM     34  C   UNL     1       7.466   2.939  25.660  0.00  0.00    +0.000 A 
ATOM     35  C   UNL     1       7.328   1.701  26.280  0.00  0.00    +0.004 A 
ENDBRANCH  29  30
ENDBRANCH  27  29
ENDBRANCH   1  25
TORSDOF 9
ENDMDL
MODEL 3
REMARK VINA RESULT:      -6.4      2.706      7.500
REMARK  Name = 
REMARK  11 active torsions:
REMARK  status: ('A' for Active; 'I' for Inactive)
REMARK    1  A    between atoms: C_2  and  N_3
REMARK    2  A    between atoms: C_2  and  C_13
REMARK    3  A    between atoms: C_2  and  C_23
REMARK    4  A    between atoms: C_4  and  C_6
REMARK    5  A    between atoms: C_6  and  C_7
REMARK    6  A    between atoms: N_15  and  C_16
REMARK    7  A    between atoms: C_16  and  C_17
REMARK    8  A    between atoms: CA_26  and  C_28
REMARK    9  A    between atoms: C_28  and  O_29
REMARK   10  A    between atoms: C_31  and  C_32
REMARK   11  A    between atoms: C_31  and  C_33
REMARK                            x       y       z     vdW  Elec       q    Type
REMARK                         _______ _______ _______ _____ _____    ______ ____
ROOT
ATOM      1  C   UNL     1       8.492  -1.247  24.628  0.00  0.00    +0.186 C 
ENDROOT
BRANCH   1   2
ATOM      2  C   UNL     1       9.574  -0.182  24.997  0.00  0.00    +0.143 C 
ATOM      3  S   UNL     1      10.564   0.335  23.559  0.00  0.00    -0.131 S 
ATOM      4  C   UNL     1       9.625   1.884  23.260  0.00  0.00    +0.038 C 
ATOM      5  C   UNL     1       9.031   1.803  21.853  0.00  0.00    +0.024 C 
ATOM      6  C   UNL     1      10.629   3.038  23.371  0.00  0.00    +0.024 C 
ATOM      7  CA  UNL     1       8.524   1.860  24.344  0.00  0.00    +0.180 C 
ATOM      8  N   UNL     1       9.049   1.108  25.547  0.00  0.00    -0.290 NA
ATOM      9  H   UNL     1       9.896   1.599  25.856  0.00  0.00    +0.124 HD
BRANCH   7  10
ATOM     10  C   UNL     1       8.054   3.262  24.753  0.00  0.00    +0.323 C 
ATOM     11  OXT UNL     1       7.495   4.058  24.010  0.00  0.00    -0.249 OA
BRANCH  10  12
ATOM     12  O   UNL     1       8.319   3.539  26.054  0.00  0.00    -0.479 OA
ATOM     13  H   UNL     1       8.340   2.687  26.549  0.00  0.00    +0.295 HD
ENDBRANCH  10  12
ENDBRANCH   7  10
ENDBRANCH   1   2
BRANCH   1  14
ATOM     14  C   UNL     1       9.086  -2.553  24.027  0.00  0.00    +0.236 C 
ATOM     15  N   UNL     1       8.471  -3.119  22.929  0.00  0.00    -0.310 N 
ATOM     16  H   UNL     1       8.885  -3.990  22.619  0.00  0.00    +0.149 HD
ATOM     17  O   UNL     1      10.070  -3.119  24.500  0.00  0.00    -0.274 OA
BRANCH  15  18
ATOM     18  C   UNL     1       7.178  -2.752  22.404  0.00  0.00    +0.139 C 
BRANCH  18  19
ATOM     19  C   UNL     1       6.136  -3.822  22.506  0.00  0.00    -0.030 A 
ATOM     20  C   UNL     1       4.901  -3.521  23.095  0.00  0.00    +0.005 A 
ATOM     21  C   UNL     1       3.962  -4.525  23.312  0.00  0.00    +0.000 A 
ATOM     22  C   UNL     1       4.245  -5.834  22.932  0.00  0.00    +0.000 A 
ATOM     23  C   UNL     1       5.465  -6.141  22.330  0.00  0.00    +0.000 A 
ATOM     24  C   UNL     1       6.409  -5.139  22.113  0.00  0.00    +0.005 A 
ENDBRANCH  18  19
ENDBRANCH  15  18
ENDBRANCH   1  14
BRANCH   1  25
ATOM     25  N   UNL     1       7.718  -1.645  25.814  0.00  0.00    -0.302 N 
ATOM     26  H   UNL     1       8.208  -2.118  26.563  0.00  0.00    +0.150 HD
ATOM     27  C   UNL     1       6.354  -1.486  25.887  0.00  0.00    +0.218 C 
ATOM     28  O   UNL     1       5.705  -0.874  25.042  0.00  0.00    -0.275 OA
BRANCH  27  29
ATOM     29  C   UNL     1       5.706  -2.186  27.065  0.00  0.00    +0.130 C 
BRANCH  29  30
ATOM     30  C   UNL     1       5.549  -3.654  26.801  0.00  0.00    -0.039 A 
ATOM     31  C   UNL     1       4.339  -4.306  27.066  0.00  0.00    +0.004 A 
ATOM     32  C   UNL     1       4.202  -5.664  26.778  0.00  0.00    +0.000 A 
ATOM     33  C   UNL     1       5.275  -6.374  26.234  0.00  0.00    +0.000 A 
ATOM     34  C   UNL     1       6.484  -5.731  25.973  0.00  0.00    +0.000 A 
ATOM     35  C   UNL     1       6.620  -4.377  26.264  0.00  0.00    +0.004 A 
ENDBRANCH  29  30
ENDBRANCH  27  29
ENDBRANCH   1  25
TORSDOF 9
ENDMDL
MODEL 4
REMARK VINA RESULT:      -6.4      2.795      7.580
REMARK  Name = 
REMARK  11 active torsions:
REMARK  status: ('A' for Active; 'I' for Inactive)
REMARK    1  A    between atoms: C_2  and  N_3
REMARK    2  A    between atoms: C_2  and  C_13
REMARK    3  A    between atoms: C_2  and  C_23
REMARK    4  A    between atoms: C_4  and  C_6
REMARK    5  A    between atoms: C_6  and  C_7
REMARK    6  A    between atoms: N_15  and  C_16
REMARK    7  A    between atoms: C_16  and  C_17
REMARK    8  A    between atoms: CA_26  and  C_28
REMARK    9  A    between atoms: C_28  and  O_29
REMARK   10  A    between atoms: C_31  and  C_32
REMARK   11  A    between atoms: C_31  and  C_33
REMARK                            x       y       z     vdW  Elec       q    Type
REMARK                         _______ _______ _______ _____ _____    ______ ____
ROOT
ATOM      1  C   UNL     1       8.926  -1.563  24.461  0.00  0.00    +0.186 C 
ENDROOT
BRANCH   1   2
ATOM      2  C   UNL     1       9.733  -0.330  24.981  0.00  0.00    +0.143 C 
ATOM      3  S   UNL     1      10.536   0.597  23.635  0.00  0.00    -0.131 S 
ATOM      4  C   UNL     1       9.248   1.903  23.543  0.00  0.00    +0.038 C 
ATOM      5  C   UNL     1       8.656   1.872  22.132  0.00  0.00    +0.024 C 
ATOM      6  C   UNL     1       9.951   3.237  23.818  0.00  0.00    +0.024 C 
ATOM      7  CA  UNL     1       8.211   1.470  24.604  0.00  0.00    +0.180 C 
ATOM      8  N   UNL     1       8.929   0.711  25.698  0.00  0.00    -0.290 NA
ATOM      9  H   UNL     1       9.642   1.344  26.077  0.00  0.00    +0.124 HD
BRANCH   7  10
ATOM     10  C   UNL     1       7.431   2.652  25.196  0.00  0.00    +0.323 C 
ATOM     11  OXT UNL     1       6.576   3.295  24.601  0.00  0.00    -0.249 OA
BRANCH  10  12
ATOM     12  O   UNL     1       7.785   2.916  26.478  0.00  0.00    -0.479 OA
ATOM     13  H   UNL     1       8.741   2.701  26.582  0.00  0.00    +0.295 HD
ENDBRANCH  10  12
ENDBRANCH   7  10
ENDBRANCH   1   2
BRANCH   1  14
ATOM     14  C   UNL     1       9.357  -2.033  23.042  0.00  0.00    +0.236 C 
ATOM     15  N   UNL     1       8.391  -2.184  22.070  0.00  0.00    -0.310 N 
ATOM     16  H   UNL     1       8.737  -2.535  21.185  0.00  0.00    +0.149 HD
ATOM     17  O   UNL     1      10.523  -2.299  22.751  0.00  0.00    -0.274 OA
BRANCH  15  18
ATOM     18  C   UNL     1       6.965  -2.174  22.289  0.00  0.00    +0.139 C 
BRANCH  18  19
ATOM     19  C   UNL     1       6.344  -3.529  22.426  0.00  0.00    -0.030 A 
ATOM     20  C   UNL     1       7.083  -4.662  22.062  0.00  0.00    +0.005 A 
ATOM     21  C   UNL     1       6.490  -5.920  22.063  0.00  0.00    +0.000 A 
ATOM     22  C   UNL     1       5.156  -6.058  22.440  0.00  0.00    +0.000 A 
ATOM     23  C   UNL     1       4.416  -4.939  22.821  0.00  0.00    +0.000 A 
ATOM     24  C   UNL     1       5.007  -3.676  22.818  0.00  0.00    +0.005 A 
ENDBRANCH  18  19
ENDBRANCH  15  18
ENDBRANCH   1  14
BRANCH   1  25
ATOM     25  N   UNL     1       9.096  -2.719  25.355  0.00  0.00    -0.302 N 
ATOM     26  H   UNL     1       9.965  -3.236  25.302  0.00  0.00    +0.150 HD
ATOM     27  C   UNL     1       8.086  -3.167  26.173  0.00  0.00    +0.218 C 
ATOM     28  O   UNL     1       7.030  -2.560  26.328  0.00  0.00    -0.275 OA
BRANCH  27  29
ATOM     29  C   UNL     1       8.356  -4.511  26.820  0.00  0.00    +0.130 C 
BRANCH  29  30
ATOM     30  C   UNL     1       7.090  -5.299  26.979  0.00  0.00    -0.039 A 
ATOM     31  C   UNL     1       6.358  -5.717  25.861  0.00  0.00    +0.004 A 
ATOM     32  C   UNL     1       5.204  -6.481  26.030  0.00  0.00    +0.000 A 
ATOM     33  C   UNL     1       4.773  -6.820  27.315  0.00  0.00    +0.000 A 
ATOM     34  C   UNL     1       5.494  -6.402  28.432  0.00  0.00    +0.000 A 
ATOM     35  C   UNL     1       6.644  -5.637  28.262  0.00  0.00    +0.004 A 
ENDBRANCH  29  30
ENDBRANCH  27  29
ENDBRANCH   1  25
TORSDOF 9
ENDMDL
MODEL 5
REMARK VINA RESULT:      -6.3      1.951      4.208
REMARK  Name = 
REMARK  11 active torsions:
REMARK  status: ('A' for Active; 'I' for Inactive)
REMARK    1  A    between atoms: C_2  and  N_3
REMARK    2  A    between atoms: C_2  and  C_13
REMARK    3  A    between atoms: C_2  and  C_23
REMARK    4  A    between atoms: C_4  and  C_6
REMARK    5  A    between atoms: C_6  and  C_7
REMARK    6  A    between atoms: N_15  and  C_16
REMARK    7  A    between atoms: C_16  and  C_17
REMARK    8  A    between atoms: CA_26  and  C_28
REMARK    9  A    between atoms: C_28  and  O_29
REMARK   10  A    between atoms: C_31  and  C_32
REMARK   11  A    between atoms: C_31  and  C_33
REMARK                            x       y       z     vdW  Elec       q    Type
REMARK                         _______ _______ _______ _____ _____    ______ ____
ROOT
ATOM      1  C   UNL     1       6.685  -1.566  24.157  0.00  0.00    +0.186 C 
ENDROOT
BRANCH   1   2
ATOM      2  C   UNL     1       5.738  -2.484  24.996  0.00  0.00    +0.143 C 
ATOM      3  S   UNL     1       5.010  -3.827  24.004  0.00  0.00    -0.131 S 
ATOM      4  C   UNL     1       6.198  -5.110  24.566  0.00  0.00    +0.038 C 
ATOM      5  C   UNL     1       6.933  -5.635  23.332  0.00  0.00    +0.024 C 
ATOM      6  C   UNL     1       5.372  -6.217  25.231  0.00  0.00    +0.024 C 
ATOM      7  CA  UNL     1       7.150  -4.339  25.509  0.00  0.00    +0.180 C 
ATOM      8  N   UNL     1       6.382  -3.199  26.142  0.00  0.00    -0.290 NA
ATOM      9  H   UNL     1       5.588  -3.619  26.639  0.00  0.00    +0.124 HD
BRANCH   7  10
ATOM     10  C   UNL     1       7.773  -5.231  26.591  0.00  0.00    +0.323 C 
ATOM     11  OXT UNL     1       7.381  -5.306  27.748  0.00  0.00    -0.249 OA
BRANCH  10  12
ATOM     12  O   UNL     1       8.823  -5.953  26.126  0.00  0.00    -0.479 OA
ATOM     13  H   UNL     1       9.408  -5.347  25.615  0.00  0.00    +0.295 HD
ENDBRANCH  10  12
ENDBRANCH   7  10
ENDBRANCH   1   2
BRANCH   1  14
ATOM     14  C   UNL     1       7.042  -2.153  22.761  0.00  0.00    +0.236 C 
ATOM     15  N   UNL     1       8.362  -2.438  22.479  0.00  0.00    -0.310 N 
ATOM     16  H   UNL     1       8.527  -2.775  21.537  0.00  0.00    +0.149 HD
ATOM     17  O   UNL     1       6.202  -2.355  21.886  0.00  0.00    -0.274 OA
BRANCH  15  18
ATOM     18  C   UNL     1       9.500  -2.031  23.266  0.00  0.00    +0.139 C 
BRANCH  18  19
ATOM     19  C   UNL     1       9.873  -0.588  23.128  0.00  0.00    -0.030 A 
ATOM     20  C   UNL     1      10.426   0.084  24.226  0.00  0.00    +0.005 A 
ATOM     21  C   UNL     1      10.668   1.453  24.164  0.00  0.00    +0.000 A 
ATOM     22  C   UNL     1      10.369   2.159  23.001  0.00  0.00    +0.000 A 
ATOM     23  C   UNL     1       9.834   1.496  21.898  0.00  0.00    +0.000 A 
ATOM     24  C   UNL     1       9.588   0.125  21.957  0.00  0.00    +0.005 A 
ENDBRANCH  18  19
ENDBRANCH  15  18
ENDBRANCH   1  14
BRANCH   1  25
ATOM     25  N   UNL     1       6.067  -0.253  23.914  0.00  0.00    -0.302 N 
ATOM     26  H   UNL     1       5.348  -0.191  23.203  0.00  0.00    +0.150 HD
ATOM     27  C   UNL     1       6.501   0.889  24.544  0.00  0.00    +0.218 C 
ATOM     28  O   UNL     1       7.326   0.880  25.453  0.00  0.00    -0.275 OA
BRANCH  27  29
ATOM     29  C   UNL     1       5.924   2.171  23.978  0.00  0.00    +0.130 C 
BRANCH  29  30
ATOM     30  C   UNL     1       6.938   3.276  24.001  0.00  0.00    -0.039 A 
ATOM     31  C   UNL     1       7.214   4.022  22.850  0.00  0.00    +0.004 A 
ATOM     32  C   UNL     1       8.133   5.070  22.903  0.00  0.00    +0.000 A 
ATOM     33  C   UNL     1       8.784   5.368  24.102  0.00  0.00    +0.000 A 
ATOM     34  C   UNL     1       8.517   4.625  25.251  0.00  0.00    +0.000 A 
ATOM     35  C   UNL     1       7.602   3.578  25.196  0.00  0.00    +0.004 A 
ENDBRANCH  29  30
ENDBRANCH  27  29
ENDBRANCH   1  25
TORSDOF 9
ENDMDL
MODEL 6
REMARK VINA RESULT:      -6.3      2.219      3.330
REMARK  Name = 
REMARK  11 active torsions:
REMARK  status: ('A' for Active; 'I' for Inactive)
REMARK    1  A    between atoms: C_2  and  N_3
REMARK    2  A    between atoms: C_2  and  C_13
REMARK    3  A    between atoms: C_2  and  C_23
REMARK    4  A    between atoms: C_4  and  C_6
REMARK    5  A    between atoms: C_6  and  C_7
REMARK    6  A    between atoms: N_15  and  C_16
REMARK    7  A    between atoms: C_16  and  C_17
REMARK    8  A    between atoms: CA_26  and  C_28
REMARK    9  A    between atoms: C_28  and  O_29
REMARK   10  A    between atoms: C_31  and  C_32
REMARK   11  A    between atoms: C_31  and  C_33
REMARK                            x       y       z     vdW  Elec       q    Type
REMARK                         _______ _______ _______ _____ _____    ______ ____
ROOT
ATOM      1  C   UNL     1       6.038  -3.725  24.476  0.00  0.00    +0.186 C 
ENDROOT
BRANCH   1   2
ATOM      2  C   UNL     1       5.087  -3.513  25.698  0.00  0.00    +0.143 C 
ATOM      3  S   UNL     1       3.496  -4.375  25.501  0.00  0.00    -0.131 S 
ATOM      4  C   UNL     1       3.959  -5.816  26.540  0.00  0.00    +0.038 C 
ATOM      5  C   UNL     1       3.869  -7.068  25.665  0.00  0.00    +0.024 C 
ATOM      6  C   UNL     1       2.949  -5.873  27.692  0.00  0.00    +0.024 C 
ATOM      7  CA  UNL     1       5.417  -5.515  26.954  0.00  0.00    +0.180 C 
ATOM      8  N   UNL     1       5.602  -4.015  27.010  0.00  0.00    -0.290 NA
ATOM      9  H   UNL     1       4.918  -3.659  27.688  0.00  0.00    +0.124 HD
BRANCH   7  10
ATOM     10  C   UNL     1       5.803  -6.153  28.295  0.00  0.00    +0.323 C 
ATOM     11  OXT UNL     1       6.157  -5.533  29.290  0.00  0.00    -0.249 OA
BRANCH  10  12
ATOM     12  O   UNL     1       5.704  -7.506  28.274  0.00  0.00    -0.479 OA
ATOM     13  H   UNL     1       6.615  -7.878  28.227  0.00  0.00    +0.295 HD
ENDBRANCH  10  12
ENDBRANCH   7  10
ENDBRANCH   1   2
BRANCH   1  14
ATOM     14  C   UNL     1       5.614  -2.923  23.212  0.00  0.00    +0.236 C 
ATOM     15  N   UNL     1       5.856  -1.566  23.173  0.00  0.00    -0.310 N 
ATOM     16  H   UNL     1       5.514  -1.102  22.340  0.00  0.00    +0.149 HD
ATOM     17  O   UNL     1       5.050  -3.442  22.249  0.00  0.00    -0.274 OA
BRANCH  15  18
ATOM     18  C   UNL     1       6.262  -0.750  24.292  0.00  0.00    +0.139 C 
BRANCH  18  19
ATOM     19  C   UNL     1       6.620   0.660  23.939  0.00  0.00    -0.030 A 
ATOM     20  C   UNL     1       6.502   1.085  22.609  0.00  0.00    +0.005 A 
ATOM     21  C   UNL     1       6.943   2.349  22.232  0.00  0.00    +0.000 A 
ATOM     22  C   UNL     1       7.495   3.204  23.183  0.00  0.00    +0.000 A 
ATOM     23  C   UNL     1       7.602   2.797  24.513  0.00  0.00    +0.000 A 
ATOM     24  C   UNL     1       7.163   1.529  24.894  0.00  0.00    +0.005 A 
ENDBRANCH  18  19
ENDBRANCH  15  18
ENDBRANCH   1  14
BRANCH   1  25
ATOM     25  N   UNL     1       7.411  -3.305  24.797  0.00  0.00    -0.302 N 
ATOM     26  H   UNL     1       7.533  -2.543  25.454  0.00  0.00    +0.150 HD
ATOM     27  C   UNL     1       8.509  -3.841  24.166  0.00  0.00    +0.218 C 
ATOM     28  O   UNL     1       8.440  -4.801  23.403  0.00  0.00    -0.275 OA
BRANCH  27  29
ATOM     29  C   UNL     1       9.806  -3.106  24.439  0.00  0.00    +0.130 C 
BRANCH  29  30
ATOM     30  C   UNL     1       9.867  -1.816  23.676  0.00  0.00    -0.039 A 
ATOM     31  C   UNL     1      10.293  -0.635  24.293  0.00  0.00    +0.004 A 
ATOM     32  C   UNL     1      10.379   0.545  23.556  0.00  0.00    +0.000 A 
ATOM     33  C   UNL     1      10.030   0.550  22.204  0.00  0.00    +0.000 A 
ATOM     34  C   UNL     1       9.600  -0.622  21.584  0.00  0.00    +0.000 A 
ATOM     35  C   UNL     1       9.512  -1.798  22.322  0.00  0.00    +0.004 A 
ENDBRANCH  29  30
ENDBRANCH  27  29
ENDBRANCH   1  25
TORSDOF 9
ENDMDL
MODEL 7
REMARK VINA RESULT:      -6.2      2.017      3.138
REMARK  Name = 
REMARK  11 active torsions:
REMARK  status: ('A' for Active; 'I' for Inactive)
REMARK    1  A    between atoms: C_2  and  N_3
REMARK    2  A    between atoms: C_2  and  C_13
REMARK    3  A    between atoms: C_2  and  C_23
REMARK    4  A    between atoms: C_4  and  C_6
REMARK    5  A    between atoms: C_6  and  C_7
REMARK    6  A    between atoms: N_15  and  C_16
REMARK    7  A    between atoms: C_16  and  C_17
REMARK    8  A    between atoms: CA_26  and  C_28
REMARK    9  A    between atoms: C_28  and  O_29
REMARK   10  A    between atoms: C_31  and  C_32
REMARK   11  A    between atoms: C_31  and  C_33
REMARK                            x       y       z     vdW  Elec       q    Type
REMARK                         _______ _______ _______ _____ _____    ______ ____
ROOT
ATOM      1  C   UNL     1       5.945  -1.391  25.552  0.00  0.00    +0.186 C 
ENDROOT
BRANCH   1   2
ATOM      2  C   UNL     1       5.418  -2.637  26.335  0.00  0.00    +0.143 C 
ATOM      3  S   UNL     1       4.450  -3.764  25.283  0.00  0.00    -0.131 S 
ATOM      4  C   UNL     1       5.826  -4.947  24.999  0.00  0.00    +0.038 C 
ATOM      5  C   UNL     1       6.087  -5.002  23.493  0.00  0.00    +0.024 C 
ATOM      6  C   UNL     1       5.357  -6.307  25.529  0.00  0.00    +0.024 C 
ATOM      7  CA  UNL     1       7.014  -4.315  25.759  0.00  0.00    +0.180 C 
ATOM      8  N   UNL     1       6.471  -3.520  26.927  0.00  0.00    -0.290 NA
ATOM      9  H   UNL     1       5.935  -4.177  27.506  0.00  0.00    +0.124 HD
BRANCH   7  10
ATOM     10  C   UNL     1       8.034  -5.353  26.246  0.00  0.00    +0.323 C 
ATOM     11  OXT UNL     1       8.946  -5.810  25.570  0.00  0.00    -0.249 OA
BRANCH  10  12
ATOM     12  O   UNL     1       7.825  -5.720  27.536  0.00  0.00    -0.479 OA
ATOM     13  H   UNL     1       7.157  -6.444  27.543  0.00  0.00    +0.295 HD
ENDBRANCH  10  12
ENDBRANCH   7  10
ENDBRANCH   1   2
BRANCH   1  14
ATOM     14  C   UNL     1       6.123  -0.128  26.442  0.00  0.00    +0.236 C 
ATOM     15  N   UNL     1       5.944   1.116  25.873  0.00  0.00    -0.310 N 
ATOM     16  H   UNL     1       6.119   1.893  26.499  0.00  0.00    +0.149 HD
ATOM     17  O   UNL     1       6.438  -0.186  27.630  0.00  0.00    -0.274 OA
BRANCH  15  18
ATOM     18  C   UNL     1       5.832   1.389  24.460  0.00  0.00    +0.139 C 
BRANCH  18  19
ATOM     19  C   UNL     1       6.515   2.643  24.010  0.00  0.00    -0.030 A 
ATOM     20  C   UNL     1       6.401   3.041  22.671  0.00  0.00    +0.005 A 
ATOM     21  C   UNL     1       7.123   4.132  22.198  0.00  0.00    +0.000 A 
ATOM     22  C   UNL     1       7.955   4.841  23.061  0.00  0.00    +0.000 A 
ATOM     23  C   UNL     1       8.062   4.463  24.400  0.00  0.00    +0.000 A 
ATOM     24  C   UNL     1       7.342   3.368  24.876  0.00  0.00    +0.005 A 
ENDBRANCH  18  19
ENDBRANCH  15  18
ENDBRANCH   1  14
BRANCH   1  25
ATOM     25  N   UNL     1       7.258  -1.667  24.947  0.00  0.00    -0.302 N 
ATOM     26  H   UNL     1       8.049  -1.792  25.567  0.00  0.00    +0.150 HD
ATOM     27  C   UNL     1       7.454  -1.657  23.586  0.00  0.00    +0.218 C 
ATOM     28  O   UNL     1       6.535  -1.566  22.777  0.00  0.00    -0.275 OA
BRANCH  27  29
ATOM     29  C   UNL     1       8.910  -1.703  23.166  0.00  0.00    +0.130 C 
BRANCH  29  30
ATOM     30  C   UNL     1       9.493  -0.324  23.089  0.00  0.00    -0.039 A 
ATOM     31  C   UNL     1       9.392   0.436  21.918  0.00  0.00    +0.004 A 
ATOM     32  C   UNL     1       9.908   1.731  21.880  0.00  0.00    +0.000 A 
ATOM     33  C   UNL     1      10.535   2.265  23.008  0.00  0.00    +0.000 A 
ATOM     34  C   UNL     1      10.645   1.511  24.175  0.00  0.00    +0.000 A 
ATOM     35  C   UNL     1      10.132   0.218  24.211  0.00  0.00    +0.004 A 
ENDBRANCH  29  30
ENDBRANCH  27  29
ENDBRANCH   1  25
TORSDOF 9
ENDMDL
MODEL 8
REMARK VINA RESULT:      -5.9      1.509      2.101
REMARK  Name = 
REMARK  11 active torsions:
REMARK  status: ('A' for Active; 'I' for Inactive)
REMARK    1  A    between atoms: C_2  and  N_3
REMARK    2  A    between atoms: C_2  and  C_13
REMARK    3  A    between atoms: C_2  and  C_23
REMARK    4  A    between atoms: C_4  and  C_6
REMARK    5  A    between atoms: C_6  and  C_7
REMARK    6  A    between atoms: N_15  and  C_16
REMARK    7  A    between atoms: C_16  and  C_17
REMARK    8  A    between atoms: CA_26  and  C_28
REMARK    9  A    between atoms: C_28  and  O_29
REMARK   10  A    between atoms: C_31  and  C_32
REMARK   11  A    between atoms: C_31  and  C_33
REMARK                            x       y       z     vdW  Elec       q    Type
REMARK                         _______ _______ _______ _____ _____    ______ ____
ROOT
ATOM      1  C   UNL     1       6.373  -2.333  24.698  0.00  0.00    +0.186 C 
ENDROOT
BRANCH   1   2
ATOM      2  C   UNL     1       6.509  -3.824  25.148  0.00  0.00    +0.143 C 
ATOM      3  S   UNL     1       4.911  -4.558  25.620  0.00  0.00    -0.131 S 
ATOM      4  C   UNL     1       4.644  -5.417  24.019  0.00  0.00    +0.038 C 
ATOM      5  C   UNL     1       3.346  -4.879  23.415  0.00  0.00    +0.024 C 
ATOM      6  C   UNL     1       4.529  -6.913  24.334  0.00  0.00    +0.024 C 
ATOM      7  CA  UNL     1       5.874  -5.010  23.176  0.00  0.00    +0.180 C 
ATOM      8  N   UNL     1       7.038  -4.765  24.111  0.00  0.00    -0.290 NA
ATOM      9  H   UNL     1       7.187  -5.637  24.632  0.00  0.00    +0.124 HD
BRANCH   7  10
ATOM     10  C   UNL     1       6.248  -6.058  22.119  0.00  0.00    +0.323 C 
ATOM     11  OXT UNL     1       7.245  -6.766  22.157  0.00  0.00    -0.249 OA
BRANCH  10  12
ATOM     12  O   UNL     1       5.337  -6.130  21.116  0.00  0.00    -0.479 OA
ATOM     13  H   UNL     1       4.546  -5.608  21.384  0.00  0.00    +0.295 HD
ENDBRANCH  10  12
ENDBRANCH   7  10
ENDBRANCH   1   2
BRANCH   1  14
ATOM     14  C   UNL     1       6.221  -1.338  25.885  0.00  0.00    +0.236 C 
ATOM     15  N   UNL     1       5.944  -0.016  25.611  0.00  0.00    -0.310 N 
ATOM     16  H   UNL     1       5.903   0.583  26.427  0.00  0.00    +0.149 HD
ATOM     17  O   UNL     1       6.358  -1.674  27.060  0.00  0.00    -0.274 OA
BRANCH  15  18
ATOM     18  C   UNL     1       6.007   0.608  24.311  0.00  0.00    +0.139 C 
BRANCH  18  19
ATOM     19  C   UNL     1       6.713   1.927  24.284  0.00  0.00    -0.030 A 
ATOM     20  C   UNL     1       7.410   2.354  25.421  0.00  0.00    +0.005 A 
ATOM     21  C   UNL     1       7.971   3.627  25.466  0.00  0.00    +0.000 A 
ATOM     22  C   UNL     1       7.850   4.478  24.371  0.00  0.00    +0.000 A 
ATOM     23  C   UNL     1       7.172   4.056  23.227  0.00  0.00    +0.000 A 
ATOM     24  C   UNL     1       6.607   2.783  23.180  0.00  0.00    +0.005 A 
ENDBRANCH  18  19
ENDBRANCH  15  18
ENDBRANCH   1  14
BRANCH   1  25
ATOM     25  N   UNL     1       7.557  -1.902  23.939  0.00  0.00    -0.302 N 
ATOM     26  H   UNL     1       7.409  -1.468  23.036  0.00  0.00    +0.150 HD
ATOM     27  C   UNL     1       8.837  -2.159  24.369  0.00  0.00    +0.218 C 
ATOM     28  O   UNL     1       9.091  -2.629  25.474  0.00  0.00    -0.275 OA
BRANCH  27  29
ATOM     29  C   UNL     1       9.911  -1.873  23.338  0.00  0.00    +0.130 C 
BRANCH  29  30
ATOM     30  C   UNL     1      10.101  -0.397  23.151  0.00  0.00    -0.039 A 
ATOM     31  C   UNL     1       9.749   0.227  21.948  0.00  0.00    +0.004 A 
ATOM     32  C   UNL     1       9.898   1.606  21.809  0.00  0.00    +0.000 A 
ATOM     33  C   UNL     1      10.408   2.363  22.866  0.00  0.00    +0.000 A 
ATOM     34  C   UNL     1      10.766   1.747  24.064  0.00  0.00    +0.000 A 
ATOM     35  C   UNL     1      10.619   0.371  24.201  0.00  0.00    +0.004 A 
ENDBRANCH  29  30
ENDBRANCH  27  29
ENDBRANCH   1  25
TORSDOF 9
ENDMDL
MODEL 9
REMARK VINA RESULT:      -5.7      1.826      3.675
REMARK  Name = 
REMARK  11 active torsions:
REMARK  status: ('A' for Active; 'I' for Inactive)
REMARK    1  A    between atoms: C_2  and  N_3
REMARK    2  A    between atoms: C_2  and  C_13
REMARK    3  A    between atoms: C_2  and  C_23
REMARK    4  A    between atoms: C_4  and  C_6
REMARK    5  A    between atoms: C_6  and  C_7
REMARK    6  A    between atoms: N_15  and  C_16
REMARK    7  A    between atoms: C_16  and  C_17
REMARK    8  A    between atoms: CA_26  and  C_28
REMARK    9  A    between atoms: C_28  and  O_29
REMARK   10  A    between atoms: C_31  and  C_32
REMARK   11  A    between atoms: C_31  and  C_33
REMARK                            x       y       z     vdW  Elec       q    Type
REMARK                         _______ _______ _______ _____ _____    ______ ____
ROOT
ATOM      1  C   UNL     1       7.772  -2.929  24.909  0.00  0.00    +0.186 C 
ENDROOT
BRANCH   1   2
ATOM      2  C   UNL     1       6.621  -3.184  23.883  0.00  0.00    +0.143 C 
ATOM      3  S   UNL     1       6.429  -4.948  23.474  0.00  0.00    -0.131 S 
ATOM      4  C   UNL     1       5.019  -5.230  24.616  0.00  0.00    +0.038 C 
ATOM      5  C   UNL     1       5.444  -6.300  25.623  0.00  0.00    +0.024 C 
ATOM      6  C   UNL     1       3.845  -5.714  23.757  0.00  0.00    +0.024 C 
ATOM      7  CA  UNL     1       4.819  -3.857  25.297  0.00  0.00    +0.180 C 
ATOM      8  N   UNL     1       5.254  -2.774  24.334  0.00  0.00    -0.290 NA
ATOM      9  H   UNL     1       4.681  -2.884  23.489  0.00  0.00    +0.124 HD
BRANCH   7  10
ATOM     10  C   UNL     1       3.373  -3.620  25.752  0.00  0.00    +0.323 C 
ATOM     11  OXT UNL     1       2.554  -2.935  25.154  0.00  0.00    -0.249 OA
BRANCH  10  12
ATOM     12  O   UNL     1       3.081  -4.266  26.909  0.00  0.00    -0.479 OA
ATOM     13  H   UNL     1       3.054  -5.232  26.720  0.00  0.00    +0.295 HD
ENDBRANCH  10  12
ENDBRANCH   7  10
ENDBRANCH   1   2
BRANCH   1  14
ATOM     14  C   UNL     1       9.171  -3.379  24.397  0.00  0.00    +0.236 C 
ATOM     15  N   UNL     1       9.777  -2.650  23.396  0.00  0.00    -0.310 N 
ATOM     16  H   UNL     1      10.665  -3.026  23.081  0.00  0.00    +0.149 HD
ATOM     17  O   UNL     1       9.754  -4.371  24.831  0.00  0.00    -0.274 OA
BRANCH  15  18
ATOM     18  C   UNL     1       9.147  -1.630  22.594  0.00  0.00    +0.139 C 
BRANCH  18  19
ATOM     19  C   UNL     1       9.726  -0.260  22.757  0.00  0.00    -0.030 A 
ATOM     20  C   UNL     1      10.450   0.044  23.917  0.00  0.00    +0.005 A 
ATOM     21  C   UNL     1      10.894   1.342  24.150  0.00  0.00    +0.000 A 
ATOM     22  C   UNL     1      10.627   2.344  23.220  0.00  0.00    +0.000 A 
ATOM     23  C   UNL     1       9.921   2.048  22.054  0.00  0.00    +0.000 A 
ATOM     24  C   UNL     1       9.473   0.750  21.819  0.00  0.00    +0.005 A 
ENDBRANCH  18  19
ENDBRANCH  15  18
ENDBRANCH   1  14
BRANCH   1  25
ATOM     25  N   UNL     1       7.884  -1.498  25.231  0.00  0.00    -0.302 N 
ATOM     26  H   UNL     1       8.517  -0.935  24.676  0.00  0.00    +0.150 HD
ATOM     27  C   UNL     1       7.240  -0.937  26.308  0.00  0.00    +0.218 C 
ATOM     28  O   UNL     1       6.418  -1.544  26.988  0.00  0.00    -0.275 OA
BRANCH  27  29
ATOM     29  C   UNL     1       7.679   0.479  26.629  0.00  0.00    +0.130 C 
BRANCH  29  30
ATOM     30  C   UNL     1       7.345   1.415  25.505  0.00  0.00    -0.039 A 
ATOM     31  C   UNL     1       6.585   0.984  24.412  0.00  0.00    +0.004 A 
ATOM     32  C   UNL     1       6.255   1.881  23.396  0.00  0.00    +0.000 A 
ATOM     33  C   UNL     1       6.691   3.205  23.466  0.00  0.00    +0.000 A 
ATOM     34  C   UNL     1       7.454   3.639  24.549  0.00  0.00    +0.000 A 
ATOM     35  C   UNL     1       7.785   2.743  25.561  0.00  0.00    +0.004 A 
ENDBRANCH  29  30
ENDBRANCH  27  29
ENDBRANCH   1  25
TORSDOF 9
ENDMDL
