MODEL 1
REMARK VINA RESULT:      -4.9      0.000      0.000
REMARK  Name = 
REMARK  41 active torsions:
REMARK  status: ('A' for Active; 'I' for Inactive)
REMARK    1  A    between atoms: C_1  and  C_2
REMARK    2  A    between atoms: C_2  and  C_3
REMARK    3  A    between atoms: C_3  and  C_4
REMARK    4  A    between atoms: C_4  and  C_5
REMARK    5  A    between atoms: C_5  and  C_6
REMARK    6  A    between atoms: C_6  and  C_7
REMARK    7  A    between atoms: C_7  and  C_8
REMARK    8  A    between atoms: C_8  and  C_9
REMARK    9  A    between atoms: C_9  and  C_10
REMARK   10  A    between atoms: C_10  and  C_11
REMARK   11  A    between atoms: C_11  and  C_12
REMARK   12  A    between atoms: C_12  and  C_13
REMARK   13  A    between atoms: C_13  and  C_14
REMARK   14  A    between atoms: C_14  and  S_16
REMARK   15  A    between atoms: S_16  and  C_17
REMARK   16  A    between atoms: C_17  and  C_18
REMARK   17  A    between atoms: C_18  and  N_19
REMARK   18  A    between atoms: C_20  and  C_22
REMARK   19  A    between atoms: C_22  and  C_23
REMARK   20  A    between atoms: C_23  and  N_24
REMARK   21  A    between atoms: C_25  and  C_27
REMARK   22  A    between atoms: C_27  and  O_29
REMARK   23  A    between atoms: C_27  and  C_30
REMARK   24  A    between atoms: C_30  and  C_31
REMARK   25  A    between atoms: C_30  and  C_32
REMARK   26  A    between atoms: C_30  and  C_33
REMARK   27  A    between atoms: C_33  and  O_34
REMARK   28  A    between atoms: O_34  and  P_35
REMARK   29  A    between atoms: P_35  and  O_36
REMARK   30  A    between atoms: P_35  and  O_38
REMARK   31  A    between atoms: O_38  and  P_39
REMARK   32  A    between atoms: P_39  and  O_40
REMARK   33  A    between atoms: P_39  and  O_42
REMARK   34  A    between atoms: O_42  and  C_43
REMARK   35  A    between atoms: C_43  and  C_44
REMARK   36  A    between atoms: C_47  and  N_59
REMARK   37  A    between atoms: C_49  and  O_51
REMARK   38  A    between atoms: C_52  and  O_54
REMARK   39  A    between atoms: O_54  and  P_55
REMARK   40  A    between atoms: P_55  and  O_56
REMARK   41  A    between atoms: P_55  and  O_57
REMARK                            x       y       z     vdW  Elec       q    Type
REMARK                         _______ _______ _______ _____ _____    ______ ____
ROOT
ATOM      1  P   UNL     1       2.680  -2.754  27.169  0.00  0.00    +0.483 P 
ATOM      2  O   UNL     1       2.420  -2.548  25.714  0.00  0.00    -0.227 OA
ENDROOT
BRANCH   1   3
ATOM      3  O   UNL     1       1.454  -2.232  28.046  0.00  0.00    -0.302 OA
ATOM      4  H   UNL     1       1.206  -1.325  27.787  0.00  0.00    +0.222 HD
ENDBRANCH   1   3
BRANCH   1   5
ATOM      5  O   UNL     1       3.964  -1.964  27.648  0.00  0.00    -0.186 OA
BRANCH   5   6
ATOM      6  P   UNL     1       3.710  -0.293  28.023  0.00  0.00    +0.483 P 
ATOM      7  O   UNL     1       2.887  -0.691  29.249  0.00  0.00    -0.227 OA
BRANCH   6   8
ATOM      8  O   UNL     1       2.613  -0.165  26.824  0.00  0.00    -0.302 OA
ATOM      9  H   UNL     1       2.277   0.753  26.825  0.00  0.00    +0.222 HD
ENDBRANCH   6   8
BRANCH   6  10
ATOM     10  O   UNL     1       3.457   1.376  28.398  0.00  0.00    -0.284 OA
BRANCH  10  11
ATOM     11  C   UNL     1       2.432   2.009  27.656  0.00  0.00    +0.206 C 
BRANCH  11  12
ATOM     12  C   UNL     1       2.990   3.245  26.942  0.00  0.00    +0.179 C 
ATOM     13  C   UNL     1       4.374   3.034  26.312  0.00  0.00    +0.194 C 
ATOM     14  C   UNL     1       4.123   2.980  24.808  0.00  0.00    +0.196 C 
ATOM     15  C   UNL     1       2.598   2.988  24.686  0.00  0.00    +0.253 C 
ATOM     16  O   UNL     1       2.106   3.641  25.870  0.00  0.00    -0.346 OA
BRANCH  15  17
ATOM     17  N   UNL     1       2.078   3.639  23.497  0.00  0.00    -0.286 N 
ATOM     18  C   UNL     1       2.454   4.889  23.078  0.00  0.00    +0.167 A 
ATOM     19  N   UNL     1       3.080   5.842  23.793  0.00  0.00    -0.216 NA
ATOM     20  C   UNL     1       3.373   6.906  23.016  0.00  0.00    +0.225 A 
ATOM     21  N   UNL     1       3.168   7.057  21.692  0.00  0.00    -0.219 NA
ATOM     22  C   UNL     1       2.574   6.047  21.014  0.00  0.00    +0.147 A 
ATOM     23  N   UNL     1       2.467   6.158  19.640  0.00  0.00    -0.341 N 
ATOM     24  H   UNL     1       1.814   5.524  19.196  0.00  0.00    +0.144 HD
ATOM     25  H   UNL     1       2.588   7.093  19.279  0.00  0.00    +0.144 HD
ATOM     26  C   UNL     1       2.134   4.924  21.731  0.00  0.00    +0.147 A 
ATOM     27  N   UNL     1       1.467   3.774  21.359  0.00  0.00    -0.231 NA
ATOM     28  C   UNL     1       1.443   3.030  22.447  0.00  0.00    +0.203 A 
ENDBRANCH  15  17
BRANCH  14  29
ATOM     29  O   UNL     1       4.694   1.790  24.259  0.00  0.00    -0.385 OA
ATOM     30  H   UNL     1       4.507   1.069  24.900  0.00  0.00    +0.210 HD
ENDBRANCH  14  29
BRANCH  13  31
ATOM     31  O   UNL     1       5.108   4.194  26.692  0.00  0.00    -0.278 OA
BRANCH  31  32
ATOM     32  P   UNL     1       6.065   4.219  27.960  0.00  0.00    +0.473 P 
ATOM     33  O   UNL     1       7.468   4.667  27.769  0.00  0.00    -0.228 OA
BRANCH  32  34
ATOM     34  O   UNL     1       5.234   5.107  28.992  0.00  0.00    -0.303 OA
ATOM     35  H   UNL     1       5.773   5.360  29.762  0.00  0.00    +0.222 HD
ENDBRANCH  32  34
BRANCH  32  36
ATOM     36  O   UNL     1       5.909   2.746  28.551  0.00  0.00    -0.303 OA
ATOM     37  H   UNL     1       6.585   2.144  28.187  0.00  0.00    +0.222 HD
ENDBRANCH  32  36
ENDBRANCH  31  32
ENDBRANCH  13  31
ENDBRANCH  11  12
ENDBRANCH  10  11
ENDBRANCH   6  10
ENDBRANCH   5   6
ENDBRANCH   1   5
BRANCH   1  38
ATOM     38  O   UNL     1       2.944  -4.240  27.732  0.00  0.00    -0.286 OA
BRANCH  38  39
ATOM     39  C   UNL     1       3.453  -4.337  29.055  0.00  0.00    +0.181 C 
BRANCH  39  40
ATOM     40  C   UNL     1       4.219  -5.651  29.337  0.00  0.00    +0.024 C 
ATOM     41  C   UNL     1       5.248  -5.356  30.447  0.00  0.00    +0.016 C 
ATOM     42  C   UNL     1       3.313  -6.757  29.893  0.00  0.00    +0.016 C 
BRANCH  40  43
ATOM     43  C   UNL     1       4.924  -6.131  28.028  0.00  0.00    +0.208 C 
BRANCH  43  46
ATOM     44  N   UNL     1       6.095  -4.155  27.085  0.00  0.00    -0.313 N 
ATOM     45  H   UNL     1       5.159  -3.763  27.169  0.00  0.00    +0.149 HD
ATOM     46  C   UNL     1       6.258  -5.388  27.695  0.00  0.00    +0.242 C 
ATOM     47  O   UNL     1       7.353  -5.888  27.923  0.00  0.00    -0.273 OA
BRANCH  44  48
ATOM     48  C   UNL     1       7.175  -3.240  26.696  0.00  0.00    +0.113 C 
BRANCH  48  49
ATOM     49  C   UNL     1       6.803  -1.941  25.969  0.00  0.00    +0.114 C 
BRANCH  49  52
ATOM     50  N   UNL     1       7.174   0.459  25.752  0.00  0.00    -0.314 N 
ATOM     51  H   UNL     1       6.245   0.441  25.355  0.00  0.00    +0.149 HD
ATOM     52  C   UNL     1       7.697  -0.725  26.170  0.00  0.00    +0.215 C 
ATOM     53  O   UNL     1       8.803  -0.826  26.696  0.00  0.00    -0.276 OA
BRANCH  50  54
ATOM     54  C   UNL     1       7.805   1.754  25.784  0.00  0.00    +0.115 C 
BRANCH  54  55
ATOM     55  C   UNL     1       8.847   2.182  24.755  0.00  0.00    +0.096 C 
BRANCH  55  56
ATOM     56  S   UNL     1       8.075   2.850  23.265  0.00  0.00    -0.087 S 
BRANCH  56  57
ATOM     57  C   UNL     1       7.811   1.367  22.398  0.00  0.00    +0.189 C 
ATOM     58  O   UNL     1       6.840   0.663  22.636  0.00  0.00    -0.285 OA
BRANCH  57  59
ATOM     59  C   UNL     1       8.901   1.040  21.401  0.00  0.00    +0.086 C 
BRANCH  59  60
ATOM     60  C   UNL     1       9.996   0.218  22.059  0.00  0.00    +0.008 C 
BRANCH  60  61
ATOM     61  C   UNL     1       9.776  -1.281  21.845  0.00  0.00    +0.000 C 
BRANCH  61  62
ATOM     62  C   UNL     1       9.761  -2.006  23.183  0.00  0.00    +0.000 C 
BRANCH  62  63
ATOM     63  C   UNL     1       8.659  -3.059  23.224  0.00  0.00    +0.000 C 
BRANCH  63  64
ATOM     64  C   UNL     1       7.546  -2.680  22.255  0.00  0.00    +0.000 C 
BRANCH  64  65
ATOM     65  C   UNL     1       6.365  -3.635  22.374  0.00  0.00    -0.000 C 
BRANCH  65  66
ATOM     66  C   UNL     1       6.618  -4.898  21.558  0.00  0.00    -0.000 C 
BRANCH  66  67
ATOM     67  C   UNL     1       6.299  -6.146  22.374  0.00  0.00    -0.000 C 
BRANCH  67  68
ATOM     68  C   UNL     1       5.919  -5.778  23.806  0.00  0.00    -0.000 C 
BRANCH  68  69
ATOM     69  C   UNL     1       4.716  -6.593  24.276  0.00  0.00    -0.000 C 
BRANCH  69  71
ATOM     70  C   UNL     1       2.635  -5.515  23.371  0.00  0.00    +0.004 C 
ATOM     71  C   UNL     1       3.526  -5.691  24.589  0.00  0.00    -0.003 C 
ENDBRANCH  69  71
ENDBRANCH  68  69
ENDBRANCH  67  68
ENDBRANCH  66  67
ENDBRANCH  65  66
ENDBRANCH  64  65
ENDBRANCH  63  64
ENDBRANCH  62  63
ENDBRANCH  61  62
ENDBRANCH  60  61
ENDBRANCH  59  60
ENDBRANCH  57  59
ENDBRANCH  56  57
ENDBRANCH  55  56
ENDBRANCH  54  55
ENDBRANCH  50  54
ENDBRANCH  49  52
ENDBRANCH  48  49
ENDBRANCH  44  48
ENDBRANCH  43  46
BRANCH  43  72
ATOM     72  O   UNL     1       5.184  -7.541  28.102  0.00  0.00    -0.382 OA
ATOM     73  H   UNL     1       6.040  -7.638  28.558  0.00  0.00    +0.210 HD
ENDBRANCH  43  72
ENDBRANCH  40  43
ENDBRANCH  39  40
ENDBRANCH  38  39
ENDBRANCH   1  38
TORSDOF 38
ENDMDL
MODEL 2
REMARK VINA RESULT:      -4.8      3.661      9.675
REMARK  Name = 
REMARK  41 active torsions:
REMARK  status: ('A' for Active; 'I' for Inactive)
REMARK    1  A    between atoms: C_1  and  C_2
REMARK    2  A    between atoms: C_2  and  C_3
REMARK    3  A    between atoms: C_3  and  C_4
REMARK    4  A    between atoms: C_4  and  C_5
REMARK    5  A    between atoms: C_5  and  C_6
REMARK    6  A    between atoms: C_6  and  C_7
REMARK    7  A    between atoms: C_7  and  C_8
REMARK    8  A    between atoms: C_8  and  C_9
REMARK    9  A    between atoms: C_9  and  C_10
REMARK   10  A    between atoms: C_10  and  C_11
REMARK   11  A    between atoms: C_11  and  C_12
REMARK   12  A    between atoms: C_12  and  C_13
REMARK   13  A    between atoms: C_13  and  C_14
REMARK   14  A    between atoms: C_14  and  S_16
REMARK   15  A    between atoms: S_16  and  C_17
REMARK   16  A    between atoms: C_17  and  C_18
REMARK   17  A    between atoms: C_18  and  N_19
REMARK   18  A    between atoms: C_20  and  C_22
REMARK   19  A    between atoms: C_22  and  C_23
REMARK   20  A    between atoms: C_23  and  N_24
REMARK   21  A    between atoms: C_25  and  C_27
REMARK   22  A    between atoms: C_27  and  O_29
REMARK   23  A    between atoms: C_27  and  C_30
REMARK   24  A    between atoms: C_30  and  C_31
REMARK   25  A    between atoms: C_30  and  C_32
REMARK   26  A    between atoms: C_30  and  C_33
REMARK   27  A    between atoms: C_33  and  O_34
REMARK   28  A    between atoms: O_34  and  P_35
REMARK   29  A    between atoms: P_35  and  O_36
REMARK   30  A    between atoms: P_35  and  O_38
REMARK   31  A    between atoms: O_38  and  P_39
REMARK   32  A    between atoms: P_39  and  O_40
REMARK   33  A    between atoms: P_39  and  O_42
REMARK   34  A    between atoms: O_42  and  C_43
REMARK   35  A    between atoms: C_43  and  C_44
REMARK   36  A    between atoms: C_47  and  N_59
REMARK   37  A    between atoms: C_49  and  O_51
REMARK   38  A    between atoms: C_52  and  O_54
REMARK   39  A    between atoms: O_54  and  P_55
REMARK   40  A    between atoms: P_55  and  O_56
REMARK   41  A    between atoms: P_55  and  O_57
REMARK                            x       y       z     vdW  Elec       q    Type
REMARK                         _______ _______ _______ _____ _____    ______ ____
ROOT
ATOM      1  P   UNL     1       8.517  -2.366  23.080  0.00  0.00    +0.483 P 
ATOM      2  O   UNL     1       9.797  -3.007  23.502  0.00  0.00    -0.227 OA
ENDROOT
BRANCH   1   3
ATOM      3  O   UNL     1       7.500  -2.265  24.305  0.00  0.00    -0.302 OA
ATOM      4  H   UNL     1       7.298  -3.151  24.659  0.00  0.00    +0.222 HD
ENDBRANCH   1   3
BRANCH   1   5
ATOM      5  O   UNL     1       7.797  -3.198  21.945  0.00  0.00    -0.186 OA
BRANCH   5   6
ATOM      6  P   UNL     1       6.181  -3.703  22.306  0.00  0.00    +0.483 P 
ATOM      7  O   UNL     1       6.003  -4.174  20.862  0.00  0.00    -0.227 OA
BRANCH   6   8
ATOM      8  O   UNL     1       5.669  -2.156  22.294  0.00  0.00    -0.302 OA
ATOM      9  H   UNL     1       5.171  -2.014  21.464  0.00  0.00    +0.222 HD
ENDBRANCH   6   8
BRANCH   6  10
ATOM     10  O   UNL     1       4.567  -4.208  22.667  0.00  0.00    -0.284 OA
BRANCH  10  11
ATOM     11  C   UNL     1       4.459  -5.471  23.294  0.00  0.00    +0.206 C 
BRANCH  11  12
ATOM     12  C   UNL     1       3.367  -5.431  24.368  0.00  0.00    +0.179 C 
ATOM     13  C   UNL     1       3.289  -6.698  25.232  0.00  0.00    +0.194 C 
ATOM     14  C   UNL     1       3.847  -6.288  26.591  0.00  0.00    +0.196 C 
ATOM     15  C   UNL     1       4.368  -4.868  26.366  0.00  0.00    +0.253 C 
ATOM     16  O   UNL     1       3.601  -4.329  25.273  0.00  0.00    -0.346 OA
BRANCH  15  17
ATOM     17  N   UNL     1       4.288  -3.990  27.520  0.00  0.00    -0.286 N 
ATOM     18  C   UNL     1       4.869  -2.750  27.584  0.00  0.00    +0.167 A 
ATOM     19  N   UNL     1       5.837  -2.254  26.792  0.00  0.00    -0.216 NA
ATOM     20  C   UNL     1       6.087  -0.962  27.095  0.00  0.00    +0.225 A 
ATOM     21  N   UNL     1       5.462  -0.180  27.999  0.00  0.00    -0.219 NA
ATOM     22  C   UNL     1       4.465  -0.719  28.737  0.00  0.00    +0.147 A 
ATOM     23  N   UNL     1       3.753   0.113  29.581  0.00  0.00    -0.341 N 
ATOM     24  H   UNL     1       3.194  -0.348  30.287  0.00  0.00    +0.144 HD
ATOM     25  H   UNL     1       4.203   0.993  29.788  0.00  0.00    +0.144 HD
ATOM     26  C   UNL     1       4.176  -2.084  28.581  0.00  0.00    +0.147 A 
ATOM     27  N   UNL     1       3.277  -2.930  29.198  0.00  0.00    -0.231 NA
ATOM     28  C   UNL     1       3.378  -4.068  28.541  0.00  0.00    +0.203 A 
ENDBRANCH  15  17
BRANCH  14  29
ATOM     29  O   UNL     1       4.893  -7.182  26.981  0.00  0.00    -0.385 OA
ATOM     30  H   UNL     1       4.511  -7.778  27.662  0.00  0.00    +0.210 HD
ENDBRANCH  14  29
BRANCH  13  31
ATOM     31  O   UNL     1       1.896  -6.992  25.291  0.00  0.00    -0.278 OA
BRANCH  31  32
ATOM     32  P   UNL     1       1.344  -8.477  25.404  0.00  0.00    +0.473 P 
ATOM     33  O   UNL     1       0.513  -8.827  26.584  0.00  0.00    -0.228 OA
BRANCH  32  34
ATOM     34  O   UNL     1       0.600  -8.667  24.005  0.00  0.00    -0.303 OA
ATOM     35  H   UNL     1      -0.065  -9.376  24.047  0.00  0.00    +0.222 HD
ENDBRANCH  32  34
BRANCH  32  36
ATOM     36  O   UNL     1       2.661  -9.360  25.229  0.00  0.00    -0.303 OA
ATOM     37  H   UNL     1       2.681 -10.097  25.868  0.00  0.00    +0.222 HD
ENDBRANCH  32  36
ENDBRANCH  31  32
ENDBRANCH  13  31
ENDBRANCH  11  12
ENDBRANCH  10  11
ENDBRANCH   6  10
ENDBRANCH   5   6
ENDBRANCH   1   5
BRANCH   1  38
ATOM     38  O   UNL     1       8.531  -0.873  22.475  0.00  0.00    -0.286 OA
BRANCH  38  39
ATOM     39  C   UNL     1       8.024   0.157  23.313  0.00  0.00    +0.181 C 
BRANCH  39  40
ATOM     40  C   UNL     1       9.097   1.168  23.782  0.00  0.00    +0.024 C 
ATOM     41  C   UNL     1       8.663   1.693  25.165  0.00  0.00    +0.016 C 
ATOM     42  C   UNL     1      10.470   0.517  23.996  0.00  0.00    +0.016 C 
BRANCH  40  43
ATOM     43  C   UNL     1       9.202   2.331  22.744  0.00  0.00    +0.208 C 
BRANCH  43  46
ATOM     44  N   UNL     1       9.364   4.747  23.294  0.00  0.00    -0.313 N 
ATOM     45  H   UNL     1       8.350   4.647  23.302  0.00  0.00    +0.149 HD
ATOM     46  C   UNL     1      10.058   3.551  23.216  0.00  0.00    +0.242 C 
ATOM     47  O   UNL     1      11.255   3.450  23.454  0.00  0.00    -0.273 OA
BRANCH  44  48
ATOM     48  C   UNL     1       9.916   6.033  23.736  0.00  0.00    +0.113 C 
BRANCH  48  49
ATOM     49  C   UNL     1       9.937   6.341  25.239  0.00  0.00    +0.114 C 
BRANCH  49  52
ATOM     50  N   UNL     1       8.217   7.058  26.811  0.00  0.00    -0.314 N 
ATOM     51  H   UNL     1       8.719   7.933  26.770  0.00  0.00    +0.149 HD
ATOM     52  C   UNL     1       8.687   6.032  26.052  0.00  0.00    +0.215 C 
ATOM     53  O   UNL     1       8.144   4.931  25.995  0.00  0.00    -0.276 OA
BRANCH  50  54
ATOM     54  C   UNL     1       7.083   7.039  27.701  0.00  0.00    +0.115 C 
BRANCH  54  55
ATOM     55  C   UNL     1       7.198   6.621  29.163  0.00  0.00    +0.096 C 
BRANCH  55  56
ATOM     56  S   UNL     1       5.827   5.556  29.661  0.00  0.00    -0.087 S 
BRANCH  56  57
ATOM     57  C   UNL     1       6.315   4.085  28.876  0.00  0.00    +0.189 C 
ATOM     58  O   UNL     1       7.443   3.636  29.026  0.00  0.00    -0.285 OA
BRANCH  57  59
ATOM     59  C   UNL     1       5.249   3.483  27.987  0.00  0.00    +0.086 C 
BRANCH  59  60
ATOM     60  C   UNL     1       4.328   4.567  27.453  0.00  0.00    +0.008 C 
BRANCH  60  61
ATOM     61  C   UNL     1       3.134   3.970  26.705  0.00  0.00    +0.000 C 
BRANCH  61  62
ATOM     62  C   UNL     1       2.141   5.064  26.342  0.00  0.00    +0.000 C 
BRANCH  62  63
ATOM     63  C   UNL     1       2.100   5.288  24.835  0.00  0.00    +0.000 C 
BRANCH  63  64
ATOM     64  C   UNL     1       2.155   3.949  24.110  0.00  0.00    +0.000 C 
BRANCH  64  65
ATOM     65  C   UNL     1       2.491   4.134  22.636  0.00  0.00    -0.000 C 
BRANCH  65  66
ATOM     66  C   UNL     1       3.804   3.437  22.297  0.00  0.00    -0.000 C 
BRANCH  66  67
ATOM     67  C   UNL     1       4.439   2.838  23.547  0.00  0.00    -0.000 C 
BRANCH  67  68
ATOM     68  C   UNL     1       5.652   3.655  23.987  0.00  0.00    -0.000 C 
BRANCH  68  69
ATOM     69  C   UNL     1       5.950   4.768  22.984  0.00  0.00    -0.000 C 
BRANCH  69  71
ATOM     70  C   UNL     1       4.803   7.001  22.883  0.00  0.00    +0.004 C 
ATOM     71  C   UNL     1       5.811   6.144  23.629  0.00  0.00    -0.003 C 
ENDBRANCH  69  71
ENDBRANCH  68  69
ENDBRANCH  67  68
ENDBRANCH  66  67
ENDBRANCH  65  66
ENDBRANCH  64  65
ENDBRANCH  63  64
ENDBRANCH  62  63
ENDBRANCH  61  62
ENDBRANCH  60  61
ENDBRANCH  59  60
ENDBRANCH  57  59
ENDBRANCH  56  57
ENDBRANCH  55  56
ENDBRANCH  54  55
ENDBRANCH  50  54
ENDBRANCH  49  52
ENDBRANCH  48  49
ENDBRANCH  44  48
ENDBRANCH  43  46
BRANCH  43  72
ATOM     72  O   UNL     1       9.739   1.838  21.508  0.00  0.00    -0.382 OA
ATOM     73  H   UNL     1       9.968   2.623  20.977  0.00  0.00    +0.210 HD
ENDBRANCH  43  72
ENDBRANCH  40  43
ENDBRANCH  39  40
ENDBRANCH  38  39
ENDBRANCH   1  38
TORSDOF 38
ENDMDL
MODEL 3
REMARK VINA RESULT:      -4.5      3.451      9.142
REMARK  Name = 
REMARK  41 active torsions:
REMARK  status: ('A' for Active; 'I' for Inactive)
REMARK    1  A    between atoms: C_1  and  C_2
REMARK    2  A    between atoms: C_2  and  C_3
REMARK    3  A    between atoms: C_3  and  C_4
REMARK    4  A    between atoms: C_4  and  C_5
REMARK    5  A    between atoms: C_5  and  C_6
REMARK    6  A    between atoms: C_6  and  C_7
REMARK    7  A    between atoms: C_7  and  C_8
REMARK    8  A    between atoms: C_8  and  C_9
REMARK    9  A    between atoms: C_9  and  C_10
REMARK   10  A    between atoms: C_10  and  C_11
REMARK   11  A    between atoms: C_11  and  C_12
REMARK   12  A    between atoms: C_12  and  C_13
REMARK   13  A    between atoms: C_13  and  C_14
REMARK   14  A    between atoms: C_14  and  S_16
REMARK   15  A    between atoms: S_16  and  C_17
REMARK   16  A    between atoms: C_17  and  C_18
REMARK   17  A    between atoms: C_18  and  N_19
REMARK   18  A    between atoms: C_20  and  C_22
REMARK   19  A    between atoms: C_22  and  C_23
REMARK   20  A    between atoms: C_23  and  N_24
REMARK   21  A    between atoms: C_25  and  C_27
REMARK   22  A    between atoms: C_27  and  O_29
REMARK   23  A    between atoms: C_27  and  C_30
REMARK   24  A    between atoms: C_30  and  C_31
REMARK   25  A    between atoms: C_30  and  C_32
REMARK   26  A    between atoms: C_30  and  C_33
REMARK   27  A    between atoms: C_33  and  O_34
REMARK   28  A    between atoms: O_34  and  P_35
REMARK   29  A    between atoms: P_35  and  O_36
REMARK   30  A    between atoms: P_35  and  O_38
REMARK   31  A    between atoms: O_38  and  P_39
REMARK   32  A    between atoms: P_39  and  O_40
REMARK   33  A    between atoms: P_39  and  O_42
REMARK   34  A    between atoms: O_42  and  C_43
REMARK   35  A    between atoms: C_43  and  C_44
REMARK   36  A    between atoms: C_47  and  N_59
REMARK   37  A    between atoms: C_49  and  O_51
REMARK   38  A    between atoms: C_52  and  O_54
REMARK   39  A    between atoms: O_54  and  P_55
REMARK   40  A    between atoms: P_55  and  O_56
REMARK   41  A    between atoms: P_55  and  O_57
REMARK                            x       y       z     vdW  Elec       q    Type
REMARK                         _______ _______ _______ _____ _____    ______ ____
ROOT
ATOM      1  P   UNL     1       8.879  -1.892  22.698  0.00  0.00    +0.483 P 
ATOM      2  O   UNL     1      10.257  -2.449  22.565  0.00  0.00    -0.227 OA
ENDROOT
BRANCH   1   3
ATOM      3  O   UNL     1       8.361  -2.006  24.202  0.00  0.00    -0.302 OA
ATOM      4  H   UNL     1       8.280  -1.122  24.607  0.00  0.00    +0.222 HD
ENDBRANCH   1   3
BRANCH   1   5
ATOM      5  O   UNL     1       7.846  -2.672  21.791  0.00  0.00    -0.186 OA
BRANCH   5   6
ATOM      6  P   UNL     1       6.348  -3.083  22.555  0.00  0.00    +0.483 P 
ATOM      7  O   UNL     1       5.799  -3.581  21.218  0.00  0.00    -0.227 OA
BRANCH   6   8
ATOM      8  O   UNL     1       5.917  -1.513  22.611  0.00  0.00    -0.302 OA
ATOM      9  H   UNL     1       5.345  -1.333  21.839  0.00  0.00    +0.222 HD
ENDBRANCH   6   8
BRANCH   6  10
ATOM     10  O   UNL     1       4.852  -3.494  23.319  0.00  0.00    -0.284 OA
BRANCH  10  11
ATOM     11  C   UNL     1       4.864  -4.707  24.048  0.00  0.00    +0.206 C 
BRANCH  11  12
ATOM     12  C   UNL     1       4.574  -4.431  25.527  0.00  0.00    +0.179 C 
ATOM     13  C   UNL     1       5.742  -4.761  26.468  0.00  0.00    +0.194 C 
ATOM     14  C   UNL     1       6.291  -3.407  26.909  0.00  0.00    +0.196 C 
ATOM     15  C   UNL     1       5.517  -2.397  26.060  0.00  0.00    +0.253 C 
ATOM     16  O   UNL     1       4.270  -3.032  25.722  0.00  0.00    -0.346 OA
BRANCH  15  17
ATOM     17  N   UNL     1       5.275  -1.114  26.695  0.00  0.00    -0.286 N 
ATOM     18  C   UNL     1       4.524  -0.948  27.830  0.00  0.00    +0.167 A 
ATOM     19  N   UNL     1       3.647  -1.813  28.369  0.00  0.00    -0.216 NA
ATOM     20  C   UNL     1       3.172  -1.342  29.542  0.00  0.00    +0.225 A 
ATOM     21  N   UNL     1       3.516  -0.211  30.190  0.00  0.00    -0.219 NA
ATOM     22  C   UNL     1       4.438   0.601  29.622  0.00  0.00    +0.147 A 
ATOM     23  N   UNL     1       4.871   1.700  30.340  0.00  0.00    -0.341 N 
ATOM     24  H   UNL     1       5.359   2.410  29.808  0.00  0.00    +0.144 HD
ATOM     25  H   UNL     1       4.274   1.967  31.109  0.00  0.00    +0.144 HD
ATOM     26  C   UNL     1       4.936   0.267  28.353  0.00  0.00    +0.147 A 
ATOM     27  N   UNL     1       5.825   0.889  27.499  0.00  0.00    -0.231 NA
ATOM     28  C   UNL     1       5.997   0.035  26.510  0.00  0.00    +0.203 A 
ENDBRANCH  15  17
BRANCH  14  29
ATOM     29  O   UNL     1       7.697  -3.345  26.660  0.00  0.00    -0.385 OA
ATOM     30  H   UNL     1       7.878  -3.972  25.926  0.00  0.00    +0.210 HD
ENDBRANCH  14  29
BRANCH  13  31
ATOM     31  O   UNL     1       5.131  -5.468  27.543  0.00  0.00    -0.278 OA
BRANCH  31  32
ATOM     32  P   UNL     1       5.975  -6.305  28.598  0.00  0.00    +0.473 P 
ATOM     33  O   UNL     1       5.572  -7.710  28.860  0.00  0.00    -0.228 OA
BRANCH  32  34
ATOM     34  O   UNL     1       7.462  -6.148  28.042  0.00  0.00    -0.303 OA
ATOM     35  H   UNL     1       7.490  -5.585  27.249  0.00  0.00    +0.222 HD
ENDBRANCH  32  34
BRANCH  32  36
ATOM     36  O   UNL     1       5.974  -5.360  29.883  0.00  0.00    -0.303 OA
ATOM     37  H   UNL     1       5.637  -4.470  29.669  0.00  0.00    +0.222 HD
ENDBRANCH  32  36
ENDBRANCH  31  32
ENDBRANCH  13  31
ENDBRANCH  11  12
ENDBRANCH  10  11
ENDBRANCH   6  10
ENDBRANCH   5   6
ENDBRANCH   1   5
BRANCH   1  38
ATOM     38  O   UNL     1       8.598  -0.352  22.317  0.00  0.00    -0.286 OA
BRANCH  38  39
ATOM     39  C   UNL     1       8.157   0.494  23.370  0.00  0.00    +0.181 C 
BRANCH  39  40
ATOM     40  C   UNL     1       9.242   1.468  23.887  0.00  0.00    +0.024 C 
ATOM     41  C   UNL     1       8.674   2.166  25.140  0.00  0.00    +0.016 C 
ATOM     42  C   UNL     1      10.512   0.746  24.354  0.00  0.00    +0.016 C 
BRANCH  40  43
ATOM     43  C   UNL     1       9.583   2.505  22.770  0.00  0.00    +0.208 C 
BRANCH  43  46
ATOM     44  N   UNL     1       9.580   4.895  23.441  0.00  0.00    -0.313 N 
ATOM     45  H   UNL     1       8.579   4.712  23.491  0.00  0.00    +0.149 HD
ATOM     46  C   UNL     1      10.362   3.766  23.265  0.00  0.00    +0.242 C 
ATOM     47  O   UNL     1      11.575   3.752  23.440  0.00  0.00    -0.273 OA
BRANCH  44  48
ATOM     48  C   UNL     1      10.049   6.199  23.925  0.00  0.00    +0.113 C 
BRANCH  48  49
ATOM     49  C   UNL     1       9.810   6.560  25.396  0.00  0.00    +0.114 C 
BRANCH  49  52
ATOM     50  N   UNL     1       7.476   7.102  25.849  0.00  0.00    -0.314 N 
ATOM     51  H   UNL     1       7.698   7.936  25.325  0.00  0.00    +0.149 HD
ATOM     52  C   UNL     1       8.471   6.189  26.018  0.00  0.00    +0.215 C 
ATOM     53  O   UNL     1       8.315   5.123  26.610  0.00  0.00    -0.276 OA
BRANCH  50  54
ATOM     54  C   UNL     1       6.130   7.032  26.357  0.00  0.00    +0.115 C 
BRANCH  54  55
ATOM     55  C   UNL     1       5.799   6.429  27.718  0.00  0.00    +0.096 C 
BRANCH  55  56
ATOM     56  S   UNL     1       4.020   6.195  27.929  0.00  0.00    -0.087 S 
BRANCH  56  57
ATOM     57  C   UNL     1       3.998   4.483  28.227  0.00  0.00    +0.189 C 
ATOM     58  O   UNL     1       5.029   3.873  28.473  0.00  0.00    -0.285 OA
BRANCH  57  59
ATOM     59  C   UNL     1       2.625   3.858  28.100  0.00  0.00    +0.086 C 
BRANCH  59  60
ATOM     60  C   UNL     1       2.077   4.061  26.697  0.00  0.00    +0.008 C 
BRANCH  60  61
ATOM     61  C   UNL     1       1.796   2.725  26.006  0.00  0.00    +0.000 C 
BRANCH  61  62
ATOM     62  C   UNL     1       0.647   2.875  25.020  0.00  0.00    +0.000 C 
BRANCH  62  63
ATOM     63  C   UNL     1       0.632   4.269  24.404  0.00  0.00    +0.000 C 
BRANCH  63  64
ATOM     64  C   UNL     1       0.695   4.163  22.885  0.00  0.00    +0.000 C 
BRANCH  64  65
ATOM     65  C   UNL     1       2.029   4.670  22.353  0.00  0.00    -0.000 C 
BRANCH  65  66
ATOM     66  C   UNL     1       2.924   3.501  21.956  0.00  0.00    -0.000 C 
BRANCH  66  67
ATOM     67  C   UNL     1       3.933   3.191  23.055  0.00  0.00    -0.000 C 
BRANCH  67  68
ATOM     68  C   UNL     1       5.335   3.015  22.475  0.00  0.00    -0.000 C 
BRANCH  68  69
ATOM     69  C   UNL     1       6.294   4.058  23.046  0.00  0.00    -0.000 C 
BRANCH  69  71
ATOM     70  C   UNL     1       6.079   6.445  22.294  0.00  0.00    +0.004 C 
ATOM     71  C   UNL     1       5.588   5.392  23.272  0.00  0.00    -0.003 C 
ENDBRANCH  69  71
ENDBRANCH  68  69
ENDBRANCH  67  68
ENDBRANCH  66  67
ENDBRANCH  65  66
ENDBRANCH  64  65
ENDBRANCH  63  64
ENDBRANCH  62  63
ENDBRANCH  61  62
ENDBRANCH  60  61
ENDBRANCH  59  60
ENDBRANCH  57  59
ENDBRANCH  56  57
ENDBRANCH  55  56
ENDBRANCH  54  55
ENDBRANCH  50  54
ENDBRANCH  49  52
ENDBRANCH  48  49
ENDBRANCH  44  48
ENDBRANCH  43  46
BRANCH  43  72
ATOM     72  O   UNL     1      10.341   1.870  21.730  0.00  0.00    -0.382 OA
ATOM     73  H   UNL     1      10.183   2.390  20.920  0.00  0.00    +0.210 HD
ENDBRANCH  43  72
ENDBRANCH  40  43
ENDBRANCH  39  40
ENDBRANCH  38  39
ENDBRANCH   1  38
TORSDOF 38
ENDMDL
MODEL 4
REMARK VINA RESULT:      -4.3      3.080      5.905
REMARK  Name = 
REMARK  41 active torsions:
REMARK  status: ('A' for Active; 'I' for Inactive)
REMARK    1  A    between atoms: C_1  and  C_2
REMARK    2  A    between atoms: C_2  and  C_3
REMARK    3  A    between atoms: C_3  and  C_4
REMARK    4  A    between atoms: C_4  and  C_5
REMARK    5  A    between atoms: C_5  and  C_6
REMARK    6  A    between atoms: C_6  and  C_7
REMARK    7  A    between atoms: C_7  and  C_8
REMARK    8  A    between atoms: C_8  and  C_9
REMARK    9  A    between atoms: C_9  and  C_10
REMARK   10  A    between atoms: C_10  and  C_11
REMARK   11  A    between atoms: C_11  and  C_12
REMARK   12  A    between atoms: C_12  and  C_13
REMARK   13  A    between atoms: C_13  and  C_14
REMARK   14  A    between atoms: C_14  and  S_16
REMARK   15  A    between atoms: S_16  and  C_17
REMARK   16  A    between atoms: C_17  and  C_18
REMARK   17  A    between atoms: C_18  and  N_19
REMARK   18  A    between atoms: C_20  and  C_22
REMARK   19  A    between atoms: C_22  and  C_23
REMARK   20  A    between atoms: C_23  and  N_24
REMARK   21  A    between atoms: C_25  and  C_27
REMARK   22  A    between atoms: C_27  and  O_29
REMARK   23  A    between atoms: C_27  and  C_30
REMARK   24  A    between atoms: C_30  and  C_31
REMARK   25  A    between atoms: C_30  and  C_32
REMARK   26  A    between atoms: C_30  and  C_33
REMARK   27  A    between atoms: C_33  and  O_34
REMARK   28  A    between atoms: O_34  and  P_35
REMARK   29  A    between atoms: P_35  and  O_36
REMARK   30  A    between atoms: P_35  and  O_38
REMARK   31  A    between atoms: O_38  and  P_39
REMARK   32  A    between atoms: P_39  and  O_40
REMARK   33  A    between atoms: P_39  and  O_42
REMARK   34  A    between atoms: O_42  and  C_43
REMARK   35  A    between atoms: C_43  and  C_44
REMARK   36  A    between atoms: C_47  and  N_59
REMARK   37  A    between atoms: C_49  and  O_51
REMARK   38  A    between atoms: C_52  and  O_54
REMARK   39  A    between atoms: O_54  and  P_55
REMARK   40  A    between atoms: P_55  and  O_56
REMARK   41  A    between atoms: P_55  and  O_57
REMARK                            x       y       z     vdW  Elec       q    Type
REMARK                         _______ _______ _______ _____ _____    ______ ____
ROOT
ATOM      1  P   UNL     1       9.044  -1.709  22.552  0.00  0.00    +0.483 P 
ATOM      2  O   UNL     1      10.255  -2.064  23.349  0.00  0.00    -0.227 OA
ENDROOT
BRANCH   1   3
ATOM      3  O   UNL     1       9.452  -1.150  21.115  0.00  0.00    -0.302 OA
ATOM      4  H   UNL     1       8.670  -0.810  20.642  0.00  0.00    +0.222 HD
ENDBRANCH   1   3
BRANCH   1   5
ATOM      5  O   UNL     1       8.190  -0.584  23.263  0.00  0.00    -0.186 OA
BRANCH   5   6
ATOM      6  P   UNL     1       8.419   1.019  22.652  0.00  0.00    +0.483 P 
ATOM      7  O   UNL     1       9.322   1.347  23.842  0.00  0.00    -0.227 OA
BRANCH   6   8
ATOM      8  O   UNL     1       6.927   1.447  23.146  0.00  0.00    -0.302 OA
ATOM      9  H   UNL     1       6.361   1.525  22.352  0.00  0.00    +0.222 HD
ENDBRANCH   6   8
BRANCH   6  10
ATOM     10  O   UNL     1       8.648   2.621  22.041  0.00  0.00    -0.284 OA
BRANCH  10  11
ATOM     11  C   UNL     1       7.466   3.388  21.911  0.00  0.00    +0.206 C 
BRANCH  11  12
ATOM     12  C   UNL     1       7.437   4.489  22.976  0.00  0.00    +0.179 C 
ATOM     13  C   UNL     1       7.647   5.905  22.421  0.00  0.00    +0.194 C 
ATOM     14  C   UNL     1       6.278   6.573  22.507  0.00  0.00    +0.196 C 
ATOM     15  C   UNL     1       5.340   5.444  22.940  0.00  0.00    +0.253 C 
ATOM     16  O   UNL     1       6.158   4.495  23.649  0.00  0.00    -0.346 OA
BRANCH  15  17
ATOM     17  N   UNL     1       4.216   5.856  23.762  0.00  0.00    -0.286 N 
ATOM     18  C   UNL     1       3.142   5.055  24.051  0.00  0.00    +0.167 A 
ATOM     19  N   UNL     1       2.762   3.929  23.419  0.00  0.00    -0.216 NA
ATOM     20  C   UNL     1       1.712   3.361  24.048  0.00  0.00    +0.225 A 
ATOM     21  N   UNL     1       1.105   3.755  25.187  0.00  0.00    -0.219 NA
ATOM     22  C   UNL     1       1.558   4.870  25.804  0.00  0.00    +0.147 A 
ATOM     23  N   UNL     1       1.009   5.208  27.027  0.00  0.00    -0.341 N 
ATOM     24  H   UNL     1       1.180   6.155  27.342  0.00  0.00    +0.144 HD
ATOM     25  H   UNL     1       0.130   4.758  27.237  0.00  0.00    +0.144 HD
ATOM     26  C   UNL     1       2.587   5.606  25.194  0.00  0.00    +0.147 A 
ATOM     27  N   UNL     1       3.225   6.783  25.529  0.00  0.00    -0.231 NA
ATOM     28  C   UNL     1       4.192   6.906  24.642  0.00  0.00    +0.203 A 
ENDBRANCH  15  17
BRANCH  14  29
ATOM     29  O   UNL     1       5.913   7.107  21.232  0.00  0.00    -0.385 OA
ATOM     30  H   UNL     1       6.411   7.948  21.129  0.00  0.00    +0.210 HD
ENDBRANCH  14  29
BRANCH  13  31
ATOM     31  O   UNL     1       8.586   6.492  23.317  0.00  0.00    -0.278 OA
BRANCH  31  32
ATOM     32  P   UNL     1       9.603   5.622  24.174  0.00  0.00    +0.473 P 
ATOM     33  O   UNL     1       9.046   4.679  25.176  0.00  0.00    -0.228 OA
BRANCH  32  34
ATOM     34  O   UNL     1      10.484   4.923  23.043  0.00  0.00    -0.303 OA
ATOM     35  H   UNL     1      10.318   3.965  23.000  0.00  0.00    +0.222 HD
ENDBRANCH  32  34
BRANCH  32  36
ATOM     36  O   UNL     1      10.595   6.720  24.770  0.00  0.00    -0.303 OA
ATOM     37  H   UNL     1      11.515   6.394  24.789  0.00  0.00    +0.222 HD
ENDBRANCH  32  36
ENDBRANCH  31  32
ENDBRANCH  13  31
ENDBRANCH  11  12
ENDBRANCH  10  11
ENDBRANCH   6  10
ENDBRANCH   5   6
ENDBRANCH   1   5
BRANCH   1  38
ATOM     38  O   UNL     1       7.944  -2.838  22.221  0.00  0.00    -0.286 OA
BRANCH  38  39
ATOM     39  C   UNL     1       6.586  -2.489  22.450  0.00  0.00    +0.181 C 
BRANCH  39  40
ATOM     40  C   UNL     1       5.836  -3.469  23.382  0.00  0.00    +0.024 C 
ATOM     41  C   UNL     1       5.074  -2.623  24.423  0.00  0.00    +0.016 C 
ATOM     42  C   UNL     1       4.765  -4.284  22.645  0.00  0.00    +0.016 C 
BRANCH  40  43
ATOM     43  C   UNL     1       6.865  -4.420  24.072  0.00  0.00    +0.208 C 
BRANCH  43  46
ATOM     44  N   UNL     1       8.188  -2.890  25.512  0.00  0.00    -0.313 N 
ATOM     45  H   UNL     1       8.218  -2.360  24.643  0.00  0.00    +0.149 HD
ATOM     46  C   UNL     1       7.318  -3.967  25.498  0.00  0.00    +0.242 C 
ATOM     47  O   UNL     1       6.955  -4.554  26.510  0.00  0.00    -0.273 OA
BRANCH  44  48
ATOM     48  C   UNL     1       8.741  -2.247  26.711  0.00  0.00    +0.113 C 
BRANCH  48  49
ATOM     49  C   UNL     1       8.841  -0.717  26.737  0.00  0.00    +0.114 C 
BRANCH  49  52
ATOM     50  N   UNL     1       7.710   1.424  26.446  0.00  0.00    -0.314 N 
ATOM     51  H   UNL     1       8.655   1.770  26.358  0.00  0.00    +0.149 HD
ATOM     52  C   UNL     1       7.552   0.089  26.652  0.00  0.00    +0.215 C 
ATOM     53  O   UNL     1       6.453  -0.454  26.744  0.00  0.00    -0.276 OA
BRANCH  50  54
ATOM     54  C   UNL     1       6.677   2.424  26.362  0.00  0.00    +0.115 C 
BRANCH  54  55
ATOM     55  C   UNL     1       6.444   3.454  27.462  0.00  0.00    +0.096 C 
BRANCH  55  56
ATOM     56  S   UNL     1       5.837   2.684  28.979  0.00  0.00    -0.087 S 
BRANCH  56  57
ATOM     57  C   UNL     1       4.205   2.347  28.488  0.00  0.00    +0.189 C 
ATOM     58  O   UNL     1       3.458   3.245  28.126  0.00  0.00    -0.285 OA
BRANCH  57  59
ATOM     59  C   UNL     1       3.820   0.888  28.606  0.00  0.00    +0.086 C 
BRANCH  59  60
ATOM     60  C   UNL     1       3.026   0.447  27.387  0.00  0.00    +0.008 C 
BRANCH  60  61
ATOM     61  C   UNL     1       2.995  -1.077  27.260  0.00  0.00    +0.000 C 
BRANCH  61  62
ATOM     62  C   UNL     1       3.736  -1.716  28.425  0.00  0.00    +0.000 C 
BRANCH  62  63
ATOM     63  C   UNL     1       3.860  -3.223  28.235  0.00  0.00    +0.000 C 
BRANCH  63  64
ATOM     64  C   UNL     1       2.545  -3.790  27.716  0.00  0.00    +0.000 C 
BRANCH  64  65
ATOM     65  C   UNL     1       2.722  -5.216  27.209  0.00  0.00    -0.000 C 
BRANCH  65  66
ATOM     66  C   UNL     1       2.887  -5.226  25.693  0.00  0.00    -0.000 C 
BRANCH  66  67
ATOM     67  C   UNL     1       1.862  -4.313  25.029  0.00  0.00    -0.000 C 
BRANCH  67  68
ATOM     68  C   UNL     1       0.706  -5.122  24.446  0.00  0.00    -0.000 C 
BRANCH  68  69
ATOM     69  C   UNL     1       1.203  -6.457  23.894  0.00  0.00    -0.000 C 
BRANCH  69  71
ATOM     70  C   UNL     1       1.009  -7.982  21.907  0.00  0.00    +0.004 C 
ATOM     71  C   UNL     1       0.998  -6.540  22.384  0.00  0.00    -0.003 C 
ENDBRANCH  69  71
ENDBRANCH  68  69
ENDBRANCH  67  68
ENDBRANCH  66  67
ENDBRANCH  65  66
ENDBRANCH  64  65
ENDBRANCH  63  64
ENDBRANCH  62  63
ENDBRANCH  61  62
ENDBRANCH  60  61
ENDBRANCH  59  60
ENDBRANCH  57  59
ENDBRANCH  56  57
ENDBRANCH  55  56
ENDBRANCH  54  55
ENDBRANCH  50  54
ENDBRANCH  49  52
ENDBRANCH  48  49
ENDBRANCH  44  48
ENDBRANCH  43  46
BRANCH  43  72
ATOM     72  O   UNL     1       6.325  -5.747  24.157  0.00  0.00    -0.382 OA
ATOM     73  H   UNL     1       6.199  -5.931  25.106  0.00  0.00    +0.210 HD
ENDBRANCH  43  72
ENDBRANCH  40  43
ENDBRANCH  39  40
ENDBRANCH  38  39
ENDBRANCH   1  38
TORSDOF 38
ENDMDL
MODEL 5
REMARK VINA RESULT:      -4.2      3.227      9.349
REMARK  Name = 
REMARK  41 active torsions:
REMARK  status: ('A' for Active; 'I' for Inactive)
REMARK    1  A    between atoms: C_1  and  C_2
REMARK    2  A    between atoms: C_2  and  C_3
REMARK    3  A    between atoms: C_3  and  C_4
REMARK    4  A    between atoms: C_4  and  C_5
REMARK    5  A    between atoms: C_5  and  C_6
REMARK    6  A    between atoms: C_6  and  C_7
REMARK    7  A    between atoms: C_7  and  C_8
REMARK    8  A    between atoms: C_8  and  C_9
REMARK    9  A    between atoms: C_9  and  C_10
REMARK   10  A    between atoms: C_10  and  C_11
REMARK   11  A    between atoms: C_11  and  C_12
REMARK   12  A    between atoms: C_12  and  C_13
REMARK   13  A    between atoms: C_13  and  C_14
REMARK   14  A    between atoms: C_14  and  S_16
REMARK   15  A    between atoms: S_16  and  C_17
REMARK   16  A    between atoms: C_17  and  C_18
REMARK   17  A    between atoms: C_18  and  N_19
REMARK   18  A    between atoms: C_20  and  C_22
REMARK   19  A    between atoms: C_22  and  C_23
REMARK   20  A    between atoms: C_23  and  N_24
REMARK   21  A    between atoms: C_25  and  C_27
REMARK   22  A    between atoms: C_27  and  O_29
REMARK   23  A    between atoms: C_27  and  C_30
REMARK   24  A    between atoms: C_30  and  C_31
REMARK   25  A    between atoms: C_30  and  C_32
REMARK   26  A    between atoms: C_30  and  C_33
REMARK   27  A    between atoms: C_33  and  O_34
REMARK   28  A    between atoms: O_34  and  P_35
REMARK   29  A    between atoms: P_35  and  O_36
REMARK   30  A    between atoms: P_35  and  O_38
REMARK   31  A    between atoms: O_38  and  P_39
REMARK   32  A    between atoms: P_39  and  O_40
REMARK   33  A    between atoms: P_39  and  O_42
REMARK   34  A    between atoms: O_42  and  C_43
REMARK   35  A    between atoms: C_43  and  C_44
REMARK   36  A    between atoms: C_47  and  N_59
REMARK   37  A    between atoms: C_49  and  O_51
REMARK   38  A    between atoms: C_52  and  O_54
REMARK   39  A    between atoms: O_54  and  P_55
REMARK   40  A    between atoms: P_55  and  O_56
REMARK   41  A    between atoms: P_55  and  O_57
REMARK                            x       y       z     vdW  Elec       q    Type
REMARK                         _______ _______ _______ _____ _____    ______ ____
ROOT
ATOM      1  P   UNL     1       5.888   4.021  22.651  0.00  0.00    +0.483 P 
ATOM      2  O   UNL     1       6.903   3.637  21.626  0.00  0.00    -0.227 OA
ENDROOT
BRANCH   1   3
ATOM      3  O   UNL     1       5.865   5.602  22.864  0.00  0.00    -0.302 OA
ATOM      4  H   UNL     1       5.205   6.019  22.279  0.00  0.00    +0.222 HD
ENDBRANCH   1   3
BRANCH   1   5
ATOM      5  O   UNL     1       6.202   3.366  24.055  0.00  0.00    -0.186 OA
BRANCH   5   6
ATOM      6  P   UNL     1       6.060   1.643  24.119  0.00  0.00    +0.483 P 
ATOM      7  O   UNL     1       6.224   1.570  22.601  0.00  0.00    -0.227 OA
BRANCH   6   8
ATOM      8  O   UNL     1       4.451   1.760  24.347  0.00  0.00    -0.302 OA
ATOM      9  H   UNL     1       4.010   1.440  23.535  0.00  0.00    +0.222 HD
ENDBRANCH   6   8
BRANCH   6  10
ATOM     10  O   UNL     1       5.918  -0.079  24.183  0.00  0.00    -0.284 OA
BRANCH  10  11
ATOM     11  C   UNL     1       6.551  -0.774  23.126  0.00  0.00    +0.206 C 
BRANCH  11  12
ATOM     12  C   UNL     1       6.175  -2.259  23.177  0.00  0.00    +0.179 C 
ATOM     13  C   UNL     1       7.233  -3.195  22.575  0.00  0.00    +0.194 C 
ATOM     14  C   UNL     1       7.867  -3.899  23.771  0.00  0.00    +0.196 C 
ATOM     15  C   UNL     1       7.256  -3.195  24.984  0.00  0.00    +0.253 C 
ATOM     16  O   UNL     1       5.985  -2.677  24.547  0.00  0.00    -0.346 OA
BRANCH  15  17
ATOM     17  N   UNL     1       7.083  -4.029  26.160  0.00  0.00    -0.286 N 
ATOM     18  C   UNL     1       5.866  -4.448  26.633  0.00  0.00    +0.167 A 
ATOM     19  N   UNL     1       4.653  -3.948  26.336  0.00  0.00    -0.216 NA
ATOM     20  C   UNL     1       3.680  -4.681  26.919  0.00  0.00    +0.225 A 
ATOM     21  N   UNL     1       3.806  -5.806  27.653  0.00  0.00    -0.219 NA
ATOM     22  C   UNL     1       5.049  -6.289  27.883  0.00  0.00    +0.147 A 
ATOM     23  N   UNL     1       5.168  -7.500  28.539  0.00  0.00    -0.341 N 
ATOM     24  H   UNL     1       6.085  -7.712  28.910  0.00  0.00    +0.144 HD
ATOM     25  H   UNL     1       4.341  -7.795  29.037  0.00  0.00    +0.144 HD
ATOM     26  C   UNL     1       6.151  -5.559  27.409  0.00  0.00    +0.147 A 
ATOM     27  N   UNL     1       7.515  -5.746  27.513  0.00  0.00    -0.231 NA
ATOM     28  C   UNL     1       8.043  -4.803  26.758  0.00  0.00    +0.203 A 
ENDBRANCH  15  17
BRANCH  14  29
ATOM     29  O   UNL     1       9.289  -3.748  23.730  0.00  0.00    -0.385 OA
ATOM     30  H   UNL     1       9.508  -3.415  22.833  0.00  0.00    +0.210 HD
ENDBRANCH  14  29
BRANCH  13  31
ATOM     31  O   UNL     1       6.481  -4.091  21.763  0.00  0.00    -0.278 OA
BRANCH  31  32
ATOM     32  P   UNL     1       6.213  -5.600  22.184  0.00  0.00    +0.473 P 
ATOM     33  O   UNL     1       5.374  -5.853  23.383  0.00  0.00    -0.228 OA
BRANCH  32  34
ATOM     34  O   UNL     1       5.629  -6.227  20.839  0.00  0.00    -0.303 OA
ATOM     35  H   UNL     1       5.694  -5.603  20.095  0.00  0.00    +0.222 HD
ENDBRANCH  32  34
BRANCH  32  36
ATOM     36  O   UNL     1       7.682  -6.215  22.256  0.00  0.00    -0.303 OA
ATOM     37  H   UNL     1       8.361  -5.535  22.088  0.00  0.00    +0.222 HD
ENDBRANCH  32  36
ENDBRANCH  31  32
ENDBRANCH  13  31
ENDBRANCH  11  12
ENDBRANCH  10  11
ENDBRANCH   6  10
ENDBRANCH   5   6
ENDBRANCH   1   5
BRANCH   1  38
ATOM     38  O   UNL     1       4.338   3.648  22.420  0.00  0.00    -0.286 OA
BRANCH  38  39
ATOM     39  C   UNL     1       3.468   4.720  22.086  0.00  0.00    +0.181 C 
BRANCH  39  40
ATOM     40  C   UNL     1       2.209   4.809  22.980  0.00  0.00    +0.024 C 
ATOM     41  C   UNL     1       1.084   5.434  22.131  0.00  0.00    +0.016 C 
ATOM     42  C   UNL     1       1.690   3.430  23.408  0.00  0.00    +0.016 C 
BRANCH  40  43
ATOM     43  C   UNL     1       2.524   5.685  24.234  0.00  0.00    +0.208 C 
BRANCH  43  46
ATOM     44  N   UNL     1       4.507   5.560  25.723  0.00  0.00    -0.313 N 
ATOM     45  H   UNL     1       4.594   6.529  25.419  0.00  0.00    +0.149 HD
ATOM     46  C   UNL     1       3.318   4.950  25.361  0.00  0.00    +0.242 C 
ATOM     47  O   UNL     1       2.926   3.896  25.849  0.00  0.00    -0.273 OA
BRANCH  44  48
ATOM     48  C   UNL     1       5.426   5.100  26.770  0.00  0.00    +0.113 C 
BRANCH  48  49
ATOM     49  C   UNL     1       6.619   5.992  27.138  0.00  0.00    +0.114 C 
BRANCH  49  52
ATOM     50  N   UNL     1       8.818   6.380  26.158  0.00  0.00    -0.314 N 
ATOM     51  H   UNL     1       9.135   5.901  26.989  0.00  0.00    +0.149 HD
ATOM     52  C   UNL     1       7.476   6.546  26.008  0.00  0.00    +0.215 C 
ATOM     53  O   UNL     1       6.968   7.084  25.026  0.00  0.00    -0.276 OA
BRANCH  50  54
ATOM     54  C   UNL     1       9.859   6.834  25.271  0.00  0.00    +0.115 C 
BRANCH  54  55
ATOM     55  C   UNL     1      10.250   6.071  24.010  0.00  0.00    +0.096 C 
BRANCH  55  56
ATOM     56  S   UNL     1       9.588   4.390  24.016  0.00  0.00    -0.087 S 
BRANCH  56  57
ATOM     57  C   UNL     1      10.985   3.539  23.428  0.00  0.00    +0.189 C 
ATOM     58  O   UNL     1      12.081   4.078  23.390  0.00  0.00    -0.285 OA
BRANCH  57  59
ATOM     59  C   UNL     1      10.686   2.137  22.943  0.00  0.00    +0.086 C 
BRANCH  59  60
ATOM     60  C   UNL     1       9.623   1.488  23.814  0.00  0.00    +0.008 C 
BRANCH  60  61
ATOM     61  C   UNL     1      10.248   0.650  24.931  0.00  0.00    +0.000 C 
BRANCH  61  62
ATOM     62  C   UNL     1       9.290  -0.451  25.361  0.00  0.00    +0.000 C 
BRANCH  62  63
ATOM     63  C   UNL     1       9.096  -0.450  26.872  0.00  0.00    +0.000 C 
BRANCH  63  64
ATOM     64  C   UNL     1       7.613  -0.331  27.203  0.00  0.00    +0.000 C 
BRANCH  64  65
ATOM     65  C   UNL     1       7.238   1.107  27.538  0.00  0.00    -0.000 C 
BRANCH  65  66
ATOM     66  C   UNL     1       6.635   1.188  28.937  0.00  0.00    -0.000 C 
BRANCH  66  67
ATOM     67  C   UNL     1       5.356   2.018  28.930  0.00  0.00    -0.000 C 
BRANCH  67  68
ATOM     68  C   UNL     1       4.166   1.192  29.413  0.00  0.00    -0.000 C 
BRANCH  68  69
ATOM     69  C   UNL     1       4.543  -0.284  29.532  0.00  0.00    -0.000 C 
BRANCH  69  71
ATOM     70  C   UNL     1       3.735  -0.519  27.165  0.00  0.00    +0.004 C 
ATOM     71  C   UNL     1       3.743  -1.138  28.552  0.00  0.00    -0.003 C 
ENDBRANCH  69  71
ENDBRANCH  68  69
ENDBRANCH  67  68
ENDBRANCH  66  67
ENDBRANCH  65  66
ENDBRANCH  64  65
ENDBRANCH  63  64
ENDBRANCH  62  63
ENDBRANCH  61  62
ENDBRANCH  60  61
ENDBRANCH  59  60
ENDBRANCH  57  59
ENDBRANCH  56  57
ENDBRANCH  55  56
ENDBRANCH  54  55
ENDBRANCH  50  54
ENDBRANCH  49  52
ENDBRANCH  48  49
ENDBRANCH  44  48
ENDBRANCH  43  46
BRANCH  43  72
ATOM     72  O   UNL     1       3.255   6.856  23.840  0.00  0.00    -0.382 OA
ATOM     73  H   UNL     1       3.253   6.866  22.865  0.00  0.00    +0.210 HD
ENDBRANCH  43  72
ENDBRANCH  40  43
ENDBRANCH  39  40
ENDBRANCH  38  39
ENDBRANCH   1  38
TORSDOF 38
ENDMDL
MODEL 6
REMARK VINA RESULT:      -4.1      3.039      6.316
REMARK  Name = 
REMARK  41 active torsions:
REMARK  status: ('A' for Active; 'I' for Inactive)
REMARK    1  A    between atoms: C_1  and  C_2
REMARK    2  A    between atoms: C_2  and  C_3
REMARK    3  A    between atoms: C_3  and  C_4
REMARK    4  A    between atoms: C_4  and  C_5
REMARK    5  A    between atoms: C_5  and  C_6
REMARK    6  A    between atoms: C_6  and  C_7
REMARK    7  A    between atoms: C_7  and  C_8
REMARK    8  A    between atoms: C_8  and  C_9
REMARK    9  A    between atoms: C_9  and  C_10
REMARK   10  A    between atoms: C_10  and  C_11
REMARK   11  A    between atoms: C_11  and  C_12
REMARK   12  A    between atoms: C_12  and  C_13
REMARK   13  A    between atoms: C_13  and  C_14
REMARK   14  A    between atoms: C_14  and  S_16
REMARK   15  A    between atoms: S_16  and  C_17
REMARK   16  A    between atoms: C_17  and  C_18
REMARK   17  A    between atoms: C_18  and  N_19
REMARK   18  A    between atoms: C_20  and  C_22
REMARK   19  A    between atoms: C_22  and  C_23
REMARK   20  A    between atoms: C_23  and  N_24
REMARK   21  A    between atoms: C_25  and  C_27
REMARK   22  A    between atoms: C_27  and  O_29
REMARK   23  A    between atoms: C_27  and  C_30
REMARK   24  A    between atoms: C_30  and  C_31
REMARK   25  A    between atoms: C_30  and  C_32
REMARK   26  A    between atoms: C_30  and  C_33
REMARK   27  A    between atoms: C_33  and  O_34
REMARK   28  A    between atoms: O_34  and  P_35
REMARK   29  A    between atoms: P_35  and  O_36
REMARK   30  A    between atoms: P_35  and  O_38
REMARK   31  A    between atoms: O_38  and  P_39
REMARK   32  A    between atoms: P_39  and  O_40
REMARK   33  A    between atoms: P_39  and  O_42
REMARK   34  A    between atoms: O_42  and  C_43
REMARK   35  A    between atoms: C_43  and  C_44
REMARK   36  A    between atoms: C_47  and  N_59
REMARK   37  A    between atoms: C_49  and  O_51
REMARK   38  A    between atoms: C_52  and  O_54
REMARK   39  A    between atoms: O_54  and  P_55
REMARK   40  A    between atoms: P_55  and  O_56
REMARK   41  A    between atoms: P_55  and  O_57
REMARK                            x       y       z     vdW  Elec       q    Type
REMARK                         _______ _______ _______ _____ _____    ______ ____
ROOT
ATOM      1  P   UNL     1       8.986  -2.093  22.987  0.00  0.00    +0.483 P 
ATOM      2  O   UNL     1      10.425  -2.459  23.142  0.00  0.00    -0.227 OA
ENDROOT
BRANCH   1   3
ATOM      3  O   UNL     1       8.670  -1.650  21.488  0.00  0.00    -0.302 OA
ATOM      4  H   UNL     1       8.130  -0.838  21.475  0.00  0.00    +0.222 HD
ENDBRANCH   1   3
BRANCH   1   5
ATOM      5  O   UNL     1       8.590  -0.882  23.923  0.00  0.00    -0.186 OA
BRANCH   5   6
ATOM      6  P   UNL     1       8.890   0.691  23.268  0.00  0.00    +0.483 P 
ATOM      7  O   UNL     1       7.664   0.553  22.365  0.00  0.00    -0.227 OA
BRANCH   6   8
ATOM      8  O   UNL     1      10.121   0.111  22.372  0.00  0.00    -0.302 OA
ATOM      9  H   UNL     1       9.928   0.312  21.435  0.00  0.00    +0.222 HD
ENDBRANCH   6   8
BRANCH   6  10
ATOM     10  O   UNL     1       9.190   2.264  22.614  0.00  0.00    -0.284 OA
BRANCH  10  11
ATOM     11  C   UNL     1       8.035   2.984  22.228  0.00  0.00    +0.206 C 
BRANCH  11  12
ATOM     12  C   UNL     1       7.745   4.092  23.248  0.00  0.00    +0.179 C 
ATOM     13  C   UNL     1       8.134   5.499  22.773  0.00  0.00    +0.194 C 
ATOM     14  C   UNL     1       6.811   6.201  22.484  0.00  0.00    +0.196 C 
ATOM     15  C   UNL     1       5.763   5.099  22.644  0.00  0.00    +0.253 C 
ATOM     16  O   UNL     1       6.332   4.133  23.547  0.00  0.00    -0.346 OA
BRANCH  15  17
ATOM     17  N   UNL     1       4.468   5.543  23.130  0.00  0.00    -0.286 N 
ATOM     18  C   UNL     1       3.326   4.787  23.073  0.00  0.00    +0.167 A 
ATOM     19  N   UNL     1       3.098   3.698  22.317  0.00  0.00    -0.216 NA
ATOM     20  C   UNL     1       1.890   3.164  22.602  0.00  0.00    +0.225 A 
ATOM     21  N   UNL     1       1.001   3.557  23.536  0.00  0.00    -0.219 NA
ATOM     22  C   UNL     1       1.303   4.634  24.299  0.00  0.00    +0.147 A 
ATOM     23  N   UNL     1       0.443   4.966  25.329  0.00  0.00    -0.341 N 
ATOM     24  H   UNL     1       0.555   5.895  25.715  0.00  0.00    +0.144 HD
ATOM     25  H   UNL     1      -0.476   4.554  25.264  0.00  0.00    +0.144 HD
ATOM     26  C   UNL     1       2.491   5.334  24.033  0.00  0.00    +0.147 A 
ATOM     27  N   UNL     1       3.053   6.470  24.579  0.00  0.00    -0.231 NA
ATOM     28  C   UNL     1       4.236   6.570  24.007  0.00  0.00    +0.203 A 
ENDBRANCH  15  17
BRANCH  14  29
ATOM     29  O   UNL     1       6.821   6.738  21.159  0.00  0.00    -0.385 OA
ATOM     30  H   UNL     1       6.635   7.698  21.246  0.00  0.00    +0.210 HD
ENDBRANCH  14  29
BRANCH  13  31
ATOM     31  O   UNL     1       8.809   6.067  23.891  0.00  0.00    -0.278 OA
BRANCH  31  32
ATOM     32  P   UNL     1      10.362   5.848  24.149  0.00  0.00    +0.473 P 
ATOM     33  O   UNL     1      11.029   6.699  25.167  0.00  0.00    -0.228 OA
BRANCH  32  34
ATOM     34  O   UNL     1      10.435   4.285  24.460  0.00  0.00    -0.303 OA
ATOM     35  H   UNL     1      11.197   3.868  24.021  0.00  0.00    +0.222 HD
ENDBRANCH  32  34
BRANCH  32  36
ATOM     36  O   UNL     1      10.983   5.950  22.684  0.00  0.00    -0.303 OA
ATOM     37  H   UNL     1      11.104   5.067  22.287  0.00  0.00    +0.222 HD
ENDBRANCH  32  36
ENDBRANCH  31  32
ENDBRANCH  13  31
ENDBRANCH  11  12
ENDBRANCH  10  11
ENDBRANCH   6  10
ENDBRANCH   5   6
ENDBRANCH   1   5
BRANCH   1  38
ATOM     38  O   UNL     1       7.844  -3.183  23.309  0.00  0.00    -0.286 OA
BRANCH  38  39
ATOM     39  C   UNL     1       7.003  -3.561  22.227  0.00  0.00    +0.181 C 
BRANCH  39  40
ATOM     40  C   UNL     1       6.569  -5.046  22.261  0.00  0.00    +0.024 C 
ATOM     41  C   UNL     1       6.377  -5.503  20.801  0.00  0.00    +0.016 C 
ATOM     42  C   UNL     1       7.649  -5.965  22.846  0.00  0.00    +0.016 C 
BRANCH  40  43
ATOM     43  C   UNL     1       5.241  -5.179  23.073  0.00  0.00    +0.208 C 
BRANCH  43  46
ATOM     44  N   UNL     1       5.673  -4.086  25.261  0.00  0.00    -0.313 N 
ATOM     45  H   UNL     1       5.435  -3.261  24.711  0.00  0.00    +0.149 HD
ATOM     46  C   UNL     1       5.431  -5.290  24.621  0.00  0.00    +0.242 C 
ATOM     47  O   UNL     1       5.406  -6.368  25.201  0.00  0.00    -0.273 OA
BRANCH  44  48
ATOM     48  C   UNL     1       5.856  -3.901  26.705  0.00  0.00    +0.113 C 
BRANCH  48  49
ATOM     49  C   UNL     1       5.293  -2.632  27.356  0.00  0.00    +0.114 C 
BRANCH  49  52
ATOM     50  N   UNL     1       6.145  -0.396  26.886  0.00  0.00    -0.314 N 
ATOM     51  H   UNL     1       6.762  -0.604  27.658  0.00  0.00    +0.149 HD
ATOM     52  C   UNL     1       5.252  -1.357  26.525  0.00  0.00    +0.215 C 
ATOM     53  O   UNL     1       4.472  -1.233  25.583  0.00  0.00    -0.276 OA
BRANCH  50  54
ATOM     54  C   UNL     1       6.304   0.913  26.305  0.00  0.00    +0.115 C 
BRANCH  54  55
ATOM     55  C   UNL     1       5.670   2.160  26.913  0.00  0.00    +0.096 C 
BRANCH  55  56
ATOM     56  S   UNL     1       4.164   2.636  26.037  0.00  0.00    -0.087 S 
BRANCH  56  57
ATOM     57  C   UNL     1       3.016   1.661  26.903  0.00  0.00    +0.189 C 
ATOM     58  O   UNL     1       2.033   1.198  26.342  0.00  0.00    -0.285 OA
BRANCH  57  59
ATOM     59  C   UNL     1       3.334   1.504  28.375  0.00  0.00    +0.086 C 
BRANCH  59  60
ATOM     60  C   UNL     1       2.245   0.706  29.072  0.00  0.00    +0.008 C 
BRANCH  60  61
ATOM     61  C   UNL     1       2.624  -0.772  29.193  0.00  0.00    +0.000 C 
BRANCH  61  62
ATOM     62  C   UNL     1       1.372  -1.636  29.193  0.00  0.00    +0.000 C 
BRANCH  62  63
ATOM     63  C   UNL     1       0.822  -1.804  27.782  0.00  0.00    +0.000 C 
BRANCH  63  64
ATOM     64  C   UNL     1       1.658  -2.823  27.018  0.00  0.00    +0.000 C 
BRANCH  64  65
ATOM     65  C   UNL     1       1.916  -4.066  27.860  0.00  0.00    -0.000 C 
BRANCH  65  66
ATOM     66  C   UNL     1       1.684  -5.327  27.034  0.00  0.00    -0.000 C 
BRANCH  66  67
ATOM     67  C   UNL     1       2.788  -6.349  27.281  0.00  0.00    -0.000 C 
BRANCH  67  68
ATOM     68  C   UNL     1       3.255  -6.307  28.734  0.00  0.00    -0.000 C 
BRANCH  68  69
ATOM     69  C   UNL     1       4.713  -6.748  28.849  0.00  0.00    -0.000 C 
BRANCH  69  71
ATOM     70  C   UNL     1       4.598  -4.769  30.392  0.00  0.00    +0.004 C 
ATOM     71  C   UNL     1       5.472  -5.890  29.857  0.00  0.00    -0.003 C 
ENDBRANCH  69  71
ENDBRANCH  68  69
ENDBRANCH  67  68
ENDBRANCH  66  67
ENDBRANCH  65  66
ENDBRANCH  64  65
ENDBRANCH  63  64
ENDBRANCH  62  63
ENDBRANCH  61  62
ENDBRANCH  60  61
ENDBRANCH  59  60
ENDBRANCH  57  59
ENDBRANCH  56  57
ENDBRANCH  55  56
ENDBRANCH  54  55
ENDBRANCH  50  54
ENDBRANCH  49  52
ENDBRANCH  48  49
ENDBRANCH  44  48
ENDBRANCH  43  46
BRANCH  43  72
ATOM     72  O   UNL     1       4.381  -4.065  22.790  0.00  0.00    -0.382 OA
ATOM     73  H   UNL     1       3.813  -4.341  22.047  0.00  0.00    +0.210 HD
ENDBRANCH  43  72
ENDBRANCH  40  43
ENDBRANCH  39  40
ENDBRANCH  38  39
ENDBRANCH   1  38
TORSDOF 38
ENDMDL
MODEL 7
REMARK VINA RESULT:      -3.8      3.109      8.880
REMARK  Name = 
REMARK  41 active torsions:
REMARK  status: ('A' for Active; 'I' for Inactive)
REMARK    1  A    between atoms: C_1  and  C_2
REMARK    2  A    between atoms: C_2  and  C_3
REMARK    3  A    between atoms: C_3  and  C_4
REMARK    4  A    between atoms: C_4  and  C_5
REMARK    5  A    between atoms: C_5  and  C_6
REMARK    6  A    between atoms: C_6  and  C_7
REMARK    7  A    between atoms: C_7  and  C_8
REMARK    8  A    between atoms: C_8  and  C_9
REMARK    9  A    between atoms: C_9  and  C_10
REMARK   10  A    between atoms: C_10  and  C_11
REMARK   11  A    between atoms: C_11  and  C_12
REMARK   12  A    between atoms: C_12  and  C_13
REMARK   13  A    between atoms: C_13  and  C_14
REMARK   14  A    between atoms: C_14  and  S_16
REMARK   15  A    between atoms: S_16  and  C_17
REMARK   16  A    between atoms: C_17  and  C_18
REMARK   17  A    between atoms: C_18  and  N_19
REMARK   18  A    between atoms: C_20  and  C_22
REMARK   19  A    between atoms: C_22  and  C_23
REMARK   20  A    between atoms: C_23  and  N_24
REMARK   21  A    between atoms: C_25  and  C_27
REMARK   22  A    between atoms: C_27  and  O_29
REMARK   23  A    between atoms: C_27  and  C_30
REMARK   24  A    between atoms: C_30  and  C_31
REMARK   25  A    between atoms: C_30  and  C_32
REMARK   26  A    between atoms: C_30  and  C_33
REMARK   27  A    between atoms: C_33  and  O_34
REMARK   28  A    between atoms: O_34  and  P_35
REMARK   29  A    between atoms: P_35  and  O_36
REMARK   30  A    between atoms: P_35  and  O_38
REMARK   31  A    between atoms: O_38  and  P_39
REMARK   32  A    between atoms: P_39  and  O_40
REMARK   33  A    between atoms: P_39  and  O_42
REMARK   34  A    between atoms: O_42  and  C_43
REMARK   35  A    between atoms: C_43  and  C_44
REMARK   36  A    between atoms: C_47  and  N_59
REMARK   37  A    between atoms: C_49  and  O_51
REMARK   38  A    between atoms: C_52  and  O_54
REMARK   39  A    between atoms: O_54  and  P_55
REMARK   40  A    between atoms: P_55  and  O_56
REMARK   41  A    between atoms: P_55  and  O_57
REMARK                            x       y       z     vdW  Elec       q    Type
REMARK                         _______ _______ _______ _____ _____    ______ ____
ROOT
ATOM      1  P   UNL     1       6.494   3.263  22.255  0.00  0.00    +0.483 P 
ATOM      2  O   UNL     1       7.289   2.514  21.237  0.00  0.00    -0.227 OA
ENDROOT
BRANCH   1   3
ATOM      3  O   UNL     1       6.852   4.816  22.228  0.00  0.00    -0.302 OA
ATOM      4  H   UNL     1       6.045   5.354  22.125  0.00  0.00    +0.222 HD
ENDBRANCH   1   3
BRANCH   1   5
ATOM      5  O   UNL     1       6.787   2.743  23.719  0.00  0.00    -0.186 OA
BRANCH   5   6
ATOM      6  P   UNL     1       6.560   1.045  23.963  0.00  0.00    +0.483 P 
ATOM      7  O   UNL     1       6.801   0.795  22.474  0.00  0.00    -0.227 OA
BRANCH   6   8
ATOM      8  O   UNL     1       4.948   1.253  24.084  0.00  0.00    -0.302 OA
ATOM      9  H   UNL     1       4.708   1.181  25.029  0.00  0.00    +0.222 HD
ENDBRANCH   6   8
BRANCH   6  10
ATOM     10  O   UNL     1       6.333  -0.652  24.208  0.00  0.00    -0.284 OA
BRANCH  10  11
ATOM     11  C   UNL     1       6.481  -1.451  23.050  0.00  0.00    +0.206 C 
BRANCH  11  12
ATOM     12  C   UNL     1       6.385  -2.935  23.422  0.00  0.00    +0.179 C 
ATOM     13  C   UNL     1       6.863  -3.257  24.845  0.00  0.00    +0.194 C 
ATOM     14  C   UNL     1       5.591  -3.562  25.632  0.00  0.00    +0.196 C 
ATOM     15  C   UNL     1       4.462  -3.226  24.656  0.00  0.00    +0.253 C 
ATOM     16  O   UNL     1       5.014  -3.381  23.336  0.00  0.00    -0.346 OA
BRANCH  15  17
ATOM     17  N   UNL     1       3.262  -4.031  24.799  0.00  0.00    -0.286 N 
ATOM     18  C   UNL     1       3.244  -5.401  24.735  0.00  0.00    +0.167 A 
ATOM     19  N   UNL     1       4.193  -6.213  24.236  0.00  0.00    -0.216 NA
ATOM     20  C   UNL     1       3.865  -7.508  24.434  0.00  0.00    +0.225 A 
ATOM     21  N   UNL     1       2.797  -8.010  25.086  0.00  0.00    -0.219 NA
ATOM     22  C   UNL     1       1.896  -7.145  25.607  0.00  0.00    +0.147 A 
ATOM     23  N   UNL     1       0.864  -7.658  26.370  0.00  0.00    -0.341 N 
ATOM     24  H   UNL     1       0.085  -7.034  26.535  0.00  0.00    +0.144 HD
ATOM     25  H   UNL     1       0.701  -8.648  26.253  0.00  0.00    +0.144 HD
ATOM     26  C   UNL     1       2.077  -5.771  25.383  0.00  0.00    +0.147 A 
ATOM     27  N   UNL     1       1.336  -4.658  25.727  0.00  0.00    -0.231 NA
ATOM     28  C   UNL     1       2.074  -3.632  25.353  0.00  0.00    +0.203 A 
ENDBRANCH  15  17
BRANCH  14  29
ATOM     29  O   UNL     1       5.536  -2.752  26.808  0.00  0.00    -0.385 OA
ATOM     30  H   UNL     1       5.803  -3.329  27.557  0.00  0.00    +0.210 HD
ENDBRANCH  14  29
BRANCH  13  31
ATOM     31  O   UNL     1       7.683  -4.410  24.683  0.00  0.00    -0.278 OA
BRANCH  31  32
ATOM     32  P   UNL     1       8.697  -4.897  25.804  0.00  0.00    +0.473 P 
ATOM     33  O   UNL     1       9.250  -3.882  26.737  0.00  0.00    -0.228 OA
BRANCH  32  34
ATOM     34  O   UNL     1       7.874  -6.059  26.523  0.00  0.00    -0.303 OA
ATOM     35  H   UNL     1       7.337  -5.716  27.258  0.00  0.00    +0.222 HD
ENDBRANCH  32  34
BRANCH  32  36
ATOM     36  O   UNL     1       9.792  -5.701  24.968  0.00  0.00    -0.303 OA
ATOM     37  H   UNL     1      10.679  -5.611  25.366  0.00  0.00    +0.222 HD
ENDBRANCH  32  36
ENDBRANCH  31  32
ENDBRANCH  13  31
ENDBRANCH  11  12
ENDBRANCH  10  11
ENDBRANCH   6  10
ENDBRANCH   5   6
ENDBRANCH   1   5
BRANCH   1  38
ATOM     38  O   UNL     1       4.884   3.244  22.184  0.00  0.00    -0.286 OA
BRANCH  38  39
ATOM     39  C   UNL     1       4.216   4.428  22.596  0.00  0.00    +0.181 C 
BRANCH  39  40
ATOM     40  C   UNL     1       2.677   4.358  22.464  0.00  0.00    +0.024 C 
ATOM     41  C   UNL     1       2.236   5.541  21.578  0.00  0.00    +0.016 C 
ATOM     42  C   UNL     1       2.203   3.093  21.735  0.00  0.00    +0.016 C 
BRANCH  40  43
ATOM     43  C   UNL     1       2.030   4.443  23.883  0.00  0.00    +0.208 C 
BRANCH  43  46
ATOM     44  N   UNL     1       3.564   4.316  25.831  0.00  0.00    -0.313 N 
ATOM     45  H   UNL     1       3.398   5.322  25.822  0.00  0.00    +0.149 HD
ATOM     46  C   UNL     1       2.747   3.592  24.980  0.00  0.00    +0.242 C 
ATOM     47  O   UNL     1       2.619   2.374  25.042  0.00  0.00    -0.273 OA
BRANCH  44  48
ATOM     48  C   UNL     1       4.326   3.772  26.961  0.00  0.00    +0.113 C 
BRANCH  48  49
ATOM     49  C   UNL     1       5.363   4.674  27.644  0.00  0.00    +0.114 C 
BRANCH  49  52
ATOM     50  N   UNL     1       7.411   5.851  27.041  0.00  0.00    -0.314 N 
ATOM     51  H   UNL     1       7.814   5.258  27.752  0.00  0.00    +0.149 HD
ATOM     52  C   UNL     1       6.081   5.713  26.793  0.00  0.00    +0.215 C 
ATOM     53  O   UNL     1       5.485   6.356  25.932  0.00  0.00    -0.276 OA
BRANCH  50  54
ATOM     54  C   UNL     1       8.325   6.776  26.419  0.00  0.00    +0.115 C 
BRANCH  54  55
ATOM     55  C   UNL     1       8.911   6.538  25.032  0.00  0.00    +0.096 C 
BRANCH  55  56
ATOM     56  S   UNL     1       9.244   4.787  24.740  0.00  0.00    -0.087 S 
BRANCH  56  57
ATOM     57  C   UNL     1      10.662   4.933  23.747  0.00  0.00    +0.189 C 
ATOM     58  O   UNL     1      11.067   6.029  23.386  0.00  0.00    -0.285 OA
BRANCH  57  59
ATOM     59  C   UNL     1      11.275   3.606  23.357  0.00  0.00    +0.086 C 
BRANCH  59  60
ATOM     60  C   UNL     1      10.255   2.488  23.492  0.00  0.00    +0.008 C 
BRANCH  60  61
ATOM     61  C   UNL     1      10.831   1.291  24.250  0.00  0.00    +0.000 C 
BRANCH  61  62
ATOM     62  C   UNL     1      10.277  -0.007  23.682  0.00  0.00    +0.000 C 
BRANCH  62  63
ATOM     63  C   UNL     1       9.730  -0.901  24.788  0.00  0.00    +0.000 C 
BRANCH  63  64
ATOM     64  C   UNL     1       9.486  -0.077  26.046  0.00  0.00    +0.000 C 
BRANCH  64  65
ATOM     65  C   UNL     1       8.438  -0.731  26.938  0.00  0.00    -0.000 C 
BRANCH  65  66
ATOM     66  C   UNL     1       7.910   0.268  27.961  0.00  0.00    -0.000 C 
BRANCH  66  67
ATOM     67  C   UNL     1       6.524   0.766  27.568  0.00  0.00    -0.000 C 
BRANCH  67  68
ATOM     68  C   UNL     1       5.495   0.419  28.641  0.00  0.00    -0.000 C 
BRANCH  68  69
ATOM     69  C   UNL     1       4.100   0.286  28.033  0.00  0.00    -0.000 C 
BRANCH  69  71
ATOM     70  C   UNL     1       1.847   1.358  28.329  0.00  0.00    +0.004 C 
ATOM     71  C   UNL     1       3.021   0.699  29.031  0.00  0.00    -0.003 C 
ENDBRANCH  69  71
ENDBRANCH  68  69
ENDBRANCH  67  68
ENDBRANCH  66  67
ENDBRANCH  65  66
ENDBRANCH  64  65
ENDBRANCH  63  64
ENDBRANCH  62  63
ENDBRANCH  61  62
ENDBRANCH  60  61
ENDBRANCH  59  60
ENDBRANCH  57  59
ENDBRANCH  56  57
ENDBRANCH  55  56
ENDBRANCH  54  55
ENDBRANCH  50  54
ENDBRANCH  49  52
ENDBRANCH  48  49
ENDBRANCH  44  48
ENDBRANCH  43  46
BRANCH  43  72
ATOM     72  O   UNL     1       1.981   5.811  24.316  0.00  0.00    -0.382 OA
ATOM     73  H   UNL     1       2.311   6.346  23.572  0.00  0.00    +0.210 HD
ENDBRANCH  43  72
ENDBRANCH  40  43
ENDBRANCH  39  40
ENDBRANCH  38  39
ENDBRANCH   1  38
TORSDOF 38
ENDMDL
MODEL 8
REMARK VINA RESULT:      -3.8      3.468      9.060
REMARK  Name = 
REMARK  41 active torsions:
REMARK  status: ('A' for Active; 'I' for Inactive)
REMARK    1  A    between atoms: C_1  and  C_2
REMARK    2  A    between atoms: C_2  and  C_3
REMARK    3  A    between atoms: C_3  and  C_4
REMARK    4  A    between atoms: C_4  and  C_5
REMARK    5  A    between atoms: C_5  and  C_6
REMARK    6  A    between atoms: C_6  and  C_7
REMARK    7  A    between atoms: C_7  and  C_8
REMARK    8  A    between atoms: C_8  and  C_9
REMARK    9  A    between atoms: C_9  and  C_10
REMARK   10  A    between atoms: C_10  and  C_11
REMARK   11  A    between atoms: C_11  and  C_12
REMARK   12  A    between atoms: C_12  and  C_13
REMARK   13  A    between atoms: C_13  and  C_14
REMARK   14  A    between atoms: C_14  and  S_16
REMARK   15  A    between atoms: S_16  and  C_17
REMARK   16  A    between atoms: C_17  and  C_18
REMARK   17  A    between atoms: C_18  and  N_19
REMARK   18  A    between atoms: C_20  and  C_22
REMARK   19  A    between atoms: C_22  and  C_23
REMARK   20  A    between atoms: C_23  and  N_24
REMARK   21  A    between atoms: C_25  and  C_27
REMARK   22  A    between atoms: C_27  and  O_29
REMARK   23  A    between atoms: C_27  and  C_30
REMARK   24  A    between atoms: C_30  and  C_31
REMARK   25  A    between atoms: C_30  and  C_32
REMARK   26  A    between atoms: C_30  and  C_33
REMARK   27  A    between atoms: C_33  and  O_34
REMARK   28  A    between atoms: O_34  and  P_35
REMARK   29  A    between atoms: P_35  and  O_36
REMARK   30  A    between atoms: P_35  and  O_38
REMARK   31  A    between atoms: O_38  and  P_39
REMARK   32  A    between atoms: P_39  and  O_40
REMARK   33  A    between atoms: P_39  and  O_42
REMARK   34  A    between atoms: O_42  and  C_43
REMARK   35  A    between atoms: C_43  and  C_44
REMARK   36  A    between atoms: C_47  and  N_59
REMARK   37  A    between atoms: C_49  and  O_51
REMARK   38  A    between atoms: C_52  and  O_54
REMARK   39  A    between atoms: O_54  and  P_55
REMARK   40  A    between atoms: P_55  and  O_56
REMARK   41  A    between atoms: P_55  and  O_57
REMARK                            x       y       z     vdW  Elec       q    Type
REMARK                         _______ _______ _______ _____ _____    ______ ____
ROOT
ATOM      1  P   UNL     1       8.850  -1.606  22.562  0.00  0.00    +0.483 P 
ATOM      2  O   UNL     1      10.269  -1.986  22.300  0.00  0.00    -0.227 OA
ENDROOT
BRANCH   1   3
ATOM      3  O   UNL     1       8.438  -1.946  24.064  0.00  0.00    -0.302 OA
ATOM      4  H   UNL     1       8.922  -2.729  24.386  0.00  0.00    +0.222 HD
ENDBRANCH   1   3
BRANCH   1   5
ATOM      5  O   UNL     1       7.854  -2.391  21.617  0.00  0.00    -0.186 OA
BRANCH   5   6
ATOM      6  P   UNL     1       6.684  -3.376  22.427  0.00  0.00    +0.483 P 
ATOM      7  O   UNL     1       6.021  -3.695  21.087  0.00  0.00    -0.227 OA
BRANCH   6   8
ATOM      8  O   UNL     1       5.901  -2.050  22.960  0.00  0.00    -0.302 OA
ATOM      9  H   UNL     1       6.550  -1.490  23.431  0.00  0.00    +0.222 HD
ENDBRANCH   6   8
BRANCH   6  10
ATOM     10  O   UNL     1       5.515  -4.360  23.237  0.00  0.00    -0.284 OA
BRANCH  10  11
ATOM     11  C   UNL     1       6.025  -5.545  23.815  0.00  0.00    +0.206 C 
BRANCH  11  12
ATOM     12  C   UNL     1       5.620  -5.624  25.291  0.00  0.00    +0.179 C 
ATOM     13  C   UNL     1       6.575  -4.891  26.244  0.00  0.00    +0.194 C 
ATOM     14  C   UNL     1       5.815  -3.645  26.689  0.00  0.00    +0.196 C 
ATOM     15  C   UNL     1       4.549  -3.656  25.831  0.00  0.00    +0.253 C 
ATOM     16  O   UNL     1       4.315  -5.033  25.481  0.00  0.00    -0.346 OA
BRANCH  15  17
ATOM     17  N   UNL     1       3.370  -3.088  26.461  0.00  0.00    -0.286 N 
ATOM     18  C   UNL     1       3.409  -2.229  27.528  0.00  0.00    +0.167 A 
ATOM     19  N   UNL     1       4.437  -2.005  28.367  0.00  0.00    -0.216 NA
ATOM     20  C   UNL     1       4.136  -1.018  29.237  0.00  0.00    +0.225 A 
ATOM     21  N   UNL     1       3.019  -0.264  29.294  0.00  0.00    -0.219 NA
ATOM     22  C   UNL     1       2.035  -0.503  28.396  0.00  0.00    +0.147 A 
ATOM     23  N   UNL     1       0.942   0.343  28.384  0.00  0.00    -0.341 N 
ATOM     24  H   UNL     1       0.127   0.005  27.888  0.00  0.00    +0.144 HD
ATOM     25  H   UNL     1       0.829   0.903  29.217  0.00  0.00    +0.144 HD
ATOM     26  C   UNL     1       2.190  -1.571  27.498  0.00  0.00    +0.147 A 
ATOM     27  N   UNL     1       1.376  -2.098  26.515  0.00  0.00    -0.231 NA
ATOM     28  C   UNL     1       2.114  -3.012  25.919  0.00  0.00    +0.203 A 
ENDBRANCH  15  17
BRANCH  14  29
ATOM     29  O   UNL     1       6.607  -2.478  26.454  0.00  0.00    -0.385 OA
ATOM     30  H   UNL     1       6.109  -1.929  25.809  0.00  0.00    +0.210 HD
ENDBRANCH  14  29
BRANCH  13  31
ATOM     31  O   UNL     1       6.770  -5.811  27.314  0.00  0.00    -0.278 OA
BRANCH  31  32
ATOM     32  P   UNL     1       5.575  -6.315  28.231  0.00  0.00    +0.473 P 
ATOM     33  O   UNL     1       4.662  -5.299  28.813  0.00  0.00    -0.228 OA
BRANCH  32  34
ATOM     34  O   UNL     1       4.849  -7.375  27.285  0.00  0.00    -0.303 OA
ATOM     35  H   UNL     1       5.385  -7.580  26.500  0.00  0.00    +0.222 HD
ENDBRANCH  32  34
BRANCH  32  36
ATOM     36  O   UNL     1       6.312  -7.240  29.301  0.00  0.00    -0.303 OA
ATOM     37  H   UNL     1       6.292  -8.178  29.033  0.00  0.00    +0.222 HD
ENDBRANCH  32  36
ENDBRANCH  31  32
ENDBRANCH  13  31
ENDBRANCH  11  12
ENDBRANCH  10  11
ENDBRANCH   6  10
ENDBRANCH   5   6
ENDBRANCH   1   5
BRANCH   1  38
ATOM     38  O   UNL     1       8.385  -0.075  22.378  0.00  0.00    -0.286 OA
BRANCH  38  39
ATOM     39  C   UNL     1       8.053   0.635  23.564  0.00  0.00    +0.181 C 
BRANCH  39  40
ATOM     40  C   UNL     1       9.127   1.659  24.003  0.00  0.00    +0.024 C 
ATOM     41  C   UNL     1       8.563   2.428  25.214  0.00  0.00    +0.016 C 
ATOM     42  C   UNL     1      10.415   0.988  24.499  0.00  0.00    +0.016 C 
BRANCH  40  43
ATOM     43  C   UNL     1       9.439   2.624  22.816  0.00  0.00    +0.208 C 
BRANCH  43  46
ATOM     44  N   UNL     1       9.464   5.050  23.348  0.00  0.00    -0.313 N 
ATOM     45  H   UNL     1       8.465   4.874  23.441  0.00  0.00    +0.149 HD
ATOM     46  C   UNL     1      10.237   3.909  23.211  0.00  0.00    +0.242 C 
ATOM     47  O   UNL     1      11.455   3.900  23.347  0.00  0.00    -0.273 OA
BRANCH  44  48
ATOM     48  C   UNL     1       9.952   6.377  23.739  0.00  0.00    +0.113 C 
BRANCH  48  49
ATOM     49  C   UNL     1       9.582   6.909  25.130  0.00  0.00    +0.114 C 
BRANCH  49  52
ATOM     50  N   UNL     1       7.158   6.649  25.181  0.00  0.00    -0.314 N 
ATOM     51  H   UNL     1       7.207   7.195  24.332  0.00  0.00    +0.149 HD
ATOM     52  C   UNL     1       8.333   6.356  25.801  0.00  0.00    +0.215 C 
ATOM     53  O   UNL     1       8.405   5.674  26.822  0.00  0.00    -0.276 OA
BRANCH  50  54
ATOM     54  C   UNL     1       5.830   6.291  25.609  0.00  0.00    +0.115 C 
BRANCH  54  55
ATOM     55  C   UNL     1       5.515   5.881  27.043  0.00  0.00    +0.096 C 
BRANCH  55  56
ATOM     56  S   UNL     1       3.753   6.034  27.408  0.00  0.00    -0.087 S 
BRANCH  56  57
ATOM     57  C   UNL     1       3.480   4.475  28.126  0.00  0.00    +0.189 C 
ATOM     58  O   UNL     1       4.387   3.870  28.681  0.00  0.00    -0.285 OA
BRANCH  57  59
ATOM     59  C   UNL     1       2.070   3.957  27.947  0.00  0.00    +0.086 C 
BRANCH  59  60
ATOM     60  C   UNL     1       1.612   4.147  26.510  0.00  0.00    +0.008 C 
BRANCH  60  61
ATOM     61  C   UNL     1       1.544   2.814  25.763  0.00  0.00    +0.000 C 
BRANCH  61  62
ATOM     62  C   UNL     1       0.597   2.924  24.577  0.00  0.00    +0.000 C 
BRANCH  62  63
ATOM     63  C   UNL     1       0.716   4.287  23.906  0.00  0.00    +0.000 C 
BRANCH  63  64
ATOM     64  C   UNL     1       1.084   4.110  22.438  0.00  0.00    +0.000 C 
BRANCH  64  65
ATOM     65  C   UNL     1       2.469   4.675  22.146  0.00  0.00    -0.000 C 
BRANCH  65  66
ATOM     66  C   UNL     1       3.503   3.555  22.106  0.00  0.00    -0.000 C 
BRANCH  66  67
ATOM     67  C   UNL     1       4.544   3.738  23.204  0.00  0.00    -0.000 C 
BRANCH  67  68
ATOM     68  C   UNL     1       4.869   2.405  23.874  0.00  0.00    -0.000 C 
BRANCH  68  69
ATOM     69  C   UNL     1       4.908   2.556  25.394  0.00  0.00    -0.000 C 
BRANCH  69  71
ATOM     70  C   UNL     1       5.957   1.089  27.142  0.00  0.00    +0.004 C 
ATOM     71  C   UNL     1       4.872   1.196  26.085  0.00  0.00    -0.003 C 
ENDBRANCH  69  71
ENDBRANCH  68  69
ENDBRANCH  67  68
ENDBRANCH  66  67
ENDBRANCH  65  66
ENDBRANCH  64  65
ENDBRANCH  63  64
ENDBRANCH  62  63
ENDBRANCH  61  62
ENDBRANCH  60  61
ENDBRANCH  59  60
ENDBRANCH  57  59
ENDBRANCH  56  57
ENDBRANCH  55  56
ENDBRANCH  54  55
ENDBRANCH  50  54
ENDBRANCH  49  52
ENDBRANCH  48  49
ENDBRANCH  44  48
ENDBRANCH  43  46
BRANCH  43  72
ATOM     72  O   UNL     1      10.164   1.925  21.793  0.00  0.00    -0.382 OA
ATOM     73  H   UNL     1      10.749   2.583  21.374  0.00  0.00    +0.210 HD
ENDBRANCH  43  72
ENDBRANCH  40  43
ENDBRANCH  39  40
ENDBRANCH  38  39
ENDBRANCH   1  38
TORSDOF 38
ENDMDL
MODEL 9
REMARK VINA RESULT:      -3.7      3.525      9.310
REMARK  Name = 
REMARK  41 active torsions:
REMARK  status: ('A' for Active; 'I' for Inactive)
REMARK    1  A    between atoms: C_1  and  C_2
REMARK    2  A    between atoms: C_2  and  C_3
REMARK    3  A    between atoms: C_3  and  C_4
REMARK    4  A    between atoms: C_4  and  C_5
REMARK    5  A    between atoms: C_5  and  C_6
REMARK    6  A    between atoms: C_6  and  C_7
REMARK    7  A    between atoms: C_7  and  C_8
REMARK    8  A    between atoms: C_8  and  C_9
REMARK    9  A    between atoms: C_9  and  C_10
REMARK   10  A    between atoms: C_10  and  C_11
REMARK   11  A    between atoms: C_11  and  C_12
REMARK   12  A    between atoms: C_12  and  C_13
REMARK   13  A    between atoms: C_13  and  C_14
REMARK   14  A    between atoms: C_14  and  S_16
REMARK   15  A    between atoms: S_16  and  C_17
REMARK   16  A    between atoms: C_17  and  C_18
REMARK   17  A    between atoms: C_18  and  N_19
REMARK   18  A    between atoms: C_20  and  C_22
REMARK   19  A    between atoms: C_22  and  C_23
REMARK   20  A    between atoms: C_23  and  N_24
REMARK   21  A    between atoms: C_25  and  C_27
REMARK   22  A    between atoms: C_27  and  O_29
REMARK   23  A    between atoms: C_27  and  C_30
REMARK   24  A    between atoms: C_30  and  C_31
REMARK   25  A    between atoms: C_30  and  C_32
REMARK   26  A    between atoms: C_30  and  C_33
REMARK   27  A    between atoms: C_33  and  O_34
REMARK   28  A    between atoms: O_34  and  P_35
REMARK   29  A    between atoms: P_35  and  O_36
REMARK   30  A    between atoms: P_35  and  O_38
REMARK   31  A    between atoms: O_38  and  P_39
REMARK   32  A    between atoms: P_39  and  O_40
REMARK   33  A    between atoms: P_39  and  O_42
REMARK   34  A    between atoms: O_42  and  C_43
REMARK   35  A    between atoms: C_43  and  C_44
REMARK   36  A    between atoms: C_47  and  N_59
REMARK   37  A    between atoms: C_49  and  O_51
REMARK   38  A    between atoms: C_52  and  O_54
REMARK   39  A    between atoms: O_54  and  P_55
REMARK   40  A    between atoms: P_55  and  O_56
REMARK   41  A    between atoms: P_55  and  O_57
REMARK                            x       y       z     vdW  Elec       q    Type
REMARK                         _______ _______ _______ _____ _____    ______ ____
ROOT
ATOM      1  P   UNL     1       8.707  -1.550  22.568  0.00  0.00    +0.483 P 
ATOM      2  O   UNL     1      10.118  -1.807  22.157  0.00  0.00    -0.227 OA
ENDROOT
BRANCH   1   3
ATOM      3  O   UNL     1       8.458  -2.017  24.073  0.00  0.00    -0.302 OA
ATOM      4  H   UNL     1       7.917  -1.362  24.552  0.00  0.00    +0.222 HD
ENDBRANCH   1   3
BRANCH   1   5
ATOM      5  O   UNL     1       7.683  -2.343  21.660  0.00  0.00    -0.186 OA
BRANCH   5   6
ATOM      6  P   UNL     1       6.567  -3.357  22.510  0.00  0.00    +0.483 P 
ATOM      7  O   UNL     1       5.880  -3.711  21.191  0.00  0.00    -0.227 OA
BRANCH   6   8
ATOM      8  O   UNL     1       5.756  -2.051  23.052  0.00  0.00    -0.302 OA
ATOM      9  H   UNL     1       4.823  -2.313  23.182  0.00  0.00    +0.222 HD
ENDBRANCH   6   8
BRANCH   6  10
ATOM     10  O   UNL     1       5.453  -4.370  23.360  0.00  0.00    -0.284 OA
BRANCH  10  11
ATOM     11  C   UNL     1       6.006  -5.559  23.890  0.00  0.00    +0.206 C 
BRANCH  11  12
ATOM     12  C   UNL     1       5.697  -5.657  25.388  0.00  0.00    +0.179 C 
ATOM     13  C   UNL     1       6.840  -5.183  26.296  0.00  0.00    +0.194 C 
ATOM     14  C   UNL     1       6.367  -3.848  26.866  0.00  0.00    +0.196 C 
ATOM     15  C   UNL     1       5.066  -3.563  26.113  0.00  0.00    +0.253 C 
ATOM     16  O   UNL     1       4.547  -4.845  25.713  0.00  0.00    -0.346 OA
BRANCH  15  17
ATOM     17  N   UNL     1       4.066  -2.827  26.865  0.00  0.00    -0.286 N 
ATOM     18  C   UNL     1       3.967  -1.459  26.879  0.00  0.00    +0.167 A 
ATOM     19  N   UNL     1       4.899  -0.565  26.501  0.00  0.00    -0.216 NA
ATOM     20  C   UNL     1       4.406   0.691  26.563  0.00  0.00    +0.225 A 
ATOM     21  N   UNL     1       3.156   1.085  26.882  0.00  0.00    -0.219 NA
ATOM     22  C   UNL     1       2.248   0.137  27.211  0.00  0.00    +0.147 A 
ATOM     23  N   UNL     1       0.941   0.533  27.427  0.00  0.00    -0.341 N 
ATOM     24  H   UNL     1       0.350  -0.137  27.903  0.00  0.00    +0.144 HD
ATOM     25  H   UNL     1       0.819   1.522  27.593  0.00  0.00    +0.144 HD
ATOM     26  C   UNL     1       2.666  -1.201  27.276  0.00  0.00    +0.147 A 
ATOM     27  N   UNL     1       2.019  -2.372  27.618  0.00  0.00    -0.231 NA
ATOM     28  C   UNL     1       2.893  -3.326  27.368  0.00  0.00    +0.203 A 
ENDBRANCH  15  17
BRANCH  14  29
ATOM     29  O   UNL     1       7.351  -2.839  26.628  0.00  0.00    -0.385 OA
ATOM     30  H   UNL     1       6.919  -1.978  26.822  0.00  0.00    +0.210 HD
ENDBRANCH  14  29
BRANCH  13  31
ATOM     31  O   UNL     1       6.928  -6.192  27.298  0.00  0.00    -0.278 OA
BRANCH  31  32
ATOM     32  P   UNL     1       5.838  -6.351  28.443  0.00  0.00    +0.473 P 
ATOM     33  O   UNL     1       4.429  -6.592  28.039  0.00  0.00    -0.228 OA
BRANCH  32  34
ATOM     34  O   UNL     1       6.463  -7.509  29.344  0.00  0.00    -0.303 OA
ATOM     35  H   UNL     1       7.083  -8.062  28.838  0.00  0.00    +0.222 HD
ENDBRANCH  32  34
BRANCH  32  36
ATOM     36  O   UNL     1       6.063  -5.047  29.332  0.00  0.00    -0.303 OA
ATOM     37  H   UNL     1       7.007  -4.922  29.547  0.00  0.00    +0.222 HD
ENDBRANCH  32  36
ENDBRANCH  31  32
ENDBRANCH  13  31
ENDBRANCH  11  12
ENDBRANCH  10  11
ENDBRANCH   6  10
ENDBRANCH   5   6
ENDBRANCH   1   5
BRANCH   1  38
ATOM     38  O   UNL     1       8.124  -0.048  22.537  0.00  0.00    -0.286 OA
BRANCH  38  39
ATOM     39  C   UNL     1       7.892   0.570  23.795  0.00  0.00    +0.181 C 
BRANCH  39  40
ATOM     40  C   UNL     1       9.005   1.554  24.224  0.00  0.00    +0.024 C 
ATOM     41  C   UNL     1       8.390   2.523  25.255  0.00  0.00    +0.016 C 
ATOM     42  C   UNL     1      10.164   0.857  24.949  0.00  0.00    +0.016 C 
BRANCH  40  43
ATOM     43  C   UNL     1       9.530   2.323  22.970  0.00  0.00    +0.208 C 
BRANCH  43  46
ATOM     44  N   UNL     1       9.613   4.791  23.233  0.00  0.00    -0.313 N 
ATOM     45  H   UNL     1       8.603   4.659  23.256  0.00  0.00    +0.149 HD
ATOM     46  C   UNL     1      10.346   3.617  23.292  0.00  0.00    +0.242 C 
ATOM     47  O   UNL     1      11.546   3.583  23.535  0.00  0.00    -0.273 OA
BRANCH  44  48
ATOM     48  C   UNL     1      10.123   6.137  23.518  0.00  0.00    +0.113 C 
BRANCH  48  49
ATOM     49  C   UNL     1       9.247   7.088  24.345  0.00  0.00    +0.114 C 
BRANCH  49  52
ATOM     50  N   UNL     1       7.302   5.697  23.870  0.00  0.00    -0.314 N 
ATOM     51  H   UNL     1       7.882   5.361  23.114  0.00  0.00    +0.149 HD
ATOM     52  C   UNL     1       7.833   6.644  24.690  0.00  0.00    +0.215 C 
ATOM     53  O   UNL     1       7.236   7.107  25.660  0.00  0.00    -0.276 OA
BRANCH  50  54
ATOM     54  C   UNL     1       5.982   5.124  23.935  0.00  0.00    +0.115 C 
BRANCH  54  55
ATOM     55  C   UNL     1       5.419   4.237  22.830  0.00  0.00    +0.096 C 
BRANCH  55  56
ATOM     56  S   UNL     1       4.252   3.022  23.480  0.00  0.00    -0.087 S 
BRANCH  56  57
ATOM     57  C   UNL     1       2.827   3.511  22.615  0.00  0.00    +0.189 C 
ATOM     58  O   UNL     1       2.910   4.106  21.550  0.00  0.00    -0.285 OA
BRANCH  57  59
ATOM     59  C   UNL     1       1.534   3.177  23.327  0.00  0.00    +0.086 C 
BRANCH  59  60
ATOM     60  C   UNL     1       1.618   3.566  24.793  0.00  0.00    +0.008 C 
BRANCH  60  61
ATOM     61  C   UNL     1       1.310   5.051  24.998  0.00  0.00    +0.000 C 
BRANCH  61  62
ATOM     62  C   UNL     1       0.461   5.244  26.246  0.00  0.00    +0.000 C 
BRANCH  62  63
ATOM     63  C   UNL     1       0.811   4.213  27.312  0.00  0.00    +0.000 C 
BRANCH  63  64
ATOM     64  C   UNL     1       1.146   4.916  28.621  0.00  0.00    +0.000 C 
BRANCH  64  65
ATOM     65  C   UNL     1       2.632   4.803  28.941  0.00  0.00    -0.000 C 
BRANCH  65  66
ATOM     66  C   UNL     1       3.377   6.039  28.449  0.00  0.00    -0.000 C 
BRANCH  66  67
ATOM     67  C   UNL     1       4.233   5.708  27.232  0.00  0.00    -0.000 C 
BRANCH  67  68
ATOM     68  C   UNL     1       4.832   4.308  27.350  0.00  0.00    -0.000 C 
BRANCH  68  69
ATOM     69  C   UNL     1       6.316   4.381  27.707  0.00  0.00    -0.000 C 
BRANCH  69  71
ATOM     70  C   UNL     1       7.185   5.840  29.559  0.00  0.00    +0.004 C 
ATOM     71  C   UNL     1       6.514   4.521  29.214  0.00  0.00    -0.003 C 
ENDBRANCH  69  71
ENDBRANCH  68  69
ENDBRANCH  67  68
ENDBRANCH  66  67
ENDBRANCH  65  66
ENDBRANCH  64  65
ENDBRANCH  63  64
ENDBRANCH  62  63
ENDBRANCH  61  62
ENDBRANCH  60  61
ENDBRANCH  59  60
ENDBRANCH  57  59
ENDBRANCH  56  57
ENDBRANCH  55  56
ENDBRANCH  54  55
ENDBRANCH  50  54
ENDBRANCH  49  52
ENDBRANCH  48  49
ENDBRANCH  44  48
ENDBRANCH  43  46
BRANCH  43  72
ATOM     72  O   UNL     1      10.340   1.452  22.167  0.00  0.00    -0.382 OA
ATOM     73  H   UNL     1      10.955   1.008  22.779  0.00  0.00    +0.210 HD
ENDBRANCH  43  72
ENDBRANCH  40  43
ENDBRANCH  39  40
ENDBRANCH  38  39
ENDBRANCH   1  38
TORSDOF 38
ENDMDL
