MODEL 1
REMARK VINA RESULT:      -6.3      0.000      0.000
REMARK  Name = 
REMARK  8 active torsions:
REMARK  status: ('A' for Active; 'I' for Inactive)
REMARK    1  A    between atoms: C_1  and  N_2
REMARK    2  A    between atoms: C_7  and  C_8
REMARK    3  A    between atoms: C_8  and  O_9
REMARK    4  A    between atoms: O_9  and  C_10
REMARK    5  A    between atoms: C_10  and  C_12
REMARK    6  A    between atoms: C_12  and  O_13
REMARK    7  A    between atoms: C_12  and  C_14
REMARK    8  A    between atoms: C_12  and  C_20
REMARK                            x       y       z     vdW  Elec       q    Type
REMARK                         _______ _______ _______ _____ _____    ______ ____
ROOT
ATOM      1  C   UNL     1       8.136  -1.827  24.122  0.00  0.00    +0.190 C 
ENDROOT
BRANCH   1   2
ATOM      2  C   UNL     1       7.620  -3.038  23.309  0.00  0.00    -0.005 A 
ATOM      3  C   UNL     1       8.021  -4.357  23.588  0.00  0.00    +0.007 A 
ATOM      4  C   UNL     1       7.529  -5.441  22.844  0.00  0.00    +0.000 A 
ATOM      5  C   UNL     1       6.614  -5.231  21.816  0.00  0.00    +0.000 A 
ATOM      6  C   UNL     1       6.178  -3.942  21.541  0.00  0.00    +0.000 A 
ATOM      7  C   UNL     1       6.669  -2.860  22.282  0.00  0.00    +0.007 A 
ENDBRANCH   1   2
BRANCH   1   8
ATOM      8  C   UNL     1       9.654  -1.457  23.891  0.00  0.00    +0.036 C 
ATOM      9  C   UNL     1      10.092  -0.084  24.462  0.00  0.00    +0.007 C 
ATOM     10  C   UNL     1       9.664   1.139  23.661  0.00  0.00    +0.000 C 
ATOM     11  C   UNL     1      10.046   1.024  22.195  0.00  0.00    +0.000 C 
ATOM     12  C   UNL     1       9.655  -0.315  21.584  0.00  0.00    +0.000 C 
ATOM     13  C   UNL     1      10.136  -1.494  22.423  0.00  0.00    +0.007 C 
ENDBRANCH   1   8
BRANCH   1  14
ATOM     14  C   UNL     1       7.936  -2.122  25.654  0.00  0.00    +0.345 C 
ATOM     15  O   UNL     1       8.735  -2.667  26.398  0.00  0.00    -0.247 OA
BRANCH  14  16
ATOM     16  O   UNL     1       6.704  -1.652  26.043  0.00  0.00    -0.450 OA
BRANCH  16  17
ATOM     17  C   UNL     1       5.913  -2.572  26.789  0.00  0.00    +0.359 C 
BRANCH  17  20
ATOM     18  C   UNL     1       6.681  -5.307  27.452  0.00  0.00    +0.276 C 
ATOM     19  N   UNL     1       5.700  -5.068  26.405  0.00  0.00    -0.224 N 
ATOM     20  C   UNL     1       5.301  -3.799  26.040  0.00  0.00    +0.320 C 
ATOM     21  N   UNL     1       4.474  -3.536  25.097  0.00  0.00    -0.084 NA
ATOM     22  C   UNL     1       3.841  -4.569  24.306  0.00  0.00    +0.294 C 
ATOM     23  C   UNL     1       4.213  -6.001  24.620  0.00  0.00    +0.093 C 
ATOM     24  C   UNL     1       5.260  -6.247  25.684  0.00  0.00    +0.229 C 
ENDBRANCH  17  20
ENDBRANCH  16  17
ENDBRANCH  14  16
ENDBRANCH   1  14
BRANCH   1  25
ATOM     25  O   UNL     1       7.320  -0.707  23.739  0.00  0.00    -0.373 OA
ATOM     26  H   UNL     1       6.479  -1.088  23.425  0.00  0.00    +0.211 HD
ENDBRANCH   1  25
TORSDOF 7
ENDMDL
MODEL 2
REMARK VINA RESULT:      -6.2      2.705      6.205
REMARK  Name = 
REMARK  8 active torsions:
REMARK  status: ('A' for Active; 'I' for Inactive)
REMARK    1  A    between atoms: C_1  and  N_2
REMARK    2  A    between atoms: C_7  and  C_8
REMARK    3  A    between atoms: C_8  and  O_9
REMARK    4  A    between atoms: O_9  and  C_10
REMARK    5  A    between atoms: C_10  and  C_12
REMARK    6  A    between atoms: C_12  and  O_13
REMARK    7  A    between atoms: C_12  and  C_14
REMARK    8  A    between atoms: C_12  and  C_20
REMARK                            x       y       z     vdW  Elec       q    Type
REMARK                         _______ _______ _______ _____ _____    ______ ____
ROOT
ATOM      1  C   UNL     1       7.694  -2.732  23.518  0.00  0.00    +0.190 C 
ENDROOT
BRANCH   1   2
ATOM      2  C   UNL     1       7.270  -1.583  24.463  0.00  0.00    -0.005 A 
ATOM      3  C   UNL     1       7.852  -1.397  25.729  0.00  0.00    +0.007 A 
ATOM      4  C   UNL     1       7.459  -0.339  26.564  0.00  0.00    +0.000 A 
ATOM      5  C   UNL     1       6.486   0.564  26.144  0.00  0.00    +0.000 A 
ATOM      6  C   UNL     1       5.917   0.421  24.885  0.00  0.00    +0.000 A 
ATOM      7  C   UNL     1       6.309  -0.635  24.053  0.00  0.00    +0.007 A 
ENDBRANCH   1   2
BRANCH   1   8
ATOM      8  C   UNL     1       7.403  -4.189  24.053  0.00  0.00    +0.036 C 
ATOM      9  C   UNL     1       7.578  -5.322  23.010  0.00  0.00    +0.007 C 
ATOM     10  C   UNL     1       6.458  -5.466  21.987  0.00  0.00    +0.000 C 
ATOM     11  C   UNL     1       5.091  -5.552  22.644  0.00  0.00    +0.000 C 
ATOM     12  C   UNL     1       4.869  -4.470  23.694  0.00  0.00    +0.000 C 
ATOM     13  C   UNL     1       6.014  -4.399  24.698  0.00  0.00    +0.007 C 
ENDBRANCH   1   8
BRANCH   1  14
ATOM     14  C   UNL     1       9.238  -2.617  23.241  0.00  0.00    +0.345 C 
ATOM     15  O   UNL     1      10.135  -3.066  23.936  0.00  0.00    -0.247 OA
BRANCH  14  16
ATOM     16  O   UNL     1       9.433  -1.930  22.066  0.00  0.00    -0.450 OA
BRANCH  16  17
ATOM     17  C   UNL     1      10.227  -0.753  22.176  0.00  0.00    +0.359 C 
BRANCH  17  20
ATOM     18  C   UNL     1      10.785   0.563  24.719  0.00  0.00    +0.276 C 
ATOM     19  N   UNL     1       9.832   1.158  23.794  0.00  0.00    -0.224 N 
ATOM     20  C   UNL     1       9.520   0.580  22.580  0.00  0.00    +0.320 C 
ATOM     21  N   UNL     1       8.658   1.042  21.752  0.00  0.00    -0.084 NA
ATOM     22  C   UNL     1       7.914   2.258  22.000  0.00  0.00    +0.294 C 
ATOM     23  C   UNL     1       8.176   2.971  23.308  0.00  0.00    +0.093 C 
ATOM     24  C   UNL     1       9.139   2.333  24.284  0.00  0.00    +0.229 C 
ENDBRANCH  17  20
ENDBRANCH  16  17
ENDBRANCH  14  16
ENDBRANCH   1  14
BRANCH   1  25
ATOM     25  O   UNL     1       6.972  -2.534  22.290  0.00  0.00    -0.373 OA
ATOM     26  H   UNL     1       7.167  -1.619  22.014  0.00  0.00    +0.211 HD
ENDBRANCH   1  25
TORSDOF 7
ENDMDL
MODEL 3
REMARK VINA RESULT:      -6.1      2.588      5.921
REMARK  Name = 
REMARK  8 active torsions:
REMARK  status: ('A' for Active; 'I' for Inactive)
REMARK    1  A    between atoms: C_1  and  N_2
REMARK    2  A    between atoms: C_7  and  C_8
REMARK    3  A    between atoms: C_8  and  O_9
REMARK    4  A    between atoms: O_9  and  C_10
REMARK    5  A    between atoms: C_10  and  C_12
REMARK    6  A    between atoms: C_12  and  O_13
REMARK    7  A    between atoms: C_12  and  C_14
REMARK    8  A    between atoms: C_12  and  C_20
REMARK                            x       y       z     vdW  Elec       q    Type
REMARK                         _______ _______ _______ _____ _____    ______ ____
ROOT
ATOM      1  C   UNL     1       8.884  -3.657  24.367  0.00  0.00    +0.190 C 
ENDROOT
BRANCH   1   2
ATOM      2  C   UNL     1       7.880  -4.139  23.293  0.00  0.00    -0.005 A 
ATOM      3  C   UNL     1       7.159  -3.246  22.482  0.00  0.00    +0.007 A 
ATOM      4  C   UNL     1       6.263  -3.708  21.505  0.00  0.00    +0.000 A 
ATOM      5  C   UNL     1       6.081  -5.074  21.309  0.00  0.00    +0.000 A 
ATOM      6  C   UNL     1       6.803  -5.979  22.076  0.00  0.00    +0.000 A 
ATOM      7  C   UNL     1       7.697  -5.517  23.051  0.00  0.00    +0.007 A 
ENDBRANCH   1   2
BRANCH   1   8
ATOM      8  C   UNL     1       8.242  -3.219  25.743  0.00  0.00    +0.036 C 
ATOM      9  C   UNL     1       8.389  -4.246  26.895  0.00  0.00    +0.007 C 
ATOM     10  C   UNL     1       7.460  -5.452  26.837  0.00  0.00    +0.000 C 
ATOM     11  C   UNL     1       6.006  -5.046  26.666  0.00  0.00    +0.000 C 
ATOM     12  C   UNL     1       5.803  -4.022  25.556  0.00  0.00    +0.000 C 
ATOM     13  C   UNL     1       6.747  -2.832  25.690  0.00  0.00    +0.007 C 
ENDBRANCH   1   8
BRANCH   1  14
ATOM     14  C   UNL     1       9.687  -2.432  23.796  0.00  0.00    +0.345 C 
ATOM     15  O   UNL     1      10.461  -2.448  22.852  0.00  0.00    -0.247 OA
BRANCH  14  16
ATOM     16  O   UNL     1       9.372  -1.310  24.525  0.00  0.00    -0.450 OA
BRANCH  16  17
ATOM     17  C   UNL     1      10.101  -0.137  24.178  0.00  0.00    +0.359 C 
BRANCH  17  20
ATOM     18  C   UNL     1       9.253   0.497  21.458  0.00  0.00    +0.276 C 
ATOM     19  N   UNL     1       8.919   1.403  22.547  0.00  0.00    -0.224 N 
ATOM     20  C   UNL     1       9.298   1.163  23.852  0.00  0.00    +0.320 C 
ATOM     21  N   UNL     1       9.065   1.951  24.836  0.00  0.00    -0.084 NA
ATOM     22  C   UNL     1       8.347   3.197  24.682  0.00  0.00    +0.294 C 
ATOM     23  C   UNL     1       7.890   3.561  23.287  0.00  0.00    +0.093 C 
ATOM     24  C   UNL     1       8.268   2.637  22.152  0.00  0.00    +0.229 C 
ENDBRANCH  17  20
ENDBRANCH  16  17
ENDBRANCH  14  16
ENDBRANCH   1  14
BRANCH   1  25
ATOM     25  O   UNL     1       9.784  -4.754  24.601  0.00  0.00    -0.373 OA
ATOM     26  H   UNL     1       9.218  -5.518  24.815  0.00  0.00    +0.211 HD
ENDBRANCH   1  25
TORSDOF 7
ENDMDL
MODEL 4
REMARK VINA RESULT:      -6.0      2.618      5.730
REMARK  Name = 
REMARK  8 active torsions:
REMARK  status: ('A' for Active; 'I' for Inactive)
REMARK    1  A    between atoms: C_1  and  N_2
REMARK    2  A    between atoms: C_7  and  C_8
REMARK    3  A    between atoms: C_8  and  O_9
REMARK    4  A    between atoms: O_9  and  C_10
REMARK    5  A    between atoms: C_10  and  C_12
REMARK    6  A    between atoms: C_12  and  O_13
REMARK    7  A    between atoms: C_12  and  C_14
REMARK    8  A    between atoms: C_12  and  C_20
REMARK                            x       y       z     vdW  Elec       q    Type
REMARK                         _______ _______ _______ _____ _____    ______ ____
ROOT
ATOM      1  C   UNL     1       8.974  -3.556  24.267  0.00  0.00    +0.190 C 
ENDROOT
BRANCH   1   2
ATOM      2  C   UNL     1       7.967  -4.084  23.218  0.00  0.00    -0.005 A 
ATOM      3  C   UNL     1       7.749  -5.458  23.009  0.00  0.00    +0.007 A 
ATOM      4  C   UNL     1       6.821  -5.912  22.060  0.00  0.00    +0.000 A 
ATOM      5  C   UNL     1       6.079  -5.004  21.310  0.00  0.00    +0.000 A 
ATOM      6  C   UNL     1       6.253  -3.641  21.518  0.00  0.00    +0.000 A 
ATOM      7  C   UNL     1       7.180  -3.188  22.465  0.00  0.00    +0.007 A 
ENDBRANCH   1   2
BRANCH   1   8
ATOM      8  C   UNL     1       8.340  -3.089  25.636  0.00  0.00    +0.036 C 
ATOM      9  C   UNL     1       8.629  -4.013  26.846  0.00  0.00    +0.007 C 
ATOM     10  C   UNL     1       7.825  -5.306  26.907  0.00  0.00    +0.000 C 
ATOM     11  C   UNL     1       6.332  -5.058  26.770  0.00  0.00    +0.000 C 
ATOM     12  C   UNL     1       5.989  -4.139  25.604  0.00  0.00    +0.000 C 
ATOM     13  C   UNL     1       6.812  -2.855  25.620  0.00  0.00    +0.007 C 
ENDBRANCH   1   8
BRANCH   1  14
ATOM     14  C   UNL     1       9.754  -2.337  23.653  0.00  0.00    +0.345 C 
ATOM     15  O   UNL     1      10.444  -2.349  22.647  0.00  0.00    -0.247 OA
BRANCH  14  16
ATOM     16  O   UNL     1       9.526  -1.223  24.427  0.00  0.00    -0.450 OA
BRANCH  16  17
ATOM     17  C   UNL     1       9.988   0.005  23.874  0.00  0.00    +0.359 C 
BRANCH  17  20
ATOM     18  C   UNL     1      10.605   2.832  23.497  0.00  0.00    +0.276 C 
ATOM     19  N   UNL     1       9.285   2.329  23.146  0.00  0.00    -0.224 N 
ATOM     20  C   UNL     1       8.930   1.005  23.308  0.00  0.00    +0.320 C 
ATOM     21  N   UNL     1       7.769   0.524  23.055  0.00  0.00    -0.084 NA
ATOM     22  C   UNL     1       6.686   1.334  22.542  0.00  0.00    +0.294 C 
ATOM     23  C   UNL     1       6.966   2.806  22.332  0.00  0.00    +0.093 C 
ATOM     24  C   UNL     1       8.326   3.334  22.730  0.00  0.00    +0.229 C 
ENDBRANCH  17  20
ENDBRANCH  16  17
ENDBRANCH  14  16
ENDBRANCH   1  14
BRANCH   1  25
ATOM     25  O   UNL     1       9.893  -4.633  24.523  0.00  0.00    -0.373 OA
ATOM     26  H   UNL     1       9.601  -5.369  23.955  0.00  0.00    +0.211 HD
ENDBRANCH   1  25
TORSDOF 7
ENDMDL
MODEL 5
REMARK VINA RESULT:      -5.7      1.487      2.057
REMARK  Name = 
REMARK  8 active torsions:
REMARK  status: ('A' for Active; 'I' for Inactive)
REMARK    1  A    between atoms: C_1  and  N_2
REMARK    2  A    between atoms: C_7  and  C_8
REMARK    3  A    between atoms: C_8  and  O_9
REMARK    4  A    between atoms: O_9  and  C_10
REMARK    5  A    between atoms: C_10  and  C_12
REMARK    6  A    between atoms: C_12  and  O_13
REMARK    7  A    between atoms: C_12  and  C_14
REMARK    8  A    between atoms: C_12  and  C_20
REMARK                            x       y       z     vdW  Elec       q    Type
REMARK                         _______ _______ _______ _____ _____    ______ ____
ROOT
ATOM      1  C   UNL     1       7.664  -1.467  24.369  0.00  0.00    +0.190 C 
ENDROOT
BRANCH   1   2
ATOM      2  C   UNL     1       8.154  -2.888  24.736  0.00  0.00    -0.005 A 
ATOM      3  C   UNL     1       8.639  -3.210  26.016  0.00  0.00    +0.007 A 
ATOM      4  C   UNL     1       9.065  -4.510  26.329  0.00  0.00    +0.000 A 
ATOM      5  C   UNL     1       9.002  -5.520  25.373  0.00  0.00    +0.000 A 
ATOM      6  C   UNL     1       8.498  -5.236  24.110  0.00  0.00    +0.000 A 
ATOM      7  C   UNL     1       8.073  -3.938  23.798  0.00  0.00    +0.007 A 
ENDBRANCH   1   2
BRANCH   1   8
ATOM      8  C   UNL     1       8.790  -0.361  24.306  0.00  0.00    +0.036 C 
ATOM      9  C   UNL     1       8.346   1.000  23.711  0.00  0.00    +0.007 C 
ATOM     10  C   UNL     1       8.201   1.049  22.195  0.00  0.00    +0.000 C 
ATOM     11  C   UNL     1       9.443   0.537  21.485  0.00  0.00    +0.000 C 
ATOM     12  C   UNL     1       9.937  -0.793  22.042  0.00  0.00    +0.000 C 
ATOM     13  C   UNL     1      10.082  -0.763  23.560  0.00  0.00    +0.007 C 
ENDBRANCH   1   8
BRANCH   1  14
ATOM     14  C   UNL     1       6.595  -1.010  25.428  0.00  0.00    +0.345 C 
ATOM     15  O   UNL     1       6.820  -0.524  26.524  0.00  0.00    -0.247 OA
BRANCH  14  16
ATOM     16  O   UNL     1       5.337  -1.232  24.918  0.00  0.00    -0.450 OA
BRANCH  16  17
ATOM     17  C   UNL     1       4.567  -2.209  25.610  0.00  0.00    +0.359 C 
BRANCH  17  20
ATOM     18  C   UNL     1       5.420  -4.305  27.453  0.00  0.00    +0.276 C 
ATOM     19  N   UNL     1       5.086  -4.646  26.078  0.00  0.00    -0.224 N 
ATOM     20  C   UNL     1       4.684  -3.700  25.157  0.00  0.00    +0.320 C 
ATOM     21  N   UNL     1       4.421  -3.944  23.927  0.00  0.00    -0.084 NA
ATOM     22  C   UNL     1       4.503  -5.274  23.363  0.00  0.00    +0.294 C 
ATOM     23  C   UNL     1       4.941  -6.388  24.287  0.00  0.00    +0.093 C 
ATOM     24  C   UNL     1       5.322  -6.027  25.705  0.00  0.00    +0.229 C 
ENDBRANCH  17  20
ENDBRANCH  16  17
ENDBRANCH  14  16
ENDBRANCH   1  14
BRANCH   1  25
ATOM     25  O   UNL     1       7.044  -1.574  23.076  0.00  0.00    -0.373 OA
ATOM     26  H   UNL     1       7.484  -0.908  22.517  0.00  0.00    +0.211 HD
ENDBRANCH   1  25
TORSDOF 7
ENDMDL
MODEL 6
REMARK VINA RESULT:      -5.6      2.446      4.005
REMARK  Name = 
REMARK  8 active torsions:
REMARK  status: ('A' for Active; 'I' for Inactive)
REMARK    1  A    between atoms: C_1  and  N_2
REMARK    2  A    between atoms: C_7  and  C_8
REMARK    3  A    between atoms: C_8  and  O_9
REMARK    4  A    between atoms: O_9  and  C_10
REMARK    5  A    between atoms: C_10  and  C_12
REMARK    6  A    between atoms: C_12  and  O_13
REMARK    7  A    between atoms: C_12  and  C_14
REMARK    8  A    between atoms: C_12  and  C_20
REMARK                            x       y       z     vdW  Elec       q    Type
REMARK                         _______ _______ _______ _____ _____    ______ ____
ROOT
ATOM      1  C   UNL     1       9.727   0.453  24.024  0.00  0.00    +0.190 C 
ENDROOT
BRANCH   1   2
ATOM      2  C   UNL     1       8.270   0.483  24.542  0.00  0.00    -0.005 A 
ATOM      3  C   UNL     1       7.257  -0.321  23.989  0.00  0.00    +0.007 A 
ATOM      4  C   UNL     1       5.945  -0.285  24.485  0.00  0.00    +0.000 A 
ATOM      5  C   UNL     1       5.620   0.545  25.554  0.00  0.00    +0.000 A 
ATOM      6  C   UNL     1       6.607   1.327  26.139  0.00  0.00    +0.000 A 
ATOM      7  C   UNL     1       7.917   1.291  25.644  0.00  0.00    +0.007 A 
ENDBRANCH   1   2
BRANCH   1   8
ATOM      8  C   UNL     1      10.057   1.487  22.876  0.00  0.00    +0.036 C 
ATOM      9  C   UNL     1      10.570   2.867  23.360  0.00  0.00    +0.007 C 
ATOM     10  C   UNL     1       9.514   3.813  23.918  0.00  0.00    +0.000 C 
ATOM     11  C   UNL     1       8.339   3.983  22.970  0.00  0.00    +0.000 C 
ATOM     12  C   UNL     1       7.804   2.655  22.447  0.00  0.00    +0.000 C 
ATOM     13  C   UNL     1       8.910   1.770  21.881  0.00  0.00    +0.007 C 
ENDBRANCH   1   8
BRANCH   1  14
ATOM     14  C   UNL     1      10.042  -0.990  23.483  0.00  0.00    +0.345 C 
ATOM     15  O   UNL     1      10.367  -1.283  22.344  0.00  0.00    -0.247 OA
BRANCH  14  16
ATOM     16  O   UNL     1       9.908  -1.893  24.511  0.00  0.00    -0.450 OA
BRANCH  16  17
ATOM     17  C   UNL     1       9.786  -3.254  24.110  0.00  0.00    +0.359 C 
BRANCH  17  20
ATOM     18  C   UNL     1       8.691  -4.730  26.377  0.00  0.00    +0.276 C 
ATOM     19  N   UNL     1       7.893  -4.564  25.171  0.00  0.00    -0.224 N 
ATOM     20  C   UNL     1       8.357  -3.885  24.063  0.00  0.00    +0.320 C 
ATOM     21  N   UNL     1       7.710  -3.749  22.965  0.00  0.00    -0.084 NA
ATOM     22  C   UNL     1       6.384  -4.294  22.771  0.00  0.00    +0.294 C 
ATOM     23  C   UNL     1       5.781  -5.066  23.924  0.00  0.00    +0.093 C 
ATOM     24  C   UNL     1       6.625  -5.267  25.163  0.00  0.00    +0.229 C 
ENDBRANCH  17  20
ENDBRANCH  16  17
ENDBRANCH  14  16
ENDBRANCH   1  14
BRANCH   1  25
ATOM     25  O   UNL     1      10.565   0.733  25.159  0.00  0.00    -0.373 OA
ATOM     26  H   UNL     1      10.761  -0.133  25.562  0.00  0.00    +0.211 HD
ENDBRANCH   1  25
TORSDOF 7
ENDMDL
MODEL 7
REMARK VINA RESULT:      -5.6      3.285      6.696
REMARK  Name = 
REMARK  8 active torsions:
REMARK  status: ('A' for Active; 'I' for Inactive)
REMARK    1  A    between atoms: C_1  and  N_2
REMARK    2  A    between atoms: C_7  and  C_8
REMARK    3  A    between atoms: C_8  and  O_9
REMARK    4  A    between atoms: O_9  and  C_10
REMARK    5  A    between atoms: C_10  and  C_12
REMARK    6  A    between atoms: C_12  and  O_13
REMARK    7  A    between atoms: C_12  and  C_14
REMARK    8  A    between atoms: C_12  and  C_20
REMARK                            x       y       z     vdW  Elec       q    Type
REMARK                         _______ _______ _______ _____ _____    ______ ____
ROOT
ATOM      1  C   UNL     1       8.249  -1.347  24.127  0.00  0.00    +0.190 C 
ENDROOT
BRANCH   1   2
ATOM      2  C   UNL     1       7.455  -0.157  24.716  0.00  0.00    -0.005 A 
ATOM      3  C   UNL     1       6.082   0.025  24.474  0.00  0.00    +0.007 A 
ATOM      4  C   UNL     1       5.380   1.106  25.031  0.00  0.00    +0.000 A 
ATOM      5  C   UNL     1       6.033   2.019  25.855  0.00  0.00    +0.000 A 
ATOM      6  C   UNL     1       7.382   1.845  26.135  0.00  0.00    +0.000 A 
ATOM      7  C   UNL     1       8.082   0.767  25.579  0.00  0.00    +0.007 A 
ENDBRANCH   1   2
BRANCH   1   8
ATOM      8  C   UNL     1       8.785  -2.391  25.184  0.00  0.00    +0.036 C 
ATOM      9  C   UNL     1       9.234  -3.753  24.596  0.00  0.00    +0.007 C 
ATOM     10  C   UNL     1       8.117  -4.712  24.204  0.00  0.00    +0.000 C 
ATOM     11  C   UNL     1       7.120  -4.920  25.332  0.00  0.00    +0.000 C 
ATOM     12  C   UNL     1       6.656  -3.613  25.961  0.00  0.00    +0.000 C 
ATOM     13  C   UNL     1       7.825  -2.714  26.351  0.00  0.00    +0.007 C 
ENDBRANCH   1   8
BRANCH   1  14
ATOM     14  C   UNL     1       9.483  -0.787  23.329  0.00  0.00    +0.345 C 
ATOM     15  O   UNL     1      10.626  -0.680  23.742  0.00  0.00    -0.247 OA
BRANCH  14  16
ATOM     16  O   UNL     1       9.077  -0.439  22.062  0.00  0.00    -0.450 OA
BRANCH  16  17
ATOM     17  C   UNL     1       9.475   0.859  21.633  0.00  0.00    +0.359 C 
BRANCH  17  20
ATOM     18  C   UNL     1      10.631   2.880  23.392  0.00  0.00    +0.276 C 
ATOM     19  N   UNL     1       9.251   3.013  22.951  0.00  0.00    -0.224 N 
ATOM     20  C   UNL     1       8.644   2.087  22.127  0.00  0.00    +0.320 C 
ATOM     21  N   UNL     1       7.422   2.138  21.747  0.00  0.00    -0.084 NA
ATOM     22  C   UNL     1       6.528   3.207  22.139  0.00  0.00    +0.294 C 
ATOM     23  C   UNL     1       7.091   4.275  23.050  0.00  0.00    +0.093 C 
ATOM     24  C   UNL     1       8.515   4.117  23.535  0.00  0.00    +0.229 C 
ENDBRANCH  17  20
ENDBRANCH  16  17
ENDBRANCH  14  16
ENDBRANCH   1  14
BRANCH   1  25
ATOM     25  O   UNL     1       7.356  -2.018  23.220  0.00  0.00    -0.373 OA
ATOM     26  H   UNL     1       6.457  -1.806  23.530  0.00  0.00    +0.211 HD
ENDBRANCH   1  25
TORSDOF 7
ENDMDL
MODEL 8
REMARK VINA RESULT:      -5.5      1.777      3.663
REMARK  Name = 
REMARK  8 active torsions:
REMARK  status: ('A' for Active; 'I' for Inactive)
REMARK    1  A    between atoms: C_1  and  N_2
REMARK    2  A    between atoms: C_7  and  C_8
REMARK    3  A    between atoms: C_8  and  O_9
REMARK    4  A    between atoms: O_9  and  C_10
REMARK    5  A    between atoms: C_10  and  C_12
REMARK    6  A    between atoms: C_12  and  O_13
REMARK    7  A    between atoms: C_12  and  C_14
REMARK    8  A    between atoms: C_12  and  C_20
REMARK                            x       y       z     vdW  Elec       q    Type
REMARK                         _______ _______ _______ _____ _____    ______ ____
ROOT
ATOM      1  C   UNL     1       8.270  -1.064  23.712  0.00  0.00    +0.190 C 
ENDROOT
BRANCH   1   2
ATOM      2  C   UNL     1       7.215  -1.041  24.844  0.00  0.00    -0.005 A 
ATOM      3  C   UNL     1       5.912  -1.540  24.668  0.00  0.00    +0.007 A 
ATOM      4  C   UNL     1       4.976  -1.520  25.714  0.00  0.00    +0.000 A 
ATOM      5  C   UNL     1       5.328  -1.015  26.963  0.00  0.00    +0.000 A 
ATOM      6  C   UNL     1       6.618  -0.545  27.172  0.00  0.00    +0.000 A 
ATOM      7  C   UNL     1       7.551  -0.564  26.129  0.00  0.00    +0.007 A 
ENDBRANCH   1   2
BRANCH   1   8
ATOM      8  C   UNL     1       7.971  -0.107  22.492  0.00  0.00    +0.036 C 
ATOM      9  C   UNL     1       9.208   0.286  21.644  0.00  0.00    +0.007 C 
ATOM     10  C   UNL     1      10.128   1.337  22.252  0.00  0.00    +0.000 C 
ATOM     11  C   UNL     1       9.368   2.577  22.693  0.00  0.00    +0.000 C 
ATOM     12  C   UNL     1       8.129   2.250  23.518  0.00  0.00    +0.000 C 
ATOM     13  C   UNL     1       7.242   1.211  22.838  0.00  0.00    +0.007 C 
ENDBRANCH   1   8
BRANCH   1  14
ATOM     14  C   UNL     1       8.389  -2.531  23.160  0.00  0.00    +0.345 C 
ATOM     15  O   UNL     1       7.941  -2.948  22.105  0.00  0.00    -0.247 OA
BRANCH  14  16
ATOM     16  O   UNL     1       9.102  -3.291  24.058  0.00  0.00    -0.450 OA
BRANCH  16  17
ATOM     17  C   UNL     1       8.591  -4.601  24.283  0.00  0.00    +0.359 C 
BRANCH  17  20
ATOM     18  C   UNL     1       6.021  -5.615  23.346  0.00  0.00    +0.276 C 
ATOM     19  N   UNL     1       6.187  -5.256  24.746  0.00  0.00    -0.224 N 
ATOM     20  C   UNL     1       7.374  -4.764  25.249  0.00  0.00    +0.320 C 
ATOM     21  N   UNL     1       7.557  -4.395  26.462  0.00  0.00    -0.084 NA
ATOM     22  C   UNL     1       6.516  -4.473  27.464  0.00  0.00    +0.294 C 
ATOM     23  C   UNL     1       5.168  -4.995  27.018  0.00  0.00    +0.093 C 
ATOM     24  C   UNL     1       4.986  -5.333  25.555  0.00  0.00    +0.229 C 
ENDBRANCH  17  20
ENDBRANCH  16  17
ENDBRANCH  14  16
ENDBRANCH   1  14
BRANCH   1  25
ATOM     25  O   UNL     1       9.517  -0.675  24.315  0.00  0.00    -0.373 OA
ATOM     26  H   UNL     1       9.446   0.284  24.471  0.00  0.00    +0.211 HD
ENDBRANCH   1  25
TORSDOF 7
ENDMDL
MODEL 9
REMARK VINA RESULT:      -5.5      2.068      5.939
REMARK  Name = 
REMARK  8 active torsions:
REMARK  status: ('A' for Active; 'I' for Inactive)
REMARK    1  A    between atoms: C_1  and  N_2
REMARK    2  A    between atoms: C_7  and  C_8
REMARK    3  A    between atoms: C_8  and  O_9
REMARK    4  A    between atoms: O_9  and  C_10
REMARK    5  A    between atoms: C_10  and  C_12
REMARK    6  A    between atoms: C_12  and  O_13
REMARK    7  A    between atoms: C_12  and  C_14
REMARK    8  A    between atoms: C_12  and  C_20
REMARK                            x       y       z     vdW  Elec       q    Type
REMARK                         _______ _______ _______ _____ _____    ______ ____
ROOT
ATOM      1  C   UNL     1       6.619  -3.748  26.009  0.00  0.00    +0.190 C 
ENDROOT
BRANCH   1   2
ATOM      2  C   UNL     1       6.514  -3.819  24.467  0.00  0.00    -0.005 A 
ATOM      3  C   UNL     1       5.809  -2.862  23.716  0.00  0.00    +0.007 A 
ATOM      4  C   UNL     1       5.738  -2.940  22.316  0.00  0.00    +0.000 A 
ATOM      5  C   UNL     1       6.384  -3.969  21.636  0.00  0.00    +0.000 A 
ATOM      6  C   UNL     1       7.113  -4.911  22.351  0.00  0.00    +0.000 A 
ATOM      7  C   UNL     1       7.182  -4.832  23.748  0.00  0.00    +0.007 A 
ENDBRANCH   1   2
BRANCH   1   8
ATOM      8  C   UNL     1       5.282  -4.056  26.791  0.00  0.00    +0.036 C 
ATOM      9  C   UNL     1       5.463  -4.436  28.283  0.00  0.00    +0.007 C 
ATOM     10  C   UNL     1       5.958  -5.851  28.556  0.00  0.00    +0.000 C 
ATOM     11  C   UNL     1       5.123  -6.897  27.837  0.00  0.00    +0.000 C 
ATOM     12  C   UNL     1       4.897  -6.566  26.367  0.00  0.00    +0.000 C 
ATOM     13  C   UNL     1       4.379  -5.145  26.170  0.00  0.00    +0.007 C 
ENDBRANCH   1   8
BRANCH   1  14
ATOM     14  C   UNL     1       7.100  -2.308  26.418  0.00  0.00    +0.345 C 
ATOM     15  O   UNL     1       6.393  -1.386  26.792  0.00  0.00    -0.247 OA
BRANCH  14  16
ATOM     16  O   UNL     1       8.468  -2.243  26.303  0.00  0.00    -0.450 OA
BRANCH  16  17
ATOM     17  C   UNL     1       8.982  -0.985  25.876  0.00  0.00    +0.359 C 
BRANCH  17  20
ATOM     18  C   UNL     1       8.768   1.693  24.738  0.00  0.00    +0.276 C 
ATOM     19  N   UNL     1       9.033   0.559  23.866  0.00  0.00    -0.224 N 
ATOM     20  C   UNL     1       9.137  -0.733  24.342  0.00  0.00    +0.320 C 
ATOM     21  N   UNL     1       9.327  -1.768  23.611  0.00  0.00    -0.084 NA
ATOM     22  C   UNL     1       9.473  -1.689  22.173  0.00  0.00    +0.294 C 
ATOM     23  C   UNL     1       9.369  -0.317  21.545  0.00  0.00    +0.093 C 
ATOM     24  C   UNL     1       9.058   0.857  22.448  0.00  0.00    +0.229 C 
ENDBRANCH  17  20
ENDBRANCH  16  17
ENDBRANCH  14  16
ENDBRANCH   1  14
BRANCH   1  25
ATOM     25  O   UNL     1       7.615  -4.713  26.390  0.00  0.00    -0.373 OA
ATOM     26  H   UNL     1       7.685  -5.330  25.639  0.00  0.00    +0.211 HD
ENDBRANCH   1  25
TORSDOF 7
ENDMDL
