MODEL 1
REMARK VINA RESULT:      -4.9      0.000      0.000
REMARK  Name = 
REMARK  5 active torsions:
REMARK  status: ('A' for Active; 'I' for Inactive)
REMARK    1  A    between atoms: C_1  and  C_2
REMARK    2  A    between atoms: C_2  and  C_4
REMARK    3  A    between atoms: C_4  and  N_5
REMARK    4  A    between atoms: C_4  and  C_6
REMARK    5  A    between atoms: C_6  and  C_7
REMARK                            x       y       z     vdW  Elec       q    Type
REMARK                         _______ _______ _______ _____ _____    ______ ____
ROOT
ATOM      1  C   UNL     1       9.198  -2.567  23.835  0.00  0.00    +0.122 C 
ENDROOT
BRANCH   1   3
ATOM      2  C   UNL     1       6.832  -1.836  23.073  0.00  0.00    +0.087 C 
ATOM      3  C   UNL     1       7.887  -2.911  23.112  0.00  0.00    +0.147 C 
ATOM      4  O   UNL     1       7.682  -4.032  22.640  0.00  0.00    -0.296 OA
ENDBRANCH   1   3
BRANCH   1   5
ATOM      5  N   UNL     1       9.763  -3.814  24.399  0.00  0.00    -0.321 NA
ATOM      6  H   UNL     1      10.768  -3.693  24.528  0.00  0.00    +0.119 HD
ATOM      7  H   UNL     1       9.394  -3.914  25.350  0.00  0.00    +0.119 HD
ENDBRANCH   1   5
BRANCH   1   8
ATOM      8  C   UNL     1      10.198  -1.913  22.866  0.00  0.00    +0.061 C 
BRANCH   8   9
ATOM      9  C   UNL     1      10.170  -0.402  22.931  0.00  0.00    -0.045 A 
ATOM     10  C   UNL     1      10.586   0.262  24.094  0.00  0.00    +0.004 A 
ATOM     11  C   UNL     1      10.638   1.656  24.132  0.00  0.00    +0.000 A 
ATOM     12  C   UNL     1      10.275   2.398  23.009  0.00  0.00    +0.000 A 
ATOM     13  C   UNL     1       9.835   1.749  21.858  0.00  0.00    +0.000 A 
ATOM     14  C   UNL     1       9.768   0.356  21.823  0.00  0.00    +0.004 A 
ENDBRANCH   8   9
ENDBRANCH   1   8
TORSDOF 4
ENDMDL
MODEL 2
REMARK VINA RESULT:      -4.9      0.083      1.396
REMARK  Name = 
REMARK  5 active torsions:
REMARK  status: ('A' for Active; 'I' for Inactive)
REMARK    1  A    between atoms: C_1  and  C_2
REMARK    2  A    between atoms: C_2  and  C_4
REMARK    3  A    between atoms: C_4  and  N_5
REMARK    4  A    between atoms: C_4  and  C_6
REMARK    5  A    between atoms: C_6  and  C_7
REMARK                            x       y       z     vdW  Elec       q    Type
REMARK                         _______ _______ _______ _____ _____    ______ ____
ROOT
ATOM      1  C   UNL     1       9.179  -2.529  23.806  0.00  0.00    +0.122 C 
ENDROOT
BRANCH   1   3
ATOM      2  C   UNL     1       6.821  -1.756  23.058  0.00  0.00    +0.087 C 
ATOM      3  C   UNL     1       7.865  -2.842  23.073  0.00  0.00    +0.147 C 
ATOM      4  O   UNL     1       7.650  -3.950  22.574  0.00  0.00    -0.296 OA
ENDBRANCH   1   3
BRANCH   1   5
ATOM      5  N   UNL     1       9.702  -3.786  24.387  0.00  0.00    -0.321 NA
ATOM      6  H   UNL     1       8.935  -4.453  24.478  0.00  0.00    +0.119 HD
ATOM      7  H   UNL     1      10.325  -4.207  23.690  0.00  0.00    +0.119 HD
ENDBRANCH   1   5
BRANCH   1   8
ATOM      8  C   UNL     1      10.206  -1.912  22.842  0.00  0.00    +0.061 C 
BRANCH   8   9
ATOM      9  C   UNL     1      10.232  -0.401  22.905  0.00  0.00    -0.045 A 
ATOM     10  C   UNL     1       9.803   0.358  21.808  0.00  0.00    +0.004 A 
ATOM     11  C   UNL     1       9.749   1.750  21.890  0.00  0.00    +0.000 A 
ATOM     12  C   UNL     1      10.123   2.394  23.067  0.00  0.00    +0.000 A 
ATOM     13  C   UNL     1      10.577   1.651  24.155  0.00  0.00    +0.000 A 
ATOM     14  C   UNL     1      10.645   0.260  24.070  0.00  0.00    +0.004 A 
ENDBRANCH   8   9
ENDBRANCH   1   8
TORSDOF 4
ENDMDL
MODEL 3
REMARK VINA RESULT:      -4.8      2.622      3.318
REMARK  Name = 
REMARK  5 active torsions:
REMARK  status: ('A' for Active; 'I' for Inactive)
REMARK    1  A    between atoms: C_1  and  C_2
REMARK    2  A    between atoms: C_2  and  C_4
REMARK    3  A    between atoms: C_4  and  N_5
REMARK    4  A    between atoms: C_4  and  C_6
REMARK    5  A    between atoms: C_6  and  C_7
REMARK                            x       y       z     vdW  Elec       q    Type
REMARK                         _______ _______ _______ _____ _____    ______ ____
ROOT
ATOM      1  C   UNL     1       9.075  -4.631  25.831  0.00  0.00    +0.122 C 
ENDROOT
BRANCH   1   3
ATOM      2  C   UNL     1       6.597  -5.279  25.433  0.00  0.00    +0.087 C 
ATOM      3  C   UNL     1       7.783  -5.270  26.363  0.00  0.00    +0.147 C 
ATOM      4  O   UNL     1       7.699  -5.698  27.517  0.00  0.00    -0.296 OA
ENDBRANCH   1   3
BRANCH   1   5
ATOM      5  N   UNL     1      10.088  -5.697  25.660  0.00  0.00    -0.321 NA
ATOM      6  H   UNL     1       9.751  -6.365  24.966  0.00  0.00    +0.119 HD
ATOM      7  H   UNL     1      10.910  -5.268  25.222  0.00  0.00    +0.119 HD
ENDBRANCH   1   5
BRANCH   1   8
ATOM      8  C   UNL     1       8.816  -3.914  24.495  0.00  0.00    +0.061 C 
BRANCH   8   9
ATOM      9  C   UNL     1       9.166  -2.443  24.545  0.00  0.00    -0.045 A 
ATOM     10  C   UNL     1       8.768  -1.660  25.637  0.00  0.00    +0.004 A 
ATOM     11  C   UNL     1       9.157  -0.323  25.727  0.00  0.00    +0.000 A 
ATOM     12  C   UNL     1       9.947   0.242  24.728  0.00  0.00    +0.000 A 
ATOM     13  C   UNL     1      10.326  -0.520  23.625  0.00  0.00    +0.000 A 
ATOM     14  C   UNL     1       9.926  -1.853  23.526  0.00  0.00    +0.004 A 
ENDBRANCH   8   9
ENDBRANCH   1   8
TORSDOF 4
ENDMDL
MODEL 4
REMARK VINA RESULT:      -4.7      1.227      1.371
REMARK  Name = 
REMARK  5 active torsions:
REMARK  status: ('A' for Active; 'I' for Inactive)
REMARK    1  A    between atoms: C_1  and  C_2
REMARK    2  A    between atoms: C_2  and  C_4
REMARK    3  A    between atoms: C_4  and  N_5
REMARK    4  A    between atoms: C_4  and  C_6
REMARK    5  A    between atoms: C_6  and  C_7
REMARK                            x       y       z     vdW  Elec       q    Type
REMARK                         _______ _______ _______ _____ _____    ______ ____
ROOT
ATOM      1  C   UNL     1       8.627  -2.955  24.361  0.00  0.00    +0.122 C 
ENDROOT
BRANCH   1   3
ATOM      2  C   UNL     1       7.119  -3.875  22.465  0.00  0.00    +0.087 C 
ATOM      3  C   UNL     1       8.123  -4.160  23.552  0.00  0.00    +0.147 C 
ATOM      4  O   UNL     1       8.475  -5.312  23.818  0.00  0.00    -0.296 OA
ENDBRANCH   1   3
BRANCH   1   5
ATOM      5  N   UNL     1       8.760  -3.366  25.778  0.00  0.00    -0.321 NA
ATOM      6  H   UNL     1       7.836  -3.597  26.144  0.00  0.00    +0.119 HD
ATOM      7  H   UNL     1       9.270  -4.256  25.790  0.00  0.00    +0.119 HD
ENDBRANCH   1   5
BRANCH   1   8
ATOM      8  C   UNL     1       9.977  -2.459  23.815  0.00  0.00    +0.061 C 
BRANCH   8   9
ATOM      9  C   UNL     1       9.890  -1.071  23.219  0.00  0.00    -0.045 A 
ATOM     10  C   UNL     1      10.354   0.036  23.942  0.00  0.00    +0.004 A 
ATOM     11  C   UNL     1      10.351   1.307  23.367  0.00  0.00    +0.000 A 
ATOM     12  C   UNL     1       9.885   1.482  22.065  0.00  0.00    +0.000 A 
ATOM     13  C   UNL     1       9.397   0.392  21.347  0.00  0.00    +0.000 A 
ATOM     14  C   UNL     1       9.386  -0.877  21.926  0.00  0.00    +0.004 A 
ENDBRANCH   8   9
ENDBRANCH   1   8
TORSDOF 4
ENDMDL
MODEL 5
REMARK VINA RESULT:      -4.6      2.784      4.908
REMARK  Name = 
REMARK  5 active torsions:
REMARK  status: ('A' for Active; 'I' for Inactive)
REMARK    1  A    between atoms: C_1  and  C_2
REMARK    2  A    between atoms: C_2  and  C_4
REMARK    3  A    between atoms: C_4  and  N_5
REMARK    4  A    between atoms: C_4  and  C_6
REMARK    5  A    between atoms: C_6  and  C_7
REMARK                            x       y       z     vdW  Elec       q    Type
REMARK                         _______ _______ _______ _____ _____    ______ ____
ROOT
ATOM      1  C   UNL     1       9.451   0.918  22.536  0.00  0.00    +0.122 C 
ENDROOT
BRANCH   1   3
ATOM      2  C   UNL     1       9.088   2.427  24.613  0.00  0.00    +0.087 C 
ATOM      3  C   UNL     1       9.953   1.419  23.900  0.00  0.00    +0.147 C 
ATOM      4  O   UNL     1      11.040   1.062  24.361  0.00  0.00    -0.296 OA
ENDBRANCH   1   3
BRANCH   1   5
ATOM      5  N   UNL     1       9.757   1.948  21.518  0.00  0.00    -0.321 NA
ATOM      6  H   UNL     1      10.266   2.713  21.963  0.00  0.00    +0.119 HD
ATOM      7  H   UNL     1      10.432   1.539  20.864  0.00  0.00    +0.119 HD
ENDBRANCH   1   5
BRANCH   1   8
ATOM      8  C   UNL     1      10.119  -0.418  22.169  0.00  0.00    +0.061 C 
BRANCH   8   9
ATOM      9  C   UNL     1       9.407  -1.610  22.768  0.00  0.00    -0.045 A 
ATOM     10  C   UNL     1       8.217  -2.081  22.196  0.00  0.00    +0.004 A 
ATOM     11  C   UNL     1       7.599  -3.228  22.695  0.00  0.00    +0.000 A 
ATOM     12  C   UNL     1       8.164  -3.914  23.768  0.00  0.00    +0.000 A 
ATOM     13  C   UNL     1       9.333  -3.440  24.361  0.00  0.00    +0.000 A 
ATOM     14  C   UNL     1       9.944  -2.284  23.872  0.00  0.00    +0.004 A 
ENDBRANCH   8   9
ENDBRANCH   1   8
TORSDOF 4
ENDMDL
MODEL 6
REMARK VINA RESULT:      -4.6      2.702      4.675
REMARK  Name = 
REMARK  5 active torsions:
REMARK  status: ('A' for Active; 'I' for Inactive)
REMARK    1  A    between atoms: C_1  and  C_2
REMARK    2  A    between atoms: C_2  and  C_4
REMARK    3  A    between atoms: C_4  and  N_5
REMARK    4  A    between atoms: C_4  and  C_6
REMARK    5  A    between atoms: C_6  and  C_7
REMARK                            x       y       z     vdW  Elec       q    Type
REMARK                         _______ _______ _______ _____ _____    ______ ____
ROOT
ATOM      1  C   UNL     1       9.108   0.798  22.305  0.00  0.00    +0.122 C 
ENDROOT
BRANCH   1   3
ATOM      2  C   UNL     1      10.749   1.274  24.253  0.00  0.00    +0.087 C 
ATOM      3  C   UNL     1       9.325   1.231  23.763  0.00  0.00    +0.147 C 
ATOM      4  O   UNL     1       8.377   1.473  24.515  0.00  0.00    -0.296 OA
ENDBRANCH   1   3
BRANCH   1   5
ATOM      5  N   UNL     1       9.533   1.905  21.418  0.00  0.00    -0.321 NA
ATOM      6  H   UNL     1      10.488   2.173  21.659  0.00  0.00    +0.119 HD
ATOM      7  H   UNL     1       9.607   1.524  20.469  0.00  0.00    +0.119 HD
ENDBRANCH   1   5
BRANCH   1   8
ATOM      8  C   UNL     1       9.907  -0.479  21.993  0.00  0.00    +0.061 C 
BRANCH   8   9
ATOM      9  C   UNL     1       9.321  -1.709  22.650  0.00  0.00    -0.045 A 
ATOM     10  C   UNL     1      10.006  -2.345  23.694  0.00  0.00    +0.004 A 
ATOM     11  C   UNL     1       9.433  -3.431  24.357  0.00  0.00    +0.000 A 
ATOM     12  C   UNL     1       8.172  -3.890  23.982  0.00  0.00    +0.000 A 
ATOM     13  C   UNL     1       7.494  -3.283  22.928  0.00  0.00    +0.000 A 
ATOM     14  C   UNL     1       8.072  -2.206  22.254  0.00  0.00    +0.004 A 
ENDBRANCH   8   9
ENDBRANCH   1   8
TORSDOF 4
ENDMDL
MODEL 7
REMARK VINA RESULT:      -4.5      3.854      5.404
REMARK  Name = 
REMARK  5 active torsions:
REMARK  status: ('A' for Active; 'I' for Inactive)
REMARK    1  A    between atoms: C_1  and  C_2
REMARK    2  A    between atoms: C_2  and  C_4
REMARK    3  A    between atoms: C_4  and  N_5
REMARK    4  A    between atoms: C_4  and  C_6
REMARK    5  A    between atoms: C_6  and  C_7
REMARK                            x       y       z     vdW  Elec       q    Type
REMARK                         _______ _______ _______ _____ _____    ______ ____
ROOT
ATOM      1  C   UNL     1      10.233   3.215  23.401  0.00  0.00    +0.122 C 
ENDROOT
BRANCH   1   3
ATOM      2  C   UNL     1       8.248   3.238  25.068  0.00  0.00    +0.087 C 
ATOM      3  C   UNL     1       9.290   4.019  24.310  0.00  0.00    +0.147 C 
ATOM      4  O   UNL     1       9.342   5.251  24.368  0.00  0.00    -0.296 OA
ENDBRANCH   1   3
BRANCH   1   5
ATOM      5  N   UNL     1      11.412   4.054  23.089  0.00  0.00    -0.321 NA
ATOM      6  H   UNL     1      11.478   4.169  22.077  0.00  0.00    +0.119 HD
ATOM      7  H   UNL     1      11.216   4.998  23.440  0.00  0.00    +0.119 HD
ENDBRANCH   1   5
BRANCH   1   8
ATOM      8  C   UNL     1      10.667   1.909  24.089  0.00  0.00    +0.061 C 
BRANCH   8   9
ATOM      9  C   UNL     1      10.188   0.676  23.356  0.00  0.00    -0.045 A 
ATOM     10  C   UNL     1       9.785   0.765  22.016  0.00  0.00    +0.004 A 
ATOM     11  C   UNL     1       9.418  -0.383  21.312  0.00  0.00    +0.000 A 
ATOM     12  C   UNL     1       9.452  -1.626  21.939  0.00  0.00    +0.000 A 
ATOM     13  C   UNL     1       9.825  -1.722  23.277  0.00  0.00    +0.000 A 
ATOM     14  C   UNL     1      10.178  -0.574  23.988  0.00  0.00    +0.004 A 
ENDBRANCH   8   9
ENDBRANCH   1   8
TORSDOF 4
ENDMDL
MODEL 8
REMARK VINA RESULT:      -4.4      3.798      5.739
REMARK  Name = 
REMARK  5 active torsions:
REMARK  status: ('A' for Active; 'I' for Inactive)
REMARK    1  A    between atoms: C_1  and  C_2
REMARK    2  A    between atoms: C_2  and  C_4
REMARK    3  A    between atoms: C_4  and  N_5
REMARK    4  A    between atoms: C_4  and  C_6
REMARK    5  A    between atoms: C_6  and  C_7
REMARK                            x       y       z     vdW  Elec       q    Type
REMARK                         _______ _______ _______ _____ _____    ______ ____
ROOT
ATOM      1  C   UNL     1       9.784   3.291  23.335  0.00  0.00    +0.122 C 
ENDROOT
BRANCH   1   3
ATOM      2  C   UNL     1      10.449   5.714  23.973  0.00  0.00    +0.087 C 
ATOM      3  C   UNL     1      10.890   4.335  23.555  0.00  0.00    +0.147 C 
ATOM      4  O   UNL     1      12.077   4.076  23.339  0.00  0.00    -0.296 OA
ENDBRANCH   1   3
BRANCH   1   5
ATOM      5  N   UNL     1       8.546   3.999  22.935  0.00  0.00    -0.321 NA
ATOM      6  H   UNL     1       8.633   4.293  21.962  0.00  0.00    +0.119 HD
ATOM      7  H   UNL     1       7.789   3.307  22.925  0.00  0.00    +0.119 HD
ENDBRANCH   1   5
BRANCH   1   8
ATOM      8  C   UNL     1      10.199   2.279  22.254  0.00  0.00    +0.061 C 
BRANCH   8   9
ATOM      9  C   UNL     1      10.012   0.844  22.696  0.00  0.00    -0.045 A 
ATOM     10  C   UNL     1       9.820  -0.167  21.744  0.00  0.00    +0.004 A 
ATOM     11  C   UNL     1       9.728  -1.502  22.141  0.00  0.00    +0.000 A 
ATOM     12  C   UNL     1       9.828  -1.837  23.489  0.00  0.00    +0.000 A 
ATOM     13  C   UNL     1       9.992  -0.837  24.446  0.00  0.00    +0.000 A 
ATOM     14  C   UNL     1      10.069   0.500  24.053  0.00  0.00    +0.004 A 
ENDBRANCH   8   9
ENDBRANCH   1   8
TORSDOF 4
ENDMDL
MODEL 9
REMARK VINA RESULT:      -4.4      1.819      2.536
REMARK  Name = 
REMARK  5 active torsions:
REMARK  status: ('A' for Active; 'I' for Inactive)
REMARK    1  A    between atoms: C_1  and  C_2
REMARK    2  A    between atoms: C_2  and  C_4
REMARK    3  A    between atoms: C_4  and  N_5
REMARK    4  A    between atoms: C_4  and  C_6
REMARK    5  A    between atoms: C_6  and  C_7
REMARK                            x       y       z     vdW  Elec       q    Type
REMARK                         _______ _______ _______ _____ _____    ______ ____
ROOT
ATOM      1  C   UNL     1       7.075  -2.235  22.367  0.00  0.00    +0.122 C 
ENDROOT
BRANCH   1   3
ATOM      2  C   UNL     1       7.354  -4.809  22.466  0.00  0.00    +0.087 C 
ATOM      3  C   UNL     1       6.557  -3.627  21.976  0.00  0.00    +0.147 C 
ATOM      4  O   UNL     1       5.574  -3.771  21.245  0.00  0.00    -0.296 OA
ENDBRANCH   1   3
BRANCH   1   5
ATOM      5  N   UNL     1       6.116  -1.628  23.318  0.00  0.00    -0.321 NA
ATOM      6  H   UNL     1       6.637  -1.148  24.052  0.00  0.00    +0.119 HD
ATOM      7  H   UNL     1       5.627  -0.877  22.820  0.00  0.00    +0.119 HD
ENDBRANCH   1   5
BRANCH   1   8
ATOM      8  C   UNL     1       8.473  -2.333  23.001  0.00  0.00    +0.061 C 
BRANCH   8   9
ATOM      9  C   UNL     1       9.201  -1.007  23.019  0.00  0.00    -0.045 A 
ATOM     10  C   UNL     1       9.241  -0.210  21.867  0.00  0.00    +0.004 A 
ATOM     11  C   UNL     1       9.840   1.050  21.900  0.00  0.00    +0.000 A 
ATOM     12  C   UNL     1      10.404   1.523  23.084  0.00  0.00    +0.000 A 
ATOM     13  C   UNL     1      10.393   0.727  24.227  0.00  0.00    +0.000 A 
ATOM     14  C   UNL     1       9.807  -0.539  24.192  0.00  0.00    +0.004 A 
ENDBRANCH   8   9
ENDBRANCH   1   8
TORSDOF 4
ENDMDL
