MODEL 1
REMARK VINA RESULT:      -7.2      0.000      0.000
REMARK  Name = 
REMARK  13 active torsions:
REMARK  status: ('A' for Active; 'I' for Inactive)
REMARK    1  A    between atoms: C_1  and  C_2
REMARK    2  A    between atoms: C_5  and  C_6
REMARK    3  A    between atoms: C_6  and  N_7
REMARK    4  A    between atoms: C_11  and  C_12
REMARK    5  A    between atoms: C_12  and  C_13
REMARK    6  A    between atoms: C_13  and  O_14
REMARK    7  A    between atoms: O_14  and  P_15
REMARK    8  A    between atoms: P_15  and  O_16
REMARK    9  A    between atoms: P_15  and  O_18
REMARK   10  A    between atoms: O_18  and  P_19
REMARK   11  A    between atoms: P_19  and  O_20
REMARK   12  A    between atoms: P_19  and  O_21
REMARK   13  A    between atoms: C_23  and  C_24
REMARK                            x       y       z     vdW  Elec       q    Type
REMARK                         _______ _______ _______ _____ _____    ______ ____
ROOT
ATOM      1  N   UNL     1       9.998   1.609  23.050  0.00  0.00    -0.197 N 
ATOM      2  C   UNL     1      10.186   0.378  23.650  0.00  0.00    +0.184 A 
ATOM      3  C   UNL     1      10.691   0.266  25.063  0.00  0.00    +0.122 C 
ATOM      4  C   UNL     1       9.874  -0.789  22.899  0.00  0.00    +0.021 A 
ATOM      5  C   UNL     1       9.241  -0.621  21.654  0.00  0.00    +0.015 A 
ATOM      6  C   UNL     1       8.970   0.623  21.137  0.00  0.00    +0.070 A 
ATOM      7  C   UNL     1       9.374   1.716  21.855  0.00  0.00    +0.309 A 
ENDROOT
BRANCH   1   8
ATOM      8  C   UNL     1      10.565   2.894  23.587  0.00  0.00    +0.398 C 
BRANCH   8  16
ATOM      9  C   UNL     1       6.888   6.213  26.335  0.00  0.00    +0.088 C 
ATOM     10  C   UNL     1       7.712   5.331  25.451  0.00  0.00    +0.128 A 
ATOM     11  N   UNL     1       8.555   5.916  24.582  0.00  0.00    -0.218 NA
ATOM     12  C   UNL     1       9.399   5.123  23.916  0.00  0.00    +0.129 A 
ATOM     13  N   UNL     1      10.230   5.784  23.008  0.00  0.00    -0.343 N 
ATOM     14  H   UNL     1       9.988   6.778  23.108  0.00  0.00    +0.144 HD
ATOM     15  H   UNL     1      10.009   5.525  22.049  0.00  0.00    +0.144 HD
ATOM     16  C   UNL     1       9.469   3.756  24.118  0.00  0.00    +0.075 A 
ATOM     17  C   UNL     1       8.525   3.249  24.984  0.00  0.00    +0.126 A 
ATOM     18  N   UNL     1       7.654   4.007  25.664  0.00  0.00    -0.240 NA
ENDBRANCH   8  16
ENDBRANCH   1   8
BRANCH   4  19
ATOM     19  C   UNL     1      10.229  -2.219  23.372  0.00  0.00    +0.070 C 
BRANCH  19  20
ATOM     20  C   UNL     1       9.001  -2.843  24.054  0.00  0.00    +0.177 C 
BRANCH  20  21
ATOM     21  O   UNL     1       9.040  -3.344  25.368  0.00  0.00    -0.286 OA
BRANCH  21  22
ATOM     22  P   UNL     1       8.827  -5.003  25.305  0.00  0.00    +0.483 P 
ATOM     23  O   UNL     1       8.619  -5.379  23.836  0.00  0.00    -0.227 OA
BRANCH  22  24
ATOM     24  O   UNL     1      10.527  -5.189  25.045  0.00  0.00    -0.302 OA
ATOM     25  H   UNL     1      10.920  -4.880  25.890  0.00  0.00    +0.222 HD
ENDBRANCH  22  24
BRANCH  22  26
ATOM     26  O   UNL     1       7.127  -4.817  25.565  0.00  0.00    -0.186 OA
BRANCH  26  27
ATOM     27  P   UNL     1       6.514  -5.338  26.945  0.00  0.00    +0.481 P 
ATOM     28  O   UNL     1       5.730  -4.311  27.694  0.00  0.00    -0.227 OA
BRANCH  27  29
ATOM     29  O   UNL     1       7.703  -6.000  27.763  0.00  0.00    -0.302 OA
ATOM     30  H   UNL     1       7.520  -6.951  27.938  0.00  0.00    +0.222 HD
ENDBRANCH  27  29
BRANCH  27  31
ATOM     31  O   UNL     1       5.636  -6.604  26.556  0.00  0.00    -0.302 OA
ATOM     32  H   UNL     1       4.691  -6.474  26.757  0.00  0.00    +0.222 HD
ENDBRANCH  27  31
ENDBRANCH  26  27
ENDBRANCH  22  26
ENDBRANCH  21  22
ENDBRANCH  20  21
ENDBRANCH  19  20
ENDBRANCH   4  19
TORSDOF 11
ENDMDL
MODEL 2
REMARK VINA RESULT:      -7.1      3.255      5.525
REMARK  Name = 
REMARK  13 active torsions:
REMARK  status: ('A' for Active; 'I' for Inactive)
REMARK    1  A    between atoms: C_1  and  C_2
REMARK    2  A    between atoms: C_5  and  C_6
REMARK    3  A    between atoms: C_6  and  N_7
REMARK    4  A    between atoms: C_11  and  C_12
REMARK    5  A    between atoms: C_12  and  C_13
REMARK    6  A    between atoms: C_13  and  O_14
REMARK    7  A    between atoms: O_14  and  P_15
REMARK    8  A    between atoms: P_15  and  O_16
REMARK    9  A    between atoms: P_15  and  O_18
REMARK   10  A    between atoms: O_18  and  P_19
REMARK   11  A    between atoms: P_19  and  O_20
REMARK   12  A    between atoms: P_19  and  O_21
REMARK   13  A    between atoms: C_23  and  C_24
REMARK                            x       y       z     vdW  Elec       q    Type
REMARK                         _______ _______ _______ _____ _____    ______ ____
ROOT
ATOM      1  N   UNL     1       5.543  -2.191  23.967  0.00  0.00    -0.197 N 
ATOM      2  C   UNL     1       4.844  -3.099  24.741  0.00  0.00    +0.184 A 
ATOM      3  C   UNL     1       4.088  -2.663  25.967  0.00  0.00    +0.122 C 
ATOM      4  C   UNL     1       4.843  -4.463  24.338  0.00  0.00    +0.021 A 
ATOM      5  C   UNL     1       5.414  -4.782  23.092  0.00  0.00    +0.015 A 
ATOM      6  C   UNL     1       6.006  -3.830  22.298  0.00  0.00    +0.070 A 
ATOM      7  C   UNL     1       6.065  -2.547  22.773  0.00  0.00    +0.309 A 
ENDROOT
BRANCH   1   8
ATOM      8  C   UNL     1       5.892  -0.802  24.423  0.00  0.00    +0.398 C 
BRANCH   8  16
ATOM      9  C   UNL     1      11.343   0.733  24.589  0.00  0.00    +0.088 C 
ATOM     10  C   UNL     1       9.976   0.131  24.496  0.00  0.00    +0.128 A 
ATOM     11  N   UNL     1       9.441  -0.399  25.610  0.00  0.00    -0.218 NA
ATOM     12  C   UNL     1       8.163  -0.787  25.554  0.00  0.00    +0.129 A 
ATOM     13  N   UNL     1       7.672  -1.354  26.732  0.00  0.00    -0.343 N 
ATOM     14  H   UNL     1       8.456  -1.302  27.394  0.00  0.00    +0.144 HD
ATOM     15  H   UNL     1       7.462  -2.342  26.606  0.00  0.00    +0.144 HD
ATOM     16  C   UNL     1       7.374  -0.621  24.430  0.00  0.00    +0.075 A 
ATOM     17  C   UNL     1       8.031  -0.124  23.327  0.00  0.00    +0.126 A 
ATOM     18  N   UNL     1       9.313   0.266  23.336  0.00  0.00    -0.240 NA
ENDBRANCH   8  16
ENDBRANCH   1   8
BRANCH   4  19
ATOM     19  C   UNL     1       4.277  -5.604  25.216  0.00  0.00    +0.070 C 
BRANCH  19  20
ATOM     20  C   UNL     1       5.333  -6.008  26.258  0.00  0.00    +0.177 C 
BRANCH  20  21
ATOM     21  O   UNL     1       6.690  -6.180  25.931  0.00  0.00    -0.286 OA
BRANCH  21  22
ATOM     22  P   UNL     1       7.606  -5.267  26.994  0.00  0.00    +0.483 P 
ATOM     23  O   UNL     1       6.667  -4.250  27.646  0.00  0.00    -0.227 OA
BRANCH  22  24
ATOM     24  O   UNL     1       7.190  -6.368  28.262  0.00  0.00    -0.302 OA
ATOM     25  H   UNL     1       6.229  -6.514  28.127  0.00  0.00    +0.222 HD
ENDBRANCH  22  24
BRANCH  22  26
ATOM     26  O   UNL     1       8.022  -4.167  25.725  0.00  0.00    -0.186 OA
BRANCH  26  27
ATOM     27  P   UNL     1       9.218  -4.564  24.745  0.00  0.00    +0.481 P 
ATOM     28  O   UNL     1       9.900  -3.399  24.105  0.00  0.00    -0.227 OA
BRANCH  27  29
ATOM     29  O   UNL     1       8.651  -5.646  23.731  0.00  0.00    -0.302 OA
ATOM     30  H   UNL     1       8.133  -5.216  23.012  0.00  0.00    +0.222 HD
ENDBRANCH  27  29
BRANCH  27  31
ATOM     31  O   UNL     1      10.210  -5.432  25.633  0.00  0.00    -0.302 OA
ATOM     32  H   UNL     1       9.771  -6.207  26.026  0.00  0.00    +0.222 HD
ENDBRANCH  27  31
ENDBRANCH  26  27
ENDBRANCH  22  26
ENDBRANCH  21  22
ENDBRANCH  20  21
ENDBRANCH  19  20
ENDBRANCH   4  19
TORSDOF 11
ENDMDL
MODEL 3
REMARK VINA RESULT:      -7.1      2.037      2.589
REMARK  Name = 
REMARK  13 active torsions:
REMARK  status: ('A' for Active; 'I' for Inactive)
REMARK    1  A    between atoms: C_1  and  C_2
REMARK    2  A    between atoms: C_5  and  C_6
REMARK    3  A    between atoms: C_6  and  N_7
REMARK    4  A    between atoms: C_11  and  C_12
REMARK    5  A    between atoms: C_12  and  C_13
REMARK    6  A    between atoms: C_13  and  O_14
REMARK    7  A    between atoms: O_14  and  P_15
REMARK    8  A    between atoms: P_15  and  O_16
REMARK    9  A    between atoms: P_15  and  O_18
REMARK   10  A    between atoms: O_18  and  P_19
REMARK   11  A    between atoms: P_19  and  O_20
REMARK   12  A    between atoms: P_19  and  O_21
REMARK   13  A    between atoms: C_23  and  C_24
REMARK                            x       y       z     vdW  Elec       q    Type
REMARK                         _______ _______ _______ _____ _____    ______ ____
ROOT
ATOM      1  N   UNL     1       9.893   0.512  23.451  0.00  0.00    -0.197 N 
ATOM      2  C   UNL     1       9.376  -0.608  24.074  0.00  0.00    +0.184 A 
ATOM      3  C   UNL     1       9.224  -0.671  25.569  0.00  0.00    +0.122 C 
ATOM      4  C   UNL     1       8.973  -1.703  23.260  0.00  0.00    +0.021 A 
ATOM      5  C   UNL     1       8.973  -1.521  21.865  0.00  0.00    +0.015 A 
ATOM      6  C   UNL     1       9.392  -0.348  21.283  0.00  0.00    +0.070 A 
ATOM      7  C   UNL     1       9.859   0.642  22.106  0.00  0.00    +0.309 A 
ENDROOT
BRANCH   1   8
ATOM      8  C   UNL     1      10.636   1.600  24.174  0.00  0.00    +0.398 C 
BRANCH   8  16
ATOM      9  C   UNL     1       7.888   6.486  24.986  0.00  0.00    +0.088 C 
ATOM     10  C   UNL     1       8.512   5.189  24.581  0.00  0.00    +0.128 A 
ATOM     11  N   UNL     1       9.677   5.229  23.910  0.00  0.00    -0.218 NA
ATOM     12  C   UNL     1      10.305   4.069  23.696  0.00  0.00    +0.129 A 
ATOM     13  N   UNL     1      11.494   4.172  22.971  0.00  0.00    -0.343 N 
ATOM     14  H   UNL     1      11.608   5.179  22.798  0.00  0.00    +0.144 HD
ATOM     15  H   UNL     1      11.410   3.727  22.059  0.00  0.00    +0.144 HD
ATOM     16  C   UNL     1       9.834   2.859  24.172  0.00  0.00    +0.075 A 
ATOM     17  C   UNL     1       8.607   2.917  24.794  0.00  0.00    +0.126 A 
ATOM     18  N   UNL     1       7.939   4.057  25.020  0.00  0.00    -0.240 NA
ENDBRANCH   8  16
ENDBRANCH   1   8
BRANCH   4  19
ATOM     19  C   UNL     1       8.574  -3.083  23.835  0.00  0.00    +0.070 C 
BRANCH  19  20
ATOM     20  C   UNL     1       7.369  -3.626  23.050  0.00  0.00    +0.177 C 
BRANCH  20  21
ATOM     21  O   UNL     1       7.472  -4.714  22.165  0.00  0.00    -0.286 OA
BRANCH  21  22
ATOM     22  P   UNL     1       6.075  -5.628  22.289  0.00  0.00    +0.483 P 
ATOM     23  O   UNL     1       4.895  -4.653  22.301  0.00  0.00    -0.227 OA
BRANCH  22  24
ATOM     24  O   UNL     1       5.960  -5.645  20.563  0.00  0.00    -0.302 OA
ATOM     25  H   UNL     1       5.626  -4.747  20.351  0.00  0.00    +0.222 HD
ENDBRANCH  22  24
BRANCH  22  26
ATOM     26  O   UNL     1       6.190  -5.610  24.016  0.00  0.00    -0.186 OA
BRANCH  26  27
ATOM     27  P   UNL     1       5.002  -6.266  24.857  0.00  0.00    +0.481 P 
ATOM     28  O   UNL     1       5.399  -6.732  26.219  0.00  0.00    -0.227 OA
BRANCH  27  29
ATOM     29  O   UNL     1       4.337  -7.378  23.937  0.00  0.00    -0.302 OA
ATOM     30  H   UNL     1       3.611  -7.839  24.415  0.00  0.00    +0.222 HD
ENDBRANCH  27  29
BRANCH  27  31
ATOM     31  O   UNL     1       3.866  -5.156  24.905  0.00  0.00    -0.302 OA
ATOM     32  H   UNL     1       3.488  -5.053  25.797  0.00  0.00    +0.222 HD
ENDBRANCH  27  31
ENDBRANCH  26  27
ENDBRANCH  22  26
ENDBRANCH  21  22
ENDBRANCH  20  21
ENDBRANCH  19  20
ENDBRANCH   4  19
TORSDOF 11
ENDMDL
MODEL 4
REMARK VINA RESULT:      -7.1      5.334      8.001
REMARK  Name = 
REMARK  13 active torsions:
REMARK  status: ('A' for Active; 'I' for Inactive)
REMARK    1  A    between atoms: C_1  and  C_2
REMARK    2  A    between atoms: C_5  and  C_6
REMARK    3  A    between atoms: C_6  and  N_7
REMARK    4  A    between atoms: C_11  and  C_12
REMARK    5  A    between atoms: C_12  and  C_13
REMARK    6  A    between atoms: C_13  and  O_14
REMARK    7  A    between atoms: O_14  and  P_15
REMARK    8  A    between atoms: P_15  and  O_16
REMARK    9  A    between atoms: P_15  and  O_18
REMARK   10  A    between atoms: O_18  and  P_19
REMARK   11  A    between atoms: P_19  and  O_20
REMARK   12  A    between atoms: P_19  and  O_21
REMARK   13  A    between atoms: C_23  and  C_24
REMARK                            x       y       z     vdW  Elec       q    Type
REMARK                         _______ _______ _______ _____ _____    ______ ____
ROOT
ATOM      1  N   UNL     1       8.969  -2.613  25.072  0.00  0.00    -0.197 N 
ATOM      2  C   UNL     1       9.523  -1.658  24.238  0.00  0.00    +0.184 A 
ATOM      3  C   UNL     1       9.874  -1.977  22.810  0.00  0.00    +0.122 C 
ATOM      4  C   UNL     1       9.740  -0.354  24.762  0.00  0.00    +0.021 A 
ATOM      5  C   UNL     1       9.231  -0.066  26.042  0.00  0.00    +0.015 A 
ATOM      6  C   UNL     1       8.587  -1.014  26.800  0.00  0.00    +0.070 A 
ATOM      7  C   UNL     1       8.486  -2.280  26.290  0.00  0.00    +0.309 A 
ENDROOT
BRANCH   1   8
ATOM      8  C   UNL     1       8.969  -4.085  24.770  0.00  0.00    +0.398 C 
BRANCH   8  16
ATOM      9  C   UNL     1       4.028  -6.851  24.931  0.00  0.00    +0.088 C 
ATOM     10  C   UNL     1       5.237  -5.973  25.013  0.00  0.00    +0.128 A 
ATOM     11  N   UNL     1       6.106  -6.185  26.016  0.00  0.00    -0.218 NA
ATOM     12  C   UNL     1       7.257  -5.506  25.987  0.00  0.00    +0.129 A 
ATOM     13  N   UNL     1       8.106  -5.748  27.070  0.00  0.00    -0.343 N 
ATOM     14  H   UNL     1       7.614  -6.451  27.636  0.00  0.00    +0.144 HD
ATOM     15  H   UNL     1       8.205  -4.919  27.654  0.00  0.00    +0.144 HD
ATOM     16  C   UNL     1       7.600  -4.647  24.958  0.00  0.00    +0.075 A 
ATOM     17  C   UNL     1       6.619  -4.455  24.011  0.00  0.00    +0.126 A 
ATOM     18  N   UNL     1       5.448  -5.107  24.009  0.00  0.00    -0.240 NA
ENDBRANCH   8  16
ENDBRANCH   1   8
BRANCH   4  19
ATOM     19  C   UNL     1      10.534   0.739  24.008  0.00  0.00    +0.070 C 
BRANCH  19  20
ATOM     20  C   UNL     1       9.921   2.114  24.322  0.00  0.00    +0.177 C 
BRANCH  20  21
ATOM     21  O   UNL     1       9.416   2.962  23.321  0.00  0.00    -0.286 OA
BRANCH  21  22
ATOM     22  P   UNL     1       8.101   2.211  22.608  0.00  0.00    +0.483 P 
ATOM     23  O   UNL     1       7.314   3.289  21.859  0.00  0.00    -0.227 OA
BRANCH  22  24
ATOM     24  O   UNL     1       9.037   1.987  21.170  0.00  0.00    -0.302 OA
ATOM     25  H   UNL     1       8.362   2.001  20.458  0.00  0.00    +0.222 HD
ENDBRANCH  22  24
BRANCH  22  26
ATOM     26  O   UNL     1       7.165   2.436  24.046  0.00  0.00    -0.186 OA
BRANCH  26  27
ATOM     27  P   UNL     1       6.024   1.368  24.376  0.00  0.00    +0.481 P 
ATOM     28  O   UNL     1       5.888   1.045  25.828  0.00  0.00    -0.227 OA
BRANCH  27  29
ATOM     29  O   UNL     1       6.269   0.115  23.432  0.00  0.00    -0.302 OA
ATOM     30  H   UNL     1       6.348  -0.711  23.961  0.00  0.00    +0.222 HD
ENDBRANCH  27  29
BRANCH  27  31
ATOM     31  O   UNL     1       4.692   1.985  23.767  0.00  0.00    -0.302 OA
ATOM     32  H   UNL     1       4.772   2.168  22.814  0.00  0.00    +0.222 HD
ENDBRANCH  27  31
ENDBRANCH  26  27
ENDBRANCH  22  26
ENDBRANCH  21  22
ENDBRANCH  20  21
ENDBRANCH  19  20
ENDBRANCH   4  19
TORSDOF 11
ENDMDL
MODEL 5
REMARK VINA RESULT:      -7.1      1.801      2.560
REMARK  Name = 
REMARK  13 active torsions:
REMARK  status: ('A' for Active; 'I' for Inactive)
REMARK    1  A    between atoms: C_1  and  C_2
REMARK    2  A    between atoms: C_5  and  C_6
REMARK    3  A    between atoms: C_6  and  N_7
REMARK    4  A    between atoms: C_11  and  C_12
REMARK    5  A    between atoms: C_12  and  C_13
REMARK    6  A    between atoms: C_13  and  O_14
REMARK    7  A    between atoms: O_14  and  P_15
REMARK    8  A    between atoms: P_15  and  O_16
REMARK    9  A    between atoms: P_15  and  O_18
REMARK   10  A    between atoms: O_18  and  P_19
REMARK   11  A    between atoms: P_19  and  O_20
REMARK   12  A    between atoms: P_19  and  O_21
REMARK   13  A    between atoms: C_23  and  C_24
REMARK                            x       y       z     vdW  Elec       q    Type
REMARK                         _______ _______ _______ _____ _____    ______ ____
ROOT
ATOM      1  N   UNL     1       9.956   1.804  23.000  0.00  0.00    -0.197 N 
ATOM      2  C   UNL     1      10.208   0.562  23.552  0.00  0.00    +0.184 A 
ATOM      3  C   UNL     1      10.771   0.423  24.941  0.00  0.00    +0.122 C 
ATOM      4  C   UNL     1       9.908  -0.591  22.775  0.00  0.00    +0.021 A 
ATOM      5  C   UNL     1       9.222  -0.406  21.561  0.00  0.00    +0.015 A 
ATOM      6  C   UNL     1       8.889   0.843  21.095  0.00  0.00    +0.070 A 
ATOM      7  C   UNL     1       9.284   1.926  21.833  0.00  0.00    +0.309 A 
ENDROOT
BRANCH   1   8
ATOM      8  C   UNL     1      10.499   3.090  23.557  0.00  0.00    +0.398 C 
BRANCH   8  16
ATOM      9  C   UNL     1       6.802   6.239  26.473  0.00  0.00    +0.088 C 
ATOM     10  C   UNL     1       7.627   5.400  25.549  0.00  0.00    +0.128 A 
ATOM     11  N   UNL     1       8.424   6.026  24.666  0.00  0.00    -0.218 NA
ATOM     12  C   UNL     1       9.272   5.273  23.960  0.00  0.00    +0.129 A 
ATOM     13  N   UNL     1      10.053   5.977  23.040  0.00  0.00    -0.343 N 
ATOM     14  H   UNL     1       9.782   6.960  23.165  0.00  0.00    +0.144 HD
ATOM     15  H   UNL     1       9.811   5.726  22.083  0.00  0.00    +0.144 HD
ATOM     16  C   UNL     1       9.392   3.906  24.136  0.00  0.00    +0.075 A 
ATOM     17  C   UNL     1       8.493   3.354  25.021  0.00  0.00    +0.126 A 
ATOM     18  N   UNL     1       7.619   4.071  25.740  0.00  0.00    -0.240 NA
ENDBRANCH   8  16
ENDBRANCH   1   8
BRANCH   4  19
ATOM     19  C   UNL     1      10.328  -2.022  23.187  0.00  0.00    +0.070 C 
BRANCH  19  20
ATOM     20  C   UNL     1       9.134  -2.728  23.849  0.00  0.00    +0.177 C 
BRANCH  20  21
ATOM     21  O   UNL     1       8.103  -3.327  23.103  0.00  0.00    -0.286 OA
BRANCH  21  22
ATOM     22  P   UNL     1       7.671  -4.758  23.858  0.00  0.00    +0.483 P 
ATOM     23  O   UNL     1       8.960  -5.538  24.124  0.00  0.00    -0.227 OA
BRANCH  22  24
ATOM     24  O   UNL     1       7.895  -3.990  25.392  0.00  0.00    -0.302 OA
ATOM     25  H   UNL     1       7.814  -3.035  25.180  0.00  0.00    +0.222 HD
ENDBRANCH  22  24
BRANCH  22  26
ATOM     26  O   UNL     1       7.448  -5.525  22.323  0.00  0.00    -0.186 OA
BRANCH  26  27
ATOM     27  P   UNL     1       6.019  -5.404  21.621  0.00  0.00    +0.481 P 
ATOM     28  O   UNL     1       6.036  -5.649  20.148  0.00  0.00    -0.227 OA
BRANCH  27  29
ATOM     29  O   UNL     1       5.400  -4.008  22.060  0.00  0.00    -0.302 OA
ATOM     30  H   UNL     1       5.999  -3.541  22.685  0.00  0.00    +0.222 HD
ENDBRANCH  27  29
BRANCH  27  31
ATOM     31  O   UNL     1       5.088  -6.434  22.394  0.00  0.00    -0.302 OA
ATOM     32  H   UNL     1       4.212  -6.524  21.979  0.00  0.00    +0.222 HD
ENDBRANCH  27  31
ENDBRANCH  26  27
ENDBRANCH  22  26
ENDBRANCH  21  22
ENDBRANCH  20  21
ENDBRANCH  19  20
ENDBRANCH   4  19
TORSDOF 11
ENDMDL
MODEL 6
REMARK VINA RESULT:      -7.1      1.971      3.181
REMARK  Name = 
REMARK  13 active torsions:
REMARK  status: ('A' for Active; 'I' for Inactive)
REMARK    1  A    between atoms: C_1  and  C_2
REMARK    2  A    between atoms: C_5  and  C_6
REMARK    3  A    between atoms: C_6  and  N_7
REMARK    4  A    between atoms: C_11  and  C_12
REMARK    5  A    between atoms: C_12  and  C_13
REMARK    6  A    between atoms: C_13  and  O_14
REMARK    7  A    between atoms: O_14  and  P_15
REMARK    8  A    between atoms: P_15  and  O_16
REMARK    9  A    between atoms: P_15  and  O_18
REMARK   10  A    between atoms: O_18  and  P_19
REMARK   11  A    between atoms: P_19  and  O_20
REMARK   12  A    between atoms: P_19  and  O_21
REMARK   13  A    between atoms: C_23  and  C_24
REMARK                            x       y       z     vdW  Elec       q    Type
REMARK                         _______ _______ _______ _____ _____    ______ ____
ROOT
ATOM      1  N   UNL     1       8.574   0.129  22.575  0.00  0.00    -0.197 N 
ATOM      2  C   UNL     1       8.028  -0.211  23.799  0.00  0.00    +0.184 A 
ATOM      3  C   UNL     1       6.732   0.390  24.270  0.00  0.00    +0.122 C 
ATOM      4  C   UNL     1       8.720  -1.160  24.601  0.00  0.00    +0.021 A 
ATOM      5  C   UNL     1       9.827  -1.818  24.035  0.00  0.00    +0.015 A 
ATOM      6  C   UNL     1      10.276  -1.530  22.769  0.00  0.00    +0.070 A 
ATOM      7  C   UNL     1       9.634  -0.542  22.072  0.00  0.00    +0.309 A 
ENDROOT
BRANCH   1   8
ATOM      8  C   UNL     1       8.138   1.321  21.770  0.00  0.00    +0.398 C 
BRANCH   8  16
ATOM      9  C   UNL     1       9.676   6.323  23.939  0.00  0.00    +0.088 C 
ATOM     10  C   UNL     1       9.172   4.968  23.555  0.00  0.00    +0.128 A 
ATOM     11  N   UNL     1       7.965   4.883  22.970  0.00  0.00    -0.218 NA
ATOM     12  C   UNL     1       7.597   3.693  22.487  0.00  0.00    +0.129 A 
ATOM     13  N   UNL     1       6.322   3.662  21.916  0.00  0.00    -0.343 N 
ATOM     14  H   UNL     1       5.979   4.629  21.990  0.00  0.00    +0.144 HD
ATOM     15  H   UNL     1       5.687   3.084  22.463  0.00  0.00    +0.144 HD
ATOM     16  C   UNL     1       8.415   2.579  22.524  0.00  0.00    +0.075 A 
ATOM     17  C   UNL     1       9.605   2.754  23.195  0.00  0.00    +0.126 A 
ATOM     18  N   UNL     1      10.008   3.927  23.703  0.00  0.00    -0.240 NA
ENDBRANCH   8  16
ENDBRANCH   1   8
BRANCH   4  19
ATOM     19  C   UNL     1       8.331  -1.472  26.066  0.00  0.00    +0.070 C 
BRANCH  19  20
ATOM     20  C   UNL     1       8.418  -2.989  26.298  0.00  0.00    +0.177 C 
BRANCH  20  21
ATOM     21  O   UNL     1       7.583  -3.904  25.632  0.00  0.00    -0.286 OA
BRANCH  21  22
ATOM     22  P   UNL     1       8.399  -5.359  25.497  0.00  0.00    +0.483 P 
ATOM     23  O   UNL     1       9.883  -5.071  25.733  0.00  0.00    -0.227 OA
BRANCH  22  24
ATOM     24  O   UNL     1       8.238  -5.582  27.205  0.00  0.00    -0.302 OA
ATOM     25  H   UNL     1       7.601  -6.325  27.276  0.00  0.00    +0.222 HD
ENDBRANCH  22  24
BRANCH  22  26
ATOM     26  O   UNL     1       8.561  -5.136  23.789  0.00  0.00    -0.186 OA
BRANCH  26  27
ATOM     27  P   UNL     1       7.229  -5.040  22.913  0.00  0.00    +0.481 P 
ATOM     28  O   UNL     1       7.289  -5.788  21.621  0.00  0.00    -0.227 OA
BRANCH  27  29
ATOM     29  O   UNL     1       6.869  -3.499  22.777  0.00  0.00    -0.302 OA
ATOM     30  H   UNL     1       6.762  -3.085  23.664  0.00  0.00    +0.222 HD
ENDBRANCH  27  29
BRANCH  27  31
ATOM     31  O   UNL     1       6.070  -5.567  23.862  0.00  0.00    -0.302 OA
ATOM     32  H   UNL     1       6.018  -6.540  23.878  0.00  0.00    +0.222 HD
ENDBRANCH  27  31
ENDBRANCH  26  27
ENDBRANCH  22  26
ENDBRANCH  21  22
ENDBRANCH  20  21
ENDBRANCH  19  20
ENDBRANCH   4  19
TORSDOF 11
ENDMDL
MODEL 7
REMARK VINA RESULT:      -6.9      2.527      3.372
REMARK  Name = 
REMARK  13 active torsions:
REMARK  status: ('A' for Active; 'I' for Inactive)
REMARK    1  A    between atoms: C_1  and  C_2
REMARK    2  A    between atoms: C_5  and  C_6
REMARK    3  A    between atoms: C_6  and  N_7
REMARK    4  A    between atoms: C_11  and  C_12
REMARK    5  A    between atoms: C_12  and  C_13
REMARK    6  A    between atoms: C_13  and  O_14
REMARK    7  A    between atoms: O_14  and  P_15
REMARK    8  A    between atoms: P_15  and  O_16
REMARK    9  A    between atoms: P_15  and  O_18
REMARK   10  A    between atoms: O_18  and  P_19
REMARK   11  A    between atoms: P_19  and  O_20
REMARK   12  A    between atoms: P_19  and  O_21
REMARK   13  A    between atoms: C_23  and  C_24
REMARK                            x       y       z     vdW  Elec       q    Type
REMARK                         _______ _______ _______ _____ _____    ______ ____
ROOT
ATOM      1  N   UNL     1       7.651   0.398  22.985  0.00  0.00    -0.197 N 
ATOM      2  C   UNL     1       8.492  -0.699  23.001  0.00  0.00    +0.184 A 
ATOM      3  C   UNL     1       9.783  -0.706  22.228  0.00  0.00    +0.122 C 
ATOM      4  C   UNL     1       8.112  -1.824  23.784  0.00  0.00    +0.021 A 
ATOM      5  C   UNL     1       6.989  -1.694  24.622  0.00  0.00    +0.015 A 
ATOM      6  C   UNL     1       6.238  -0.544  24.660  0.00  0.00    +0.070 A 
ATOM      7  C   UNL     1       6.589   0.477  23.818  0.00  0.00    +0.309 A 
ENDROOT
BRANCH   1   8
ATOM      8  C   UNL     1       7.754   1.513  21.982  0.00  0.00    +0.398 C 
BRANCH   8  16
ATOM      9  C   UNL     1       9.728   6.467  23.895  0.00  0.00    +0.088 C 
ATOM     10  C   UNL     1       9.098   5.147  23.576  0.00  0.00    +0.128 A 
ATOM     11  N   UNL     1       7.914   5.149  22.939  0.00  0.00    -0.218 NA
ATOM     12  C   UNL     1       7.441   3.973  22.518  0.00  0.00    +0.129 A 
ATOM     13  N   UNL     1       6.195   4.035  21.888  0.00  0.00    -0.343 N 
ATOM     14  H   UNL     1       5.955   5.035  21.883  0.00  0.00    +0.144 HD
ATOM     15  H   UNL     1       5.479   3.566  22.440  0.00  0.00    +0.144 HD
ATOM     16  C   UNL     1       8.133   2.784  22.666  0.00  0.00    +0.075 A 
ATOM     17  C   UNL     1       9.305   2.881  23.382  0.00  0.00    +0.126 A 
ATOM     18  N   UNL     1       9.811   4.038  23.832  0.00  0.00    -0.240 NA
ENDBRANCH   8  16
ENDBRANCH   1   8
BRANCH   4  19
ATOM     19  C   UNL     1       8.852  -3.182  23.729  0.00  0.00    +0.070 C 
BRANCH  19  20
ATOM     20  C   UNL     1       7.834  -4.299  23.445  0.00  0.00    +0.177 C 
BRANCH  20  21
ATOM     21  O   UNL     1       7.019  -4.304  22.299  0.00  0.00    -0.286 OA
BRANCH  21  22
ATOM     22  P   UNL     1       5.956  -5.592  22.415  0.00  0.00    +0.483 P 
ATOM     23  O   UNL     1       4.539  -5.016  22.370  0.00  0.00    -0.227 OA
BRANCH  22  24
ATOM     24  O   UNL     1       5.907  -5.678  20.687  0.00  0.00    -0.302 OA
ATOM     25  H   UNL     1       5.269  -6.404  20.516  0.00  0.00    +0.222 HD
ENDBRANCH  22  24
BRANCH  22  26
ATOM     26  O   UNL     1       6.006  -5.506  24.142  0.00  0.00    -0.186 OA
BRANCH  26  27
ATOM     27  P   UNL     1       4.919  -6.333  24.969  0.00  0.00    +0.481 P 
ATOM     28  O   UNL     1       5.382  -6.779  26.317  0.00  0.00    -0.227 OA
BRANCH  27  29
ATOM     29  O   UNL     1       4.398  -7.497  24.022  0.00  0.00    -0.302 OA
ATOM     30  H   UNL     1       4.560  -8.378  24.429  0.00  0.00    +0.222 HD
ENDBRANCH  27  29
BRANCH  27  31
ATOM     31  O   UNL     1       3.649  -5.382  25.051  0.00  0.00    -0.302 OA
ATOM     32  H   UNL     1       3.239  -5.236  24.180  0.00  0.00    +0.222 HD
ENDBRANCH  27  31
ENDBRANCH  26  27
ENDBRANCH  22  26
ENDBRANCH  21  22
ENDBRANCH  20  21
ENDBRANCH  19  20
ENDBRANCH   4  19
TORSDOF 11
ENDMDL
MODEL 8
REMARK VINA RESULT:      -6.9      2.443      3.560
REMARK  Name = 
REMARK  13 active torsions:
REMARK  status: ('A' for Active; 'I' for Inactive)
REMARK    1  A    between atoms: C_1  and  C_2
REMARK    2  A    between atoms: C_5  and  C_6
REMARK    3  A    between atoms: C_6  and  N_7
REMARK    4  A    between atoms: C_11  and  C_12
REMARK    5  A    between atoms: C_12  and  C_13
REMARK    6  A    between atoms: C_13  and  O_14
REMARK    7  A    between atoms: O_14  and  P_15
REMARK    8  A    between atoms: P_15  and  O_16
REMARK    9  A    between atoms: P_15  and  O_18
REMARK   10  A    between atoms: O_18  and  P_19
REMARK   11  A    between atoms: P_19  and  O_20
REMARK   12  A    between atoms: P_19  and  O_21
REMARK   13  A    between atoms: C_23  and  C_24
REMARK                            x       y       z     vdW  Elec       q    Type
REMARK                         _______ _______ _______ _____ _____    ______ ____
ROOT
ATOM      1  N   UNL     1       9.879  -0.192  24.543  0.00  0.00    -0.197 N 
ATOM      2  C   UNL     1       9.721  -1.399  23.887  0.00  0.00    +0.184 A 
ATOM      3  C   UNL     1      10.384  -1.661  22.562  0.00  0.00    +0.122 C 
ATOM      4  C   UNL     1       8.922  -2.400  24.505  0.00  0.00    +0.021 A 
ATOM      5  C   UNL     1       8.475  -2.166  25.819  0.00  0.00    +0.015 A 
ATOM      6  C   UNL     1       8.746  -0.994  26.483  0.00  0.00    +0.070 A 
ATOM      7  C   UNL     1       9.438  -0.023  25.810  0.00  0.00    +0.309 A 
ENDROOT
BRANCH   1   8
ATOM      8  C   UNL     1      10.420   1.048  23.889  0.00  0.00    +0.398 C 
BRANCH   8  16
ATOM      9  C   UNL     1       6.821   5.200  22.511  0.00  0.00    +0.088 C 
ATOM     10  C   UNL     1       7.596   3.987  22.921  0.00  0.00    +0.128 A 
ATOM     11  N   UNL     1       7.894   3.077  21.977  0.00  0.00    -0.218 NA
ATOM     12  C   UNL     1       8.720   2.084  22.318  0.00  0.00    +0.129 A 
ATOM     13  N   UNL     1       8.969   1.156  21.304  0.00  0.00    -0.343 N 
ATOM     14  H   UNL     1       8.445   1.508  20.493  0.00  0.00    +0.144 HD
ATOM     15  H   UNL     1       8.576   0.245  21.533  0.00  0.00    +0.144 HD
ATOM     16  C   UNL     1       9.306   1.987  23.567  0.00  0.00    +0.075 A 
ATOM     17  C   UNL     1       8.891   2.932  24.478  0.00  0.00    +0.126 A 
ATOM     18  N   UNL     1       8.057   3.938  24.181  0.00  0.00    -0.240 NA
ENDBRANCH   8  16
ENDBRANCH   1   8
BRANCH   4  19
ATOM     19  C   UNL     1       8.499  -3.706  23.791  0.00  0.00    +0.070 C 
BRANCH  19  20
ATOM     20  C   UNL     1       6.973  -3.707  23.605  0.00  0.00    +0.177 C 
BRANCH  20  21
ATOM     21  O   UNL     1       6.360  -4.086  22.397  0.00  0.00    -0.286 OA
BRANCH  21  22
ATOM     22  P   UNL     1       5.674  -5.598  22.607  0.00  0.00    +0.483 P 
ATOM     23  O   UNL     1       4.159  -5.433  22.464  0.00  0.00    -0.227 OA
BRANCH  22  24
ATOM     24  O   UNL     1       5.744  -5.842  20.896  0.00  0.00    -0.302 OA
ATOM     25  H   UNL     1       6.676  -6.110  20.745  0.00  0.00    +0.222 HD
ENDBRANCH  22  24
BRANCH  22  26
ATOM     26  O   UNL     1       5.604  -5.353  24.319  0.00  0.00    -0.186 OA
BRANCH  26  27
ATOM     27  P   UNL     1       4.758  -6.387  25.194  0.00  0.00    +0.481 P 
ATOM     28  O   UNL     1       5.428  -6.813  26.459  0.00  0.00    -0.227 OA
BRANCH  27  29
ATOM     29  O   UNL     1       4.332  -7.575  24.230  0.00  0.00    -0.302 OA
ATOM     30  H   UNL     1       3.418  -7.440  23.891  0.00  0.00    +0.222 HD
ENDBRANCH  27  29
BRANCH  27  31
ATOM     31  O   UNL     1       3.369  -5.663  25.460  0.00  0.00    -0.302 OA
ATOM     32  H   UNL     1       3.441  -4.957  26.127  0.00  0.00    +0.222 HD
ENDBRANCH  27  31
ENDBRANCH  26  27
ENDBRANCH  22  26
ENDBRANCH  21  22
ENDBRANCH  20  21
ENDBRANCH  19  20
ENDBRANCH   4  19
TORSDOF 11
ENDMDL
MODEL 9
REMARK VINA RESULT:      -6.8      6.022      8.754
REMARK  Name = 
REMARK  13 active torsions:
REMARK  status: ('A' for Active; 'I' for Inactive)
REMARK    1  A    between atoms: C_1  and  C_2
REMARK    2  A    between atoms: C_5  and  C_6
REMARK    3  A    between atoms: C_6  and  N_7
REMARK    4  A    between atoms: C_11  and  C_12
REMARK    5  A    between atoms: C_12  and  C_13
REMARK    6  A    between atoms: C_13  and  O_14
REMARK    7  A    between atoms: O_14  and  P_15
REMARK    8  A    between atoms: P_15  and  O_16
REMARK    9  A    between atoms: P_15  and  O_18
REMARK   10  A    between atoms: O_18  and  P_19
REMARK   11  A    between atoms: P_19  and  O_20
REMARK   12  A    between atoms: P_19  and  O_21
REMARK   13  A    between atoms: C_23  and  C_24
REMARK                            x       y       z     vdW  Elec       q    Type
REMARK                         _______ _______ _______ _____ _____    ______ ____
ROOT
ATOM      1  N   UNL     1       8.946  -2.546  24.983  0.00  0.00    -0.197 N 
ATOM      2  C   UNL     1       9.446  -1.566  24.146  0.00  0.00    +0.184 A 
ATOM      3  C   UNL     1       9.715  -1.842  22.691  0.00  0.00    +0.122 C 
ATOM      4  C   UNL     1       9.689  -0.276  24.693  0.00  0.00    +0.021 A 
ATOM      5  C   UNL     1       9.254  -0.026  26.008  0.00  0.00    +0.015 A 
ATOM      6  C   UNL     1       8.659  -0.999  26.775  0.00  0.00    +0.070 A 
ATOM      7  C   UNL     1       8.533  -2.251  26.236  0.00  0.00    +0.309 A 
ENDROOT
BRANCH   1   8
ATOM      8  C   UNL     1       8.933  -4.009  24.639  0.00  0.00    +0.398 C 
BRANCH   8  16
ATOM      9  C   UNL     1       4.051  -6.839  25.140  0.00  0.00    +0.088 C 
ATOM     10  C   UNL     1       5.253  -5.947  25.142  0.00  0.00    +0.128 A 
ATOM     11  N   UNL     1       6.202  -6.166  26.069  0.00  0.00    -0.218 NA
ATOM     12  C   UNL     1       7.339  -5.473  25.962  0.00  0.00    +0.129 A 
ATOM     13  N   UNL     1       8.275  -5.724  26.969  0.00  0.00    -0.343 N 
ATOM     14  H   UNL     1       7.837  -6.443  27.559  0.00  0.00    +0.144 HD
ATOM     15  H   UNL     1       8.410  -4.905  27.558  0.00  0.00    +0.144 HD
ATOM     16  C   UNL     1       7.590  -4.592  24.925  0.00  0.00    +0.075 A 
ATOM     17  C   UNL     1       6.534  -4.395  24.063  0.00  0.00    +0.126 A 
ATOM     18  N   UNL     1       5.374  -5.061  24.141  0.00  0.00    -0.240 NA
ENDBRANCH   8  16
ENDBRANCH   1   8
BRANCH   4  19
ATOM     19  C   UNL     1      10.434   0.843  23.926  0.00  0.00    +0.070 C 
BRANCH  19  20
ATOM     20  C   UNL     1       9.405   1.739  23.218  0.00  0.00    +0.177 C 
BRANCH  20  21
ATOM     21  O   UNL     1       8.491   2.542  23.922  0.00  0.00    -0.286 OA
BRANCH  21  22
ATOM     22  P   UNL     1       6.998   2.421  23.175  0.00  0.00    +0.483 P 
ATOM     23  O   UNL     1       7.115   1.336  22.101  0.00  0.00    -0.227 OA
BRANCH  22  24
ATOM     24  O   UNL     1       6.565   1.175  24.294  0.00  0.00    -0.302 OA
ATOM     25  H   UNL     1       6.766   1.576  25.167  0.00  0.00    +0.222 HD
ENDBRANCH  22  24
BRANCH  22  26
ATOM     26  O   UNL     1       7.432   3.667  22.056  0.00  0.00    -0.186 OA
BRANCH  26  27
ATOM     27  P   UNL     1       7.543   5.164  22.600  0.00  0.00    +0.481 P 
ATOM     28  O   UNL     1       6.574   5.494  23.689  0.00  0.00    -0.227 OA
BRANCH  27  29
ATOM     29  O   UNL     1       7.483   6.126  21.338  0.00  0.00    -0.302 OA
ATOM     30  H   UNL     1       6.611   6.057  20.886  0.00  0.00    +0.222 HD
ENDBRANCH  27  29
BRANCH  27  31
ATOM     31  O   UNL     1       9.053   5.324  23.066  0.00  0.00    -0.302 OA
ATOM     32  H   UNL     1       9.650   4.708  22.604  0.00  0.00    +0.222 HD
ENDBRANCH  27  31
ENDBRANCH  26  27
ENDBRANCH  22  26
ENDBRANCH  21  22
ENDBRANCH  20  21
ENDBRANCH  19  20
ENDBRANCH   4  19
TORSDOF 11
ENDMDL
