MODEL 1
REMARK VINA RESULT:      -4.9      0.000      0.000
REMARK  Name = 
REMARK  3 active torsions:
REMARK  status: ('A' for Active; 'I' for Inactive)
REMARK    1  A    between atoms: N_1  and  C_2
REMARK    2  A    between atoms: C_5  and  S_8
REMARK    3  A    between atoms: S_8  and  N_9
REMARK                            x       y       z     vdW  Elec       q    Type
REMARK                         _______ _______ _______ _____ _____    ______ ____
ROOT
ATOM      1  C   UNL     1       9.998   0.953  22.210  0.00  0.00    +0.025 A 
ATOM      2  C   UNL     1       9.423  -0.047  21.418  0.00  0.00    +0.024 A 
ATOM      3  C   UNL     1       9.103  -1.294  21.961  0.00  0.00    +0.030 A 
ATOM      4  C   UNL     1       9.309  -1.522  23.322  0.00  0.00    +0.105 A 
ATOM      5  C   UNL     1       9.831  -0.516  24.138  0.00  0.00    +0.030 A 
ATOM      6  C   UNL     1      10.146   0.725  23.582  0.00  0.00    +0.024 A 
ENDROOT
BRANCH   1   7
ATOM      7  N   UNL     1      10.208   2.232  21.683  0.00  0.00    -0.358 N 
ATOM      8  H   UNL     1       9.420   2.860  21.804  0.00  0.00    +0.142 HD
ATOM      9  H   UNL     1      10.547   2.228  20.725  0.00  0.00    +0.142 HD
ENDBRANCH   1   7
BRANCH   4  10
ATOM     10  S   UNL     1       8.937  -3.103  24.018  0.00  0.00    +0.056 S 
ATOM     11  O   UNL     1      10.170  -3.798  24.305  0.00  0.00    -0.153 OA
ATOM     12  O   UNL     1       7.860  -3.712  23.273  0.00  0.00    -0.153 OA
BRANCH  10  13
ATOM     13  N   UNL     1       8.287  -2.680  25.506  0.00  0.00    -0.204 NA
ATOM     14  H   UNL     1       9.031  -2.392  26.142  0.00  0.00    +0.144 HD
ATOM     15  H   UNL     1       7.707  -3.441  25.861  0.00  0.00    +0.144 HD
ENDBRANCH  10  13
ENDBRANCH   4  10
TORSDOF 3
ENDMDL
MODEL 2
REMARK VINA RESULT:      -4.9      0.063      1.458
REMARK  Name = 
REMARK  3 active torsions:
REMARK  status: ('A' for Active; 'I' for Inactive)
REMARK    1  A    between atoms: N_1  and  C_2
REMARK    2  A    between atoms: C_5  and  S_8
REMARK    3  A    between atoms: S_8  and  N_9
REMARK                            x       y       z     vdW  Elec       q    Type
REMARK                         _______ _______ _______ _____ _____    ______ ____
ROOT
ATOM      1  C   UNL     1       9.865   1.015  22.239  0.00  0.00    +0.025 A 
ATOM      2  C   UNL     1      10.116   0.762  23.592  0.00  0.00    +0.024 A 
ATOM      3  C   UNL     1       9.838  -0.488  24.151  0.00  0.00    +0.030 A 
ATOM      4  C   UNL     1       9.357  -1.511  23.334  0.00  0.00    +0.105 A 
ATOM      5  C   UNL     1       9.154  -1.294  21.970  0.00  0.00    +0.030 A 
ATOM      6  C   UNL     1       9.435  -0.039  21.425  0.00  0.00    +0.024 A 
ENDROOT
BRANCH   1   7
ATOM      7  N   UNL     1      10.252   2.232  21.667  0.00  0.00    -0.358 N 
ATOM      8  H   UNL     1      10.519   2.936  22.346  0.00  0.00    +0.142 HD
ATOM      9  H   UNL     1       9.589   2.592  20.986  0.00  0.00    +0.142 HD
ENDBRANCH   1   7
BRANCH   4  10
ATOM     10  S   UNL     1       8.973  -3.090  24.031  0.00  0.00    +0.056 S 
ATOM     11  O   UNL     1      10.200  -3.804  24.295  0.00  0.00    -0.153 OA
ATOM     12  O   UNL     1       7.874  -3.679  23.303  0.00  0.00    -0.153 OA
BRANCH  10  13
ATOM     13  N   UNL     1       8.356  -2.662  25.532  0.00  0.00    -0.204 NA
ATOM     14  H   UNL     1       8.989  -2.969  26.270  0.00  0.00    +0.144 HD
ATOM     15  H   UNL     1       7.402  -3.013  25.629  0.00  0.00    +0.144 HD
ENDBRANCH  10  13
ENDBRANCH   4  10
TORSDOF 3
ENDMDL
MODEL 3
REMARK VINA RESULT:      -4.8      4.978      6.046
REMARK  Name = 
REMARK  3 active torsions:
REMARK  status: ('A' for Active; 'I' for Inactive)
REMARK    1  A    between atoms: N_1  and  C_2
REMARK    2  A    between atoms: C_5  and  S_8
REMARK    3  A    between atoms: S_8  and  N_9
REMARK                            x       y       z     vdW  Elec       q    Type
REMARK                         _______ _______ _______ _____ _____    ______ ____
ROOT
ATOM      1  C   UNL     1       5.345  -6.008  23.319  0.00  0.00    +0.025 A 
ATOM      2  C   UNL     1       5.390  -5.700  24.684  0.00  0.00    +0.024 A 
ATOM      3  C   UNL     1       6.556  -5.198  25.266  0.00  0.00    +0.030 A 
ATOM      4  C   UNL     1       7.669  -4.948  24.463  0.00  0.00    +0.105 A 
ATOM      5  C   UNL     1       7.624  -5.197  23.090  0.00  0.00    +0.030 A 
ATOM      6  C   UNL     1       6.452  -5.700  22.522  0.00  0.00    +0.024 A 
ENDROOT
BRANCH   1   7
ATOM      7  N   UNL     1       4.140  -6.403  22.727  0.00  0.00    -0.358 N 
ATOM      8  H   UNL     1       3.733  -7.235  23.143  0.00  0.00    +0.142 HD
ATOM      9  H   UNL     1       4.185  -6.468  21.714  0.00  0.00    +0.142 HD
ENDBRANCH   1   7
BRANCH   4  10
ATOM     10  S   UNL     1       9.162  -4.340  25.189  0.00  0.00    +0.056 S 
ATOM     11  O   UNL     1       8.886  -3.884  26.531  0.00  0.00    -0.153 OA
ATOM     12  O   UNL     1       9.867  -3.528  24.224  0.00  0.00    -0.153 OA
BRANCH  10  13
ATOM     13  N   UNL     1      10.063  -5.746  25.354  0.00  0.00    -0.204 NA
ATOM     14  H   UNL     1      10.617  -5.706  26.209  0.00  0.00    +0.144 HD
ATOM     15  H   UNL     1      10.612  -5.909  24.509  0.00  0.00    +0.144 HD
ENDBRANCH  10  13
ENDBRANCH   4  10
TORSDOF 3
ENDMDL
MODEL 4
REMARK VINA RESULT:      -4.8      2.389      2.874
REMARK  Name = 
REMARK  3 active torsions:
REMARK  status: ('A' for Active; 'I' for Inactive)
REMARK    1  A    between atoms: N_1  and  C_2
REMARK    2  A    between atoms: C_5  and  S_8
REMARK    3  A    between atoms: S_8  and  N_9
REMARK                            x       y       z     vdW  Elec       q    Type
REMARK                         _______ _______ _______ _____ _____    ______ ____
ROOT
ATOM      1  C   UNL     1       9.228  -1.694  22.077  0.00  0.00    +0.025 A 
ATOM      2  C   UNL     1       8.019  -2.393  22.177  0.00  0.00    +0.024 A 
ATOM      3  C   UNL     1       7.811  -3.318  23.203  0.00  0.00    +0.030 A 
ATOM      4  C   UNL     1       8.800  -3.503  24.170  0.00  0.00    +0.105 A 
ATOM      5  C   UNL     1       9.989  -2.773  24.117  0.00  0.00    +0.030 A 
ATOM      6  C   UNL     1      10.184  -1.853  23.085  0.00  0.00    +0.024 A 
ENDROOT
BRANCH   1   7
ATOM      7  N   UNL     1       9.381  -0.691  21.114  0.00  0.00    -0.358 N 
ATOM      8  H   UNL     1      10.346  -0.419  20.956  0.00  0.00    +0.142 HD
ATOM      9  H   UNL     1       8.779   0.114  21.264  0.00  0.00    +0.142 HD
ENDBRANCH   1   7
BRANCH   4  10
ATOM     10  S   UNL     1       8.564  -4.691  25.458  0.00  0.00    +0.056 S 
ATOM     11  O   UNL     1       7.330  -5.404  25.226  0.00  0.00    -0.153 OA
ATOM     12  O   UNL     1       8.882  -4.086  26.730  0.00  0.00    -0.153 OA
BRANCH  10  13
ATOM     13  N   UNL     1       9.797  -5.786  25.147  0.00  0.00    -0.204 NA
ATOM     14  H   UNL     1       9.572  -6.337  24.318  0.00  0.00    +0.144 HD
ATOM     15  H   UNL     1       9.984  -6.345  25.980  0.00  0.00    +0.144 HD
ENDBRANCH  10  13
ENDBRANCH   4  10
TORSDOF 3
ENDMDL
MODEL 5
REMARK VINA RESULT:      -4.8      2.548      3.077
REMARK  Name = 
REMARK  3 active torsions:
REMARK  status: ('A' for Active; 'I' for Inactive)
REMARK    1  A    between atoms: N_1  and  C_2
REMARK    2  A    between atoms: C_5  and  S_8
REMARK    3  A    between atoms: S_8  and  N_9
REMARK                            x       y       z     vdW  Elec       q    Type
REMARK                         _______ _______ _______ _____ _____    ______ ____
ROOT
ATOM      1  C   UNL     1       9.427  -0.484  25.231  0.00  0.00    +0.025 A 
ATOM      2  C   UNL     1       9.863  -1.219  24.123  0.00  0.00    +0.024 A 
ATOM      3  C   UNL     1       9.662  -2.600  24.056  0.00  0.00    +0.030 A 
ATOM      4  C   UNL     1       8.967  -3.241  25.081  0.00  0.00    +0.105 A 
ATOM      5  C   UNL     1       8.475  -2.515  26.167  0.00  0.00    +0.030 A 
ATOM      6  C   UNL     1       8.684  -1.135  26.222  0.00  0.00    +0.024 A 
ENDROOT
BRANCH   1   7
ATOM      7  N   UNL     1       9.533   0.911  25.236  0.00  0.00    -0.358 N 
ATOM      8  H   UNL     1       9.156   1.353  24.404  0.00  0.00    +0.142 HD
ATOM      9  H   UNL     1      10.466   1.248  25.456  0.00  0.00    +0.142 HD
ENDBRANCH   1   7
BRANCH   4  10
ATOM     10  S   UNL     1       8.729  -4.992  25.024  0.00  0.00    +0.056 S 
ATOM     11  O   UNL     1       8.455  -5.391  23.664  0.00  0.00    -0.153 OA
ATOM     12  O   UNL     1       7.897  -5.397  26.134  0.00  0.00    -0.153 OA
BRANCH  10  13
ATOM     13  N   UNL     1      10.269  -5.560  25.372  0.00  0.00    -0.204 NA
ATOM     14  H   UNL     1      10.528  -5.305  26.325  0.00  0.00    +0.144 HD
ATOM     15  H   UNL     1      10.927  -5.238  24.662  0.00  0.00    +0.144 HD
ENDBRANCH  10  13
ENDBRANCH   4  10
TORSDOF 3
ENDMDL
MODEL 6
REMARK VINA RESULT:      -4.8      1.164      1.327
REMARK  Name = 
REMARK  3 active torsions:
REMARK  status: ('A' for Active; 'I' for Inactive)
REMARK    1  A    between atoms: N_1  and  C_2
REMARK    2  A    between atoms: C_5  and  S_8
REMARK    3  A    between atoms: S_8  and  N_9
REMARK                            x       y       z     vdW  Elec       q    Type
REMARK                         _______ _______ _______ _____ _____    ______ ____
ROOT
ATOM      1  C   UNL     1      10.452   2.128  23.046  0.00  0.00    +0.025 A 
ATOM      2  C   UNL     1       9.904   1.470  21.939  0.00  0.00    +0.024 A 
ATOM      3  C   UNL     1       9.500   0.136  22.027  0.00  0.00    +0.030 A 
ATOM      4  C   UNL     1       9.592  -0.528  23.250  0.00  0.00    +0.105 A 
ATOM      5  C   UNL     1      10.083   0.131  24.380  0.00  0.00    +0.030 A 
ATOM      6  C   UNL     1      10.485   1.464  24.277  0.00  0.00    +0.024 A 
ENDROOT
BRANCH   1   7
ATOM      7  N   UNL     1      10.748   3.494  22.976  0.00  0.00    -0.358 N 
ATOM      8  H   UNL     1      11.157   3.780  22.093  0.00  0.00    +0.142 HD
ATOM      9  H   UNL     1      11.280   3.837  23.771  0.00  0.00    +0.142 HD
ENDBRANCH   1   7
BRANCH   4  10
ATOM     10  S   UNL     1       9.111  -2.225  23.372  0.00  0.00    +0.056 S 
ATOM     11  O   UNL     1      10.235  -3.005  23.833  0.00  0.00    -0.153 OA
ATOM     12  O   UNL     1       8.342  -2.588  22.204  0.00  0.00    -0.153 OA
BRANCH  10  13
ATOM     13  N   UNL     1       8.021  -2.183  24.647  0.00  0.00    -0.204 NA
ATOM     14  H   UNL     1       7.080  -2.006  24.296  0.00  0.00    +0.144 HD
ATOM     15  H   UNL     1       8.335  -1.516  25.352  0.00  0.00    +0.144 HD
ENDBRANCH  10  13
ENDBRANCH   4  10
TORSDOF 3
ENDMDL
MODEL 7
REMARK VINA RESULT:      -4.5      4.503      5.379
REMARK  Name = 
REMARK  3 active torsions:
REMARK  status: ('A' for Active; 'I' for Inactive)
REMARK    1  A    between atoms: N_1  and  C_2
REMARK    2  A    between atoms: C_5  and  S_8
REMARK    3  A    between atoms: S_8  and  N_9
REMARK                            x       y       z     vdW  Elec       q    Type
REMARK                         _______ _______ _______ _____ _____    ______ ____
ROOT
ATOM      1  C   UNL     1      10.058  -0.182  22.318  0.00  0.00    +0.025 A 
ATOM      2  C   UNL     1      10.481   0.175  23.603  0.00  0.00    +0.024 A 
ATOM      3  C   UNL     1      10.289   1.472  24.085  0.00  0.00    +0.030 A 
ATOM      4  C   UNL     1       9.617   2.404  23.293  0.00  0.00    +0.105 A 
ATOM      5  C   UNL     1       9.139   2.049  22.030  0.00  0.00    +0.030 A 
ATOM      6  C   UNL     1       9.339   0.749  21.561  0.00  0.00    +0.024 A 
ENDROOT
BRANCH   1   7
ATOM      7  N   UNL     1      10.154  -1.511  21.890  0.00  0.00    -0.358 N 
ATOM      8  H   UNL     1       9.458  -1.770  21.199  0.00  0.00    +0.142 HD
ATOM      9  H   UNL     1      10.202  -2.182  22.652  0.00  0.00    +0.142 HD
ENDBRANCH   1   7
BRANCH   4  10
ATOM     10  S   UNL     1       9.392   4.058  23.877  0.00  0.00    +0.056 S 
ATOM     11  O   UNL     1      10.621   4.795  23.702  0.00  0.00    -0.153 OA
ATOM     12  O   UNL     1       8.677   4.029  25.131  0.00  0.00    -0.153 OA
BRANCH  10  13
ATOM     13  N   UNL     1       8.316   4.678  22.748  0.00  0.00    -0.204 NA
ATOM     14  H   UNL     1       8.304   5.696  22.800  0.00  0.00    +0.144 HD
ATOM     15  H   UNL     1       7.400   4.244  22.866  0.00  0.00    +0.144 HD
ENDBRANCH  10  13
ENDBRANCH   4  10
TORSDOF 3
ENDMDL
MODEL 8
REMARK VINA RESULT:      -4.4      2.050      2.159
REMARK  Name = 
REMARK  3 active torsions:
REMARK  status: ('A' for Active; 'I' for Inactive)
REMARK    1  A    between atoms: N_1  and  C_2
REMARK    2  A    between atoms: C_5  and  S_8
REMARK    3  A    between atoms: S_8  and  N_9
REMARK                            x       y       z     vdW  Elec       q    Type
REMARK                         _______ _______ _______ _____ _____    ______ ____
ROOT
ATOM      1  C   UNL     1       9.226   0.953  22.003  0.00  0.00    +0.025 A 
ATOM      2  C   UNL     1       9.770  -0.283  21.632  0.00  0.00    +0.024 A 
ATOM      3  C   UNL     1       9.118  -1.476  21.952  0.00  0.00    +0.030 A 
ATOM      4  C   UNL     1       7.883  -1.430  22.600  0.00  0.00    +0.105 A 
ATOM      5  C   UNL     1       7.299  -0.205  22.927  0.00  0.00    +0.030 A 
ATOM      6  C   UNL     1       7.962   0.980  22.602  0.00  0.00    +0.024 A 
ENDROOT
BRANCH   1   7
ATOM      7  N   UNL     1       9.829   2.142  21.579  0.00  0.00    -0.358 N 
ATOM      8  H   UNL     1       9.640   2.935  22.183  0.00  0.00    +0.142 HD
ATOM      9  H   UNL     1       9.658   2.360  20.601  0.00  0.00    +0.142 HD
ENDBRANCH   1   7
BRANCH   4  10
ATOM     10  S   UNL     1       7.060  -2.932  23.037  0.00  0.00    +0.056 S 
ATOM     11  O   UNL     1       6.936  -3.005  24.474  0.00  0.00    -0.153 OA
ATOM     12  O   UNL     1       7.596  -4.018  22.249  0.00  0.00    -0.153 OA
BRANCH  10  13
ATOM     13  N   UNL     1       5.511  -2.659  22.452  0.00  0.00    -0.204 NA
ATOM     14  H   UNL     1       4.917  -2.293  23.196  0.00  0.00    +0.144 HD
ATOM     15  H   UNL     1       5.152  -3.506  22.011  0.00  0.00    +0.144 HD
ENDBRANCH  10  13
ENDBRANCH   4  10
TORSDOF 3
ENDMDL
MODEL 9
REMARK VINA RESULT:      -4.4      5.865      7.100
REMARK  Name = 
REMARK  3 active torsions:
REMARK  status: ('A' for Active; 'I' for Inactive)
REMARK    1  A    between atoms: N_1  and  C_2
REMARK    2  A    between atoms: C_5  and  S_8
REMARK    3  A    between atoms: S_8  and  N_9
REMARK                            x       y       z     vdW  Elec       q    Type
REMARK                         _______ _______ _______ _____ _____    ______ ____
ROOT
ATOM      1  C   UNL     1       4.221  -6.328  23.794  0.00  0.00    +0.025 A 
ATOM      2  C   UNL     1       5.332  -5.563  23.419  0.00  0.00    +0.024 A 
ATOM      3  C   UNL     1       6.309  -5.213  24.354  0.00  0.00    +0.030 A 
ATOM      4  C   UNL     1       6.202  -5.682  25.664  0.00  0.00    +0.105 A 
ATOM      5  C   UNL     1       5.130  -6.493  26.042  0.00  0.00    +0.030 A 
ATOM      6  C   UNL     1       4.160  -6.833  25.097  0.00  0.00    +0.024 A 
ENDROOT
BRANCH   1   7
ATOM      7  N   UNL     1       3.310  -6.765  22.826  0.00  0.00    -0.358 N 
ATOM      8  H   UNL     1       3.284  -7.774  22.715  0.00  0.00    +0.142 HD
ATOM      9  H   UNL     1       3.401  -6.287  21.935  0.00  0.00    +0.142 HD
ENDBRANCH   1   7
BRANCH   4  10
ATOM     10  S   UNL     1       7.414  -5.224  26.866  0.00  0.00    +0.056 S 
ATOM     11  O   UNL     1       7.190  -5.978  28.077  0.00  0.00    -0.153 OA
ATOM     12  O   UNL     1       7.572  -3.789  26.864  0.00  0.00    -0.153 OA
BRANCH  10  13
ATOM     13  N   UNL     1       8.820  -5.843  26.190  0.00  0.00    -0.204 NA
ATOM     14  H   UNL     1       9.237  -6.529  26.819  0.00  0.00    +0.144 HD
ATOM     15  H   UNL     1       9.447  -5.081  25.931  0.00  0.00    +0.144 HD
ENDBRANCH  10  13
ENDBRANCH   4  10
TORSDOF 3
ENDMDL
