MODEL 1
REMARK VINA RESULT:      -4.9      0.000      0.000
REMARK  Name = 
REMARK  6 active torsions:
REMARK  status: ('A' for Active; 'I' for Inactive)
REMARK    1  A    between atoms: O_1  and  C_2
REMARK    2  A    between atoms: C_2  and  C_4
REMARK    3  A    between atoms: C_4  and  S_5
REMARK    4  A    between atoms: S_5  and  C_6
REMARK    5  A    between atoms: C_6  and  C_7
REMARK    6  A    between atoms: N_9  and  C_10
REMARK                            x       y       z     vdW  Elec       q    Type
REMARK                         _______ _______ _______ _____ _____    ______ ____
ROOT
ATOM      1  C   UNL     1       8.992  -2.994  23.721  0.00  0.00    +0.223 C 
ATOM      2  N   UNL     1       8.611  -1.756  23.264  0.00  0.00    -0.304 N 
ATOM      3  H   UNL     1       7.627  -1.525  23.164  0.00  0.00    +0.149 HD
ATOM      4  O   UNL     1      10.154  -3.258  24.021  0.00  0.00    -0.275 OA
ENDROOT
BRANCH   2   5
ATOM      5  C   UNL     1       9.586  -0.684  23.132  0.00  0.00    +0.151 C 
ATOM      6  C   UNL     1       9.644   0.203  24.366  0.00  0.00    +0.209 C 
ATOM      7  O   UNL     1       9.418  -0.157  25.511  0.00  0.00    -0.283 OA
ATOM      8  S   UNL     1      10.084   1.851  23.932  0.00  0.00    -0.086 S 
ATOM      9  C   UNL     1      10.134   1.486  22.153  0.00  0.00    +0.079 C 
ATOM     10  C   UNL     1       9.234   0.273  21.995  0.00  0.00    +0.042 C 
ENDBRANCH   2   5
BRANCH   1  11
ATOM     11  C   UNL     1       7.894  -4.043  23.754  0.00  0.00    +0.165 C 
BRANCH  11  12
ATOM     12  S   UNL     1       6.593  -3.566  24.942  0.00  0.00    -0.140 S 
BRANCH  12  13
ATOM     13  C   UNL     1       7.585  -3.541  26.492  0.00  0.00    +0.189 C 
BRANCH  13  14
ATOM     14  C   UNL     1       8.238  -4.882  26.778  0.00  0.00    +0.315 C 
ATOM     15  O   UNL     1       7.598  -5.893  27.037  0.00  0.00    -0.250 OA
BRANCH  14  16
ATOM     16  O   UNL     1       9.590  -4.886  26.737  0.00  0.00    -0.480 OA
ATOM     17  H   UNL     1       9.957  -4.541  27.580  0.00  0.00    +0.295 HD
ENDBRANCH  14  16
ENDBRANCH  13  14
ENDBRANCH  12  13
ENDBRANCH  11  12
ENDBRANCH   1  11
TORSDOF 6
ENDMDL
MODEL 2
REMARK VINA RESULT:      -4.8      2.001      2.439
REMARK  Name = 
REMARK  6 active torsions:
REMARK  status: ('A' for Active; 'I' for Inactive)
REMARK    1  A    between atoms: O_1  and  C_2
REMARK    2  A    between atoms: C_2  and  C_4
REMARK    3  A    between atoms: C_4  and  S_5
REMARK    4  A    between atoms: S_5  and  C_6
REMARK    5  A    between atoms: C_6  and  C_7
REMARK    6  A    between atoms: N_9  and  C_10
REMARK                            x       y       z     vdW  Elec       q    Type
REMARK                         _______ _______ _______ _____ _____    ______ ____
ROOT
ATOM      1  C   UNL     1       7.116  -3.753  22.516  0.00  0.00    +0.223 C 
ATOM      2  N   UNL     1       8.100  -2.885  22.921  0.00  0.00    -0.304 N 
ATOM      3  H   UNL     1       8.809  -3.183  23.586  0.00  0.00    +0.149 HD
ATOM      4  O   UNL     1       6.348  -3.495  21.591  0.00  0.00    -0.275 OA
ENDROOT
BRANCH   2   5
ATOM      5  C   UNL     1       8.286  -1.609  22.246  0.00  0.00    +0.151 C 
ATOM      6  C   UNL     1       9.733  -1.144  22.269  0.00  0.00    +0.209 C 
ATOM      7  O   UNL     1      10.713  -1.873  22.282  0.00  0.00    -0.283 OA
ATOM      8  S   UNL     1       9.826   0.613  22.277  0.00  0.00    -0.086 S 
ATOM      9  C   UNL     1       8.022   0.818  22.330  0.00  0.00    +0.079 C 
ATOM     10  C   UNL     1       7.516  -0.482  22.930  0.00  0.00    +0.042 C 
ENDBRANCH   2   5
BRANCH   1  11
ATOM     11  C   UNL     1       6.986  -5.021  23.340  0.00  0.00    +0.165 C 
BRANCH  11  12
ATOM     12  S   UNL     1       6.387  -4.632  25.020  0.00  0.00    -0.140 S 
BRANCH  12  13
ATOM     13  C   UNL     1       7.753  -5.365  26.012  0.00  0.00    +0.189 C 
BRANCH  13  14
ATOM     14  C   UNL     1       9.120  -4.931  25.515  0.00  0.00    +0.315 C 
ATOM     15  O   UNL     1       9.433  -3.757  25.367  0.00  0.00    -0.250 OA
BRANCH  14  16
ATOM     16  O   UNL     1       9.979  -5.938  25.233  0.00  0.00    -0.480 OA
ATOM     17  H   UNL     1       9.595  -6.530  24.550  0.00  0.00    +0.295 HD
ENDBRANCH  14  16
ENDBRANCH  13  14
ENDBRANCH  12  13
ENDBRANCH  11  12
ENDBRANCH   1  11
TORSDOF 6
ENDMDL
MODEL 3
REMARK VINA RESULT:      -4.8      1.774      2.074
REMARK  Name = 
REMARK  6 active torsions:
REMARK  status: ('A' for Active; 'I' for Inactive)
REMARK    1  A    between atoms: O_1  and  C_2
REMARK    2  A    between atoms: C_2  and  C_4
REMARK    3  A    between atoms: C_4  and  S_5
REMARK    4  A    between atoms: S_5  and  C_6
REMARK    5  A    between atoms: C_6  and  C_7
REMARK    6  A    between atoms: N_9  and  C_10
REMARK                            x       y       z     vdW  Elec       q    Type
REMARK                         _______ _______ _______ _____ _____    ______ ____
ROOT
ATOM      1  C   UNL     1       7.364  -4.671  23.559  0.00  0.00    +0.223 C 
ATOM      2  N   UNL     1       7.464  -3.322  23.319  0.00  0.00    -0.304 N 
ATOM      3  H   UNL     1       6.639  -2.730  23.358  0.00  0.00    +0.149 HD
ATOM      4  O   UNL     1       8.351  -5.392  23.695  0.00  0.00    -0.275 OA
ENDROOT
BRANCH   2   5
ATOM      5  C   UNL     1       8.767  -2.681  23.233  0.00  0.00    +0.151 C 
ATOM      6  C   UNL     1       9.121  -1.912  24.496  0.00  0.00    +0.209 C 
ATOM      7  O   UNL     1       8.756  -2.197  25.627  0.00  0.00    -0.283 OA
ATOM      8  S   UNL     1      10.145  -0.531  24.123  0.00  0.00    -0.086 S 
ATOM      9  C   UNL     1      10.093  -0.837  22.333  0.00  0.00    +0.079 C 
ATOM     10  C   UNL     1       8.815  -1.629  22.127  0.00  0.00    +0.042 C 
ENDBRANCH   2   5
BRANCH   1  11
ATOM     11  C   UNL     1       5.952  -5.229  23.565  0.00  0.00    +0.165 C 
BRANCH  11  12
ATOM     12  S   UNL     1       5.574  -5.989  25.181  0.00  0.00    -0.140 S 
BRANCH  12  13
ATOM     13  C   UNL     1       6.350  -4.746  26.296  0.00  0.00    +0.189 C 
BRANCH  13  14
ATOM     14  C   UNL     1       7.452  -5.348  27.149  0.00  0.00    +0.315 C 
ATOM     15  O   UNL     1       7.229  -6.034  28.139  0.00  0.00    -0.250 OA
BRANCH  14  16
ATOM     16  O   UNL     1       8.713  -5.067  26.747  0.00  0.00    -0.480 OA
ATOM     17  H   UNL     1       8.790  -4.118  26.509  0.00  0.00    +0.295 HD
ENDBRANCH  14  16
ENDBRANCH  13  14
ENDBRANCH  12  13
ENDBRANCH  11  12
ENDBRANCH   1  11
TORSDOF 6
ENDMDL
MODEL 4
REMARK VINA RESULT:      -4.8      2.403      3.123
REMARK  Name = 
REMARK  6 active torsions:
REMARK  status: ('A' for Active; 'I' for Inactive)
REMARK    1  A    between atoms: O_1  and  C_2
REMARK    2  A    between atoms: C_2  and  C_4
REMARK    3  A    between atoms: C_4  and  S_5
REMARK    4  A    between atoms: S_5  and  C_6
REMARK    5  A    between atoms: C_6  and  C_7
REMARK    6  A    between atoms: N_9  and  C_10
REMARK                            x       y       z     vdW  Elec       q    Type
REMARK                         _______ _______ _______ _____ _____    ______ ____
ROOT
ATOM      1  C   UNL     1       9.072  -2.599  24.063  0.00  0.00    +0.223 C 
ATOM      2  N   UNL     1       8.663  -1.308  23.838  0.00  0.00    -0.304 N 
ATOM      3  H   UNL     1       7.797  -0.963  24.244  0.00  0.00    +0.149 HD
ATOM      4  O   UNL     1      10.187  -3.004  23.741  0.00  0.00    -0.275 OA
ENDROOT
BRANCH   2   5
ATOM      5  C   UNL     1       9.560  -0.346  23.215  0.00  0.00    +0.151 C 
ATOM      6  C   UNL     1      10.202   0.590  24.226  0.00  0.00    +0.209 C 
ATOM      7  O   UNL     1      10.465   0.311  25.386  0.00  0.00    -0.283 OA
ATOM      8  S   UNL     1      10.528   2.162  23.506  0.00  0.00    -0.086 S 
ATOM      9  C   UNL     1       9.785   1.708  21.912  0.00  0.00    +0.079 C 
ATOM     10  C   UNL     1       8.822   0.585  22.255  0.00  0.00    +0.042 C 
ENDBRANCH   2   5
BRANCH   1  11
ATOM     11  C   UNL     1       8.024  -3.519  24.663  0.00  0.00    +0.165 C 
BRANCH  11  12
ATOM     12  S   UNL     1       7.923  -5.076  23.714  0.00  0.00    -0.140 S 
BRANCH  12  13
ATOM     13  C   UNL     1       7.025  -4.471  22.226  0.00  0.00    +0.189 C 
BRANCH  13  14
ATOM     14  C   UNL     1       6.337  -5.597  21.474  0.00  0.00    +0.315 C 
ATOM     15  O   UNL     1       5.967  -5.493  20.311  0.00  0.00    -0.250 OA
BRANCH  14  16
ATOM     16  O   UNL     1       6.146  -6.733  22.182  0.00  0.00    -0.480 OA
ATOM     17  H   UNL     1       6.993  -7.221  22.278  0.00  0.00    +0.295 HD
ENDBRANCH  14  16
ENDBRANCH  13  14
ENDBRANCH  12  13
ENDBRANCH  11  12
ENDBRANCH   1  11
TORSDOF 6
ENDMDL
MODEL 5
REMARK VINA RESULT:      -4.7      2.336      5.708
REMARK  Name = 
REMARK  6 active torsions:
REMARK  status: ('A' for Active; 'I' for Inactive)
REMARK    1  A    between atoms: O_1  and  C_2
REMARK    2  A    between atoms: C_2  and  C_4
REMARK    3  A    between atoms: C_4  and  S_5
REMARK    4  A    between atoms: S_5  and  C_6
REMARK    5  A    between atoms: C_6  and  C_7
REMARK    6  A    between atoms: N_9  and  C_10
REMARK                            x       y       z     vdW  Elec       q    Type
REMARK                         _______ _______ _______ _____ _____    ______ ____
ROOT
ATOM      1  C   UNL     1       9.229  -2.256  23.359  0.00  0.00    +0.223 C 
ATOM      2  N   UNL     1       8.182  -2.743  22.615  0.00  0.00    -0.304 N 
ATOM      3  H   UNL     1       8.247  -2.786  21.601  0.00  0.00    +0.149 HD
ATOM      4  O   UNL     1       9.265  -2.346  24.584  0.00  0.00    -0.275 OA
ENDROOT
BRANCH   2   5
ATOM      5  C   UNL     1       7.065  -3.414  23.261  0.00  0.00    +0.151 C 
ATOM      6  C   UNL     1       7.200  -4.929  23.231  0.00  0.00    +0.209 C 
ATOM      7  O   UNL     1       8.252  -5.548  23.238  0.00  0.00    -0.283 OA
ATOM      8  S   UNL     1       5.618  -5.698  23.182  0.00  0.00    -0.086 S 
ATOM      9  C   UNL     1       4.729  -4.115  23.119  0.00  0.00    +0.079 C 
ATOM     10  C   UNL     1       5.742  -3.139  22.548  0.00  0.00    +0.042 C 
ENDBRANCH   2   5
BRANCH   1  11
ATOM     11  C   UNL     1      10.302  -1.524  22.573  0.00  0.00    +0.165 C 
BRANCH  11  12
ATOM     12  S   UNL     1       9.611  -0.024  21.795  0.00  0.00    -0.140 S 
BRANCH  12  13
ATOM     13  C   UNL     1       9.004   0.851  23.297  0.00  0.00    +0.189 C 
BRANCH  13  14
ATOM     14  C   UNL     1      10.131   1.198  24.254  0.00  0.00    +0.315 C 
ATOM     15  O   UNL     1      11.010   2.006  23.983  0.00  0.00    -0.250 OA
BRANCH  14  16
ATOM     16  O   UNL     1      10.108   0.541  25.436  0.00  0.00    -0.480 OA
ATOM     17  H   UNL     1      10.192   1.177  26.180  0.00  0.00    +0.295 HD
ENDBRANCH  14  16
ENDBRANCH  13  14
ENDBRANCH  12  13
ENDBRANCH  11  12
ENDBRANCH   1  11
TORSDOF 6
ENDMDL
MODEL 6
REMARK VINA RESULT:      -4.7      2.471      3.168
REMARK  Name = 
REMARK  6 active torsions:
REMARK  status: ('A' for Active; 'I' for Inactive)
REMARK    1  A    between atoms: O_1  and  C_2
REMARK    2  A    between atoms: C_2  and  C_4
REMARK    3  A    between atoms: C_4  and  S_5
REMARK    4  A    between atoms: S_5  and  C_6
REMARK    5  A    between atoms: C_6  and  C_7
REMARK    6  A    between atoms: N_9  and  C_10
REMARK                            x       y       z     vdW  Elec       q    Type
REMARK                         _______ _______ _______ _____ _____    ______ ____
ROOT
ATOM      1  C   UNL     1       8.861  -4.273  24.782  0.00  0.00    +0.223 C 
ATOM      2  N   UNL     1       8.443  -3.110  24.184  0.00  0.00    -0.304 N 
ATOM      3  H   UNL     1       7.492  -2.777  24.314  0.00  0.00    +0.149 HD
ATOM      4  O   UNL     1      10.040  -4.621  24.796  0.00  0.00    -0.275 OA
ENDROOT
BRANCH   2   5
ATOM      5  C   UNL     1       9.401  -2.220  23.547  0.00  0.00    +0.151 C 
ATOM      6  C   UNL     1       9.573  -0.913  24.304  0.00  0.00    +0.209 C 
ATOM      7  O   UNL     1       9.455  -0.771  25.512  0.00  0.00    -0.283 OA
ATOM      8  S   UNL     1       9.972   0.401  23.204  0.00  0.00    -0.086 S 
ATOM      9  C   UNL     1       9.856  -0.653  21.729  0.00  0.00    +0.079 C 
ATOM     10  C   UNL     1       8.946  -1.791  22.153  0.00  0.00    +0.042 C 
ENDBRANCH   2   5
BRANCH   1  11
ATOM     11  C   UNL     1       7.758  -5.144  25.357  0.00  0.00    +0.165 C 
BRANCH  11  12
ATOM     12  S   UNL     1       6.124  -4.560  24.789  0.00  0.00    -0.140 S 
BRANCH  12  13
ATOM     13  C   UNL     1       5.715  -5.902  23.597  0.00  0.00    +0.189 C 
BRANCH  13  14
ATOM     14  C   UNL     1       6.102  -5.542  22.173  0.00  0.00    +0.315 C 
ATOM     15  O   UNL     1       6.957  -4.707  21.906  0.00  0.00    -0.250 OA
BRANCH  14  16
ATOM     16  O   UNL     1       5.426  -6.203  21.206  0.00  0.00    -0.480 OA
ATOM     17  H   UNL     1       4.685  -6.715  21.598  0.00  0.00    +0.295 HD
ENDBRANCH  14  16
ENDBRANCH  13  14
ENDBRANCH  12  13
ENDBRANCH  11  12
ENDBRANCH   1  11
TORSDOF 6
ENDMDL
MODEL 7
REMARK VINA RESULT:      -4.7      2.984      6.475
REMARK  Name = 
REMARK  6 active torsions:
REMARK  status: ('A' for Active; 'I' for Inactive)
REMARK    1  A    between atoms: O_1  and  C_2
REMARK    2  A    between atoms: C_2  and  C_4
REMARK    3  A    between atoms: C_4  and  S_5
REMARK    4  A    between atoms: S_5  and  C_6
REMARK    5  A    between atoms: C_6  and  C_7
REMARK    6  A    between atoms: N_9  and  C_10
REMARK                            x       y       z     vdW  Elec       q    Type
REMARK                         _______ _______ _______ _____ _____    ______ ____
ROOT
ATOM      1  C   UNL     1       8.849  -3.515  24.017  0.00  0.00    +0.223 C 
ATOM      2  N   UNL     1       7.534  -3.453  23.626  0.00  0.00    -0.304 N 
ATOM      3  H   UNL     1       7.153  -2.596  23.236  0.00  0.00    +0.149 HD
ATOM      4  O   UNL     1       9.396  -4.571  24.329  0.00  0.00    -0.275 OA
ENDROOT
BRANCH   2   5
ATOM      5  C   UNL     1       6.728  -4.662  23.548  0.00  0.00    +0.151 C 
ATOM      6  C   UNL     1       5.542  -4.510  22.608  0.00  0.00    +0.209 C 
ATOM      7  O   UNL     1       5.509  -3.798  21.616  0.00  0.00    -0.283 OA
ATOM      8  S   UNL     1       4.193  -5.508  23.137  0.00  0.00    -0.086 S 
ATOM      9  C   UNL     1       5.064  -6.094  24.619  0.00  0.00    +0.079 C 
ATOM     10  C   UNL     1       6.099  -5.019  24.894  0.00  0.00    +0.042 C 
ENDBRANCH   2   5
BRANCH   1  11
ATOM     11  C   UNL     1       9.563  -2.179  24.117  0.00  0.00    +0.165 C 
BRANCH  11  12
ATOM     12  S   UNL     1       9.878  -1.498  22.452  0.00  0.00    -0.140 S 
BRANCH  12  13
ATOM     13  C   UNL     1      10.193   0.261  22.893  0.00  0.00    +0.189 C 
BRANCH  13  14
ATOM     14  C   UNL     1       9.662   1.220  21.843  0.00  0.00    +0.315 C 
ATOM     15  O   UNL     1       8.656   0.994  21.183  0.00  0.00    -0.250 OA
BRANCH  14  16
ATOM     16  O   UNL     1      10.385   2.350  21.673  0.00  0.00    -0.480 OA
ATOM     17  H   UNL     1      10.298   2.674  20.750  0.00  0.00    +0.295 HD
ENDBRANCH  14  16
ENDBRANCH  13  14
ENDBRANCH  12  13
ENDBRANCH  11  12
ENDBRANCH   1  11
TORSDOF 6
ENDMDL
MODEL 8
REMARK VINA RESULT:      -4.7      2.617      3.086
REMARK  Name = 
REMARK  6 active torsions:
REMARK  status: ('A' for Active; 'I' for Inactive)
REMARK    1  A    between atoms: O_1  and  C_2
REMARK    2  A    between atoms: C_2  and  C_4
REMARK    3  A    between atoms: C_4  and  S_5
REMARK    4  A    between atoms: S_5  and  C_6
REMARK    5  A    between atoms: C_6  and  C_7
REMARK    6  A    between atoms: N_9  and  C_10
REMARK                            x       y       z     vdW  Elec       q    Type
REMARK                         _______ _______ _______ _____ _____    ______ ____
ROOT
ATOM      1  C   UNL     1       8.533  -2.936  23.964  0.00  0.00    +0.223 C 
ATOM      2  N   UNL     1       8.487  -2.132  22.851  0.00  0.00    -0.304 N 
ATOM      3  H   UNL     1       8.037  -2.457  22.000  0.00  0.00    +0.149 HD
ATOM      4  O   UNL     1       8.909  -2.525  25.060  0.00  0.00    -0.275 OA
ENDROOT
BRANCH   2   5
ATOM      5  C   UNL     1       8.872  -0.731  22.934  0.00  0.00    +0.151 C 
ATOM      6  C   UNL     1       7.672   0.202  22.927  0.00  0.00    +0.209 C 
ATOM      7  O   UNL     1       6.564  -0.060  23.372  0.00  0.00    -0.283 OA
ATOM      8  S   UNL     1       8.081   1.742  22.181  0.00  0.00    -0.086 S 
ATOM      9  C   UNL     1       9.774   1.223  21.780  0.00  0.00    +0.079 C 
ATOM     10  C   UNL     1       9.698  -0.292  21.728  0.00  0.00    +0.042 C 
ENDBRANCH   2   5
BRANCH   1  11
ATOM     11  C   UNL     1       8.166  -4.391  23.733  0.00  0.00    +0.165 C 
BRANCH  11  12
ATOM     12  S   UNL     1       6.772  -4.875  24.807  0.00  0.00    -0.140 S 
BRANCH  12  13
ATOM     13  C   UNL     1       5.578  -3.539  24.384  0.00  0.00    +0.189 C 
BRANCH  13  14
ATOM     14  C   UNL     1       5.121  -3.614  22.938  0.00  0.00    +0.315 C 
ATOM     15  O   UNL     1       4.453  -4.542  22.498  0.00  0.00    -0.250 OA
BRANCH  14  16
ATOM     16  O   UNL     1       5.512  -2.584  22.153  0.00  0.00    -0.480 OA
ATOM     17  H   UNL     1       6.136  -2.004  22.641  0.00  0.00    +0.295 HD
ENDBRANCH  14  16
ENDBRANCH  13  14
ENDBRANCH  12  13
ENDBRANCH  11  12
ENDBRANCH   1  11
TORSDOF 6
ENDMDL
MODEL 9
REMARK VINA RESULT:      -4.6      2.720      3.573
REMARK  Name = 
REMARK  6 active torsions:
REMARK  status: ('A' for Active; 'I' for Inactive)
REMARK    1  A    between atoms: O_1  and  C_2
REMARK    2  A    between atoms: C_2  and  C_4
REMARK    3  A    between atoms: C_4  and  S_5
REMARK    4  A    between atoms: S_5  and  C_6
REMARK    5  A    between atoms: C_6  and  C_7
REMARK    6  A    between atoms: N_9  and  C_10
REMARK                            x       y       z     vdW  Elec       q    Type
REMARK                         _______ _______ _______ _____ _____    ______ ____
ROOT
ATOM      1  C   UNL     1       8.354  -2.582  24.029  0.00  0.00    +0.223 C 
ATOM      2  N   UNL     1       9.452  -1.761  23.964  0.00  0.00    -0.304 N 
ATOM      3  H   UNL     1      10.386  -2.155  23.884  0.00  0.00    +0.149 HD
ATOM      4  O   UNL     1       7.204  -2.154  23.951  0.00  0.00    -0.275 OA
ENDROOT
BRANCH   2   5
ATOM      5  C   UNL     1       9.294  -0.327  23.777  0.00  0.00    +0.151 C 
ATOM      6  C   UNL     1       9.514   0.100  22.334  0.00  0.00    +0.209 C 
ATOM      7  O   UNL     1       9.279  -0.582  21.348  0.00  0.00    -0.283 OA
ATOM      8  S   UNL     1      10.166   1.732  22.256  0.00  0.00    -0.086 S 
ATOM      9  C   UNL     1      10.254   1.901  24.063  0.00  0.00    +0.079 C 
ATOM     10  C   UNL     1      10.328   0.471  24.568  0.00  0.00    +0.042 C 
ENDBRANCH   2   5
BRANCH   1  11
ATOM     11  C   UNL     1       8.651  -4.049  24.287  0.00  0.00    +0.165 C 
BRANCH  11  12
ATOM     12  S   UNL     1       7.130  -5.046  24.122  0.00  0.00    -0.140 S 
BRANCH  12  13
ATOM     13  C   UNL     1       7.355  -5.667  22.404  0.00  0.00    +0.189 C 
BRANCH  13  14
ATOM     14  C   UNL     1       6.368  -5.043  21.434  0.00  0.00    +0.315 C 
ATOM     15  O   UNL     1       5.933  -5.633  20.453  0.00  0.00    -0.250 OA
BRANCH  14  16
ATOM     16  O   UNL     1       6.002  -3.772  21.720  0.00  0.00    -0.480 OA
ATOM     17  H   UNL     1       5.691  -3.709  22.649  0.00  0.00    +0.295 HD
ENDBRANCH  14  16
ENDBRANCH  13  14
ENDBRANCH  12  13
ENDBRANCH  11  12
ENDBRANCH   1  11
TORSDOF 6
ENDMDL
