MODEL 1
REMARK VINA RESULT:      -6.4      0.000      0.000
REMARK  Name = 
REMARK  9 active torsions:
REMARK  status: ('A' for Active; 'I' for Inactive)
REMARK    1  A    between atoms: C_1  and  C_2
REMARK    2  A    between atoms: C_4  and  C_28
REMARK    3  A    between atoms: C_6  and  C_7
REMARK    4  A    between atoms: C_8  and  O_9
REMARK    5  A    between atoms: O_9  and  C_10
REMARK    6  A    between atoms: CA_13  and  C_14
REMARK    7  A    between atoms: C_14  and  O_15
REMARK    8  A    between atoms: N_18  and  C_19
REMARK    9  A    between atoms: C_22  and  C_25
REMARK                            x       y       z     vdW  Elec       q    Type
REMARK                         _______ _______ _______ _____ _____    ______ ____
ROOT
ATOM      1  C   UNL     1       6.978   3.242  25.166  0.00  0.00    +0.239 A 
ATOM      2  N   UNL     1       6.997   1.973  25.596  0.00  0.00    -0.178 NA
ATOM      3  C   UNL     1       5.958   1.167  25.342  0.00  0.00    +0.223 A 
ATOM      4  N   UNL     1       6.128  -0.172  25.716  0.00  0.00    -0.284 N 
ATOM      5  H   UNL     1       7.038  -0.264  26.147  0.00  0.00    +0.155 HD
ATOM      6  N   UNL     1       4.854   1.603  24.733  0.00  0.00    -0.216 NA
ATOM      7  CA  UNL     1       4.789   2.919  24.388  0.00  0.00    +0.089 A 
ATOM      8  C   UNL     1       5.845   3.795  24.594  0.00  0.00    +0.103 A 
ATOM      9 BR   UNL     1       5.740   5.626  24.126  0.00  0.00    -0.043 Br
ENDROOT
BRANCH   4  10
ATOM     10  C   UNL     1       5.596  -1.358  25.171  0.00  0.00    +0.034 A 
ATOM     11  C   UNL     1       6.069  -1.817  23.929  0.00  0.00    +0.024 A 
ATOM     12  C   UNL     1       5.523  -2.962  23.324  0.00  0.00    +0.020 A 
ATOM     13  C   UNL     1       4.510  -3.692  23.946  0.00  0.00    +0.052 A 
ATOM     14  C   UNL     1       4.069  -3.267  25.208  0.00  0.00    +0.020 A 
ATOM     15  C   UNL     1       4.619  -2.121  25.808  0.00  0.00    +0.024 A 
BRANCH  13  16
ATOM     16  C   UNL     1       3.917  -4.839  23.327  0.00  0.00    +0.099 C 
ATOM     17  N   UNL     1       3.431  -5.769  22.831  0.00  0.00    -0.191 NA
ENDBRANCH  13  16
ENDBRANCH   4  10
BRANCH   1  18
ATOM     18  O   UNL     1       8.074   4.078  25.374  0.00  0.00    -0.436 OA
BRANCH  18  21
ATOM     19  C   UNL     1       9.527   1.917  23.484  0.00  0.00    +0.047 C 
ATOM     20  C   UNL     1       9.907   3.332  23.795  0.00  0.00    -0.007 A 
ATOM     21  C   UNL     1       9.156   4.278  24.526  0.00  0.00    +0.136 A 
ATOM     22  C   UNL     1       9.645   5.622  24.558  0.00  0.00    -0.007 A 
ATOM     23  C   UNL     1       8.869   6.747  25.200  0.00  0.00    +0.047 C 
ATOM     24  C   UNL     1      10.883   5.963  23.969  0.00  0.00    +0.025 A 
ATOM     25  C   UNL     1      11.649   5.000  23.328  0.00  0.00    +0.052 A 
ATOM     26  C   UNL     1      11.151   3.709  23.233  0.00  0.00    +0.025 A 
BRANCH  25  27
ATOM     27  C   UNL     1      12.919   5.317  22.746  0.00  0.00    +0.099 C 
ATOM     28  N   UNL     1      13.936   5.573  22.247  0.00  0.00    -0.191 NA
ENDBRANCH  25  27
ENDBRANCH  18  21
ENDBRANCH   1  18
BRANCH   7  29
ATOM     29  C   UNL     1       3.479   3.346  23.761  0.00  0.00    +0.212 C 
BRANCH  29  30
ATOM     30  O   UNL     1       3.284   2.732  22.484  0.00  0.00    -0.389 OA
ATOM     31  H   UNL     1       2.529   3.207  22.086  0.00  0.00    +0.210 HD
ENDBRANCH  29  30
ENDBRANCH   7  29
TORSDOF 7
ENDMDL
MODEL 2
REMARK VINA RESULT:      -6.4      3.339     10.010
REMARK  Name = 
REMARK  9 active torsions:
REMARK  status: ('A' for Active; 'I' for Inactive)
REMARK    1  A    between atoms: C_1  and  C_2
REMARK    2  A    between atoms: C_4  and  C_28
REMARK    3  A    between atoms: C_6  and  C_7
REMARK    4  A    between atoms: C_8  and  O_9
REMARK    5  A    between atoms: O_9  and  C_10
REMARK    6  A    between atoms: CA_13  and  C_14
REMARK    7  A    between atoms: C_14  and  O_15
REMARK    8  A    between atoms: N_18  and  C_19
REMARK    9  A    between atoms: C_22  and  C_25
REMARK                            x       y       z     vdW  Elec       q    Type
REMARK                         _______ _______ _______ _____ _____    ______ ____
ROOT
ATOM      1  C   UNL     1       6.188  -3.403  25.315  0.00  0.00    +0.239 A 
ATOM      2  N   UNL     1       7.045  -2.950  24.391  0.00  0.00    -0.178 NA
ATOM      3  C   UNL     1       7.187  -1.632  24.200  0.00  0.00    +0.223 A 
ATOM      4  N   UNL     1       8.200  -1.257  23.308  0.00  0.00    -0.284 N 
ATOM      5  H   UNL     1       8.628  -2.099  22.947  0.00  0.00    +0.155 HD
ATOM      6  N   UNL     1       6.444  -0.737  24.853  0.00  0.00    -0.216 NA
ATOM      7  CA  UNL     1       5.498  -1.197  25.717  0.00  0.00    +0.089 A 
ATOM      8  C   UNL     1       5.326  -2.548  25.981  0.00  0.00    +0.103 A 
ATOM      9 BR   UNL     1       3.996  -3.180  27.172  0.00  0.00    -0.043 Br
ENDROOT
BRANCH   4  10
ATOM     10  C   UNL     1       9.006  -0.102  23.257  0.00  0.00    +0.034 A 
ATOM     11  C   UNL     1       9.785   0.243  24.375  0.00  0.00    +0.024 A 
ATOM     12  C   UNL     1      10.556   1.418  24.387  0.00  0.00    +0.020 A 
ATOM     13  C   UNL     1      10.590   2.269  23.281  0.00  0.00    +0.052 A 
ATOM     14  C   UNL     1       9.853   1.904  22.145  0.00  0.00    +0.020 A 
ATOM     15  C   UNL     1       9.084   0.727  22.139  0.00  0.00    +0.024 A 
BRANCH  13  16
ATOM     16  C   UNL     1      11.340   3.489  23.291  0.00  0.00    +0.099 C 
ATOM     17  N   UNL     1      11.948   4.476  23.306  0.00  0.00    -0.191 NA
ENDBRANCH  13  16
ENDBRANCH   4  10
BRANCH   1  18
ATOM     18  O   UNL     1       6.067  -4.769  25.563  0.00  0.00    -0.436 OA
BRANCH  18  21
ATOM     19  C   UNL     1       5.250  -4.929  22.455  0.00  0.00    +0.047 C 
ATOM     20  C   UNL     1       4.702  -5.675  23.633  0.00  0.00    -0.007 A 
ATOM     21  C   UNL     1       5.194  -5.663  24.957  0.00  0.00    +0.136 A 
ATOM     22  C   UNL     1       4.610  -6.583  25.883  0.00  0.00    -0.007 A 
ATOM     23  C   UNL     1       5.132  -6.752  27.290  0.00  0.00    +0.047 C 
ATOM     24  C   UNL     1       3.516  -7.397  25.513  0.00  0.00    +0.025 A 
ATOM     25  C   UNL     1       2.991  -7.333  24.231  0.00  0.00    +0.052 A 
ATOM     26  C   UNL     1       3.594  -6.494  23.305  0.00  0.00    +0.025 A 
BRANCH  25  27
ATOM     27  C   UNL     1       1.866  -8.130  23.840  0.00  0.00    +0.099 C 
ATOM     28  N   UNL     1       0.972  -8.800  23.524  0.00  0.00    -0.191 NA
ENDBRANCH  25  27
ENDBRANCH  18  21
ENDBRANCH   1  18
BRANCH   7  29
ATOM     29  C   UNL     1       4.655  -0.120  26.366  0.00  0.00    +0.212 C 
BRANCH  29  30
ATOM     30  O   UNL     1       4.527   1.026  25.519  0.00  0.00    -0.389 OA
ATOM     31  H   UNL     1       4.295   1.761  26.119  0.00  0.00    +0.210 HD
ENDBRANCH  29  30
ENDBRANCH   7  29
TORSDOF 7
ENDMDL
MODEL 3
REMARK VINA RESULT:      -6.4      3.834      9.598
REMARK  Name = 
REMARK  9 active torsions:
REMARK  status: ('A' for Active; 'I' for Inactive)
REMARK    1  A    between atoms: C_1  and  C_2
REMARK    2  A    between atoms: C_4  and  C_28
REMARK    3  A    between atoms: C_6  and  C_7
REMARK    4  A    between atoms: C_8  and  O_9
REMARK    5  A    between atoms: O_9  and  C_10
REMARK    6  A    between atoms: CA_13  and  C_14
REMARK    7  A    between atoms: C_14  and  O_15
REMARK    8  A    between atoms: N_18  and  C_19
REMARK    9  A    between atoms: C_22  and  C_25
REMARK                            x       y       z     vdW  Elec       q    Type
REMARK                         _______ _______ _______ _____ _____    ______ ____
ROOT
ATOM      1  C   UNL     1       7.523  -2.249  25.565  0.00  0.00    +0.239 A 
ATOM      2  N   UNL     1       7.218  -0.964  25.789  0.00  0.00    -0.178 NA
ATOM      3  C   UNL     1       7.848   0.001  25.105  0.00  0.00    +0.223 A 
ATOM      4  N   UNL     1       7.367   1.299  25.314  0.00  0.00    -0.284 N 
ATOM      5  H   UNL     1       6.619   1.252  25.992  0.00  0.00    +0.155 HD
ATOM      6  N   UNL     1       8.835  -0.266  24.249  0.00  0.00    -0.216 NA
ATOM      7  CA  UNL     1       9.219  -1.563  24.097  0.00  0.00    +0.089 A 
ATOM      8  C   UNL     1       8.584  -2.608  24.751  0.00  0.00    +0.103 A 
ATOM      9 BR   UNL     1       9.136  -4.408  24.547  0.00  0.00    -0.043 Br
ENDROOT
BRANCH   4  10
ATOM     10  C   UNL     1       7.338   2.423  24.463  0.00  0.00    +0.034 A 
ATOM     11  C   UNL     1       8.016   3.594  24.846  0.00  0.00    +0.024 A 
ATOM     12  C   UNL     1       7.963   4.754  24.055  0.00  0.00    +0.020 A 
ATOM     13  C   UNL     1       7.253   4.775  22.853  0.00  0.00    +0.052 A 
ATOM     14  C   UNL     1       6.617   3.595  22.442  0.00  0.00    +0.020 A 
ATOM     15  C   UNL     1       6.674   2.437  23.237  0.00  0.00    +0.024 A 
BRANCH  13  16
ATOM     16  C   UNL     1       7.158   5.959  22.055  0.00  0.00    +0.099 C 
ATOM     17  N   UNL     1       7.087   6.921  21.410  0.00  0.00    -0.191 NA
ENDBRANCH  13  16
ENDBRANCH   4  10
BRANCH   1  18
ATOM     18  O   UNL     1       6.840  -3.267  26.228  0.00  0.00    -0.436 OA
BRANCH  18  21
ATOM     19  C   UNL     1       5.245  -3.255  23.434  0.00  0.00    +0.047 C 
ATOM     20  C   UNL     1       5.283  -4.291  24.514  0.00  0.00    -0.007 A 
ATOM     21  C   UNL     1       6.109  -4.303  25.660  0.00  0.00    +0.136 A 
ATOM     22  C   UNL     1       6.090  -5.479  26.473  0.00  0.00    -0.007 A 
ATOM     23  C   UNL     1       7.017  -5.662  27.650  0.00  0.00    +0.047 C 
ATOM     24  C   UNL     1       5.201  -6.543  26.196  0.00  0.00    +0.025 A 
ATOM     25  C   UNL     1       4.336  -6.477  25.115  0.00  0.00    +0.052 A 
ATOM     26  C   UNL     1       4.396  -5.369  24.281  0.00  0.00    +0.025 A 
BRANCH  25  27
ATOM     27  C   UNL     1       3.409  -7.532  24.830  0.00  0.00    +0.099 C 
ATOM     28  N   UNL     1       2.641  -8.367  24.585  0.00  0.00    -0.191 NA
ENDBRANCH  25  27
ENDBRANCH  18  21
ENDBRANCH   1  18
BRANCH   7  29
ATOM     29  C   UNL     1      10.388  -1.772  23.158  0.00  0.00    +0.212 C 
BRANCH  29  30
ATOM     30  O   UNL     1       9.967  -1.780  21.791  0.00  0.00    -0.389 OA
ATOM     31  H   UNL     1      10.762  -2.031  21.281  0.00  0.00    +0.210 HD
ENDBRANCH  29  30
ENDBRANCH   7  29
TORSDOF 7
ENDMDL
MODEL 4
REMARK VINA RESULT:      -6.2      3.866      6.479
REMARK  Name = 
REMARK  9 active torsions:
REMARK  status: ('A' for Active; 'I' for Inactive)
REMARK    1  A    between atoms: C_1  and  C_2
REMARK    2  A    between atoms: C_4  and  C_28
REMARK    3  A    between atoms: C_6  and  C_7
REMARK    4  A    between atoms: C_8  and  O_9
REMARK    5  A    between atoms: O_9  and  C_10
REMARK    6  A    between atoms: CA_13  and  C_14
REMARK    7  A    between atoms: C_14  and  O_15
REMARK    8  A    between atoms: N_18  and  C_19
REMARK    9  A    between atoms: C_22  and  C_25
REMARK                            x       y       z     vdW  Elec       q    Type
REMARK                         _______ _______ _______ _____ _____    ______ ____
ROOT
ATOM      1  C   UNL     1       7.245  -2.700  22.875  0.00  0.00    +0.239 A 
ATOM      2  N   UNL     1       6.172  -3.402  22.487  0.00  0.00    -0.178 NA
ATOM      3  C   UNL     1       5.911  -4.588  23.050  0.00  0.00    +0.223 A 
ATOM      4  N   UNL     1       4.700  -5.182  22.672  0.00  0.00    -0.284 N 
ATOM      5  H   UNL     1       4.252  -4.579  21.996  0.00  0.00    +0.155 HD
ATOM      6  N   UNL     1       6.729  -5.144  23.945  0.00  0.00    -0.216 NA
ATOM      7  CA  UNL     1       7.875  -4.481  24.265  0.00  0.00    +0.089 A 
ATOM      8  C   UNL     1       8.184  -3.234  23.741  0.00  0.00    +0.103 A 
ATOM      9 BR   UNL     1       9.787  -2.327  24.178  0.00  0.00    -0.043 Br
ENDROOT
BRANCH   4  10
ATOM     10  C   UNL     1       3.836  -6.047  23.374  0.00  0.00    +0.034 A 
ATOM     11  C   UNL     1       4.288  -6.659  24.557  0.00  0.00    +0.024 A 
ATOM     12  C   UNL     1       3.480  -7.573  25.254  0.00  0.00    +0.020 A 
ATOM     13  C   UNL     1       2.195  -7.887  24.807  0.00  0.00    +0.052 A 
ATOM     14  C   UNL     1       1.722  -7.242  23.655  0.00  0.00    +0.020 A 
ATOM     15  C   UNL     1       2.534  -6.328  22.963  0.00  0.00    +0.024 A 
BRANCH  13  16
ATOM     16  C   UNL     1       1.373  -8.844  25.483  0.00  0.00    +0.099 C 
ATOM     17  N   UNL     1       0.702  -9.620  26.026  0.00  0.00    -0.191 NA
ENDBRANCH  13  16
ENDBRANCH   4  10
BRANCH   1  18
ATOM     18  O   UNL     1       7.501  -1.439  22.337  0.00  0.00    -0.436 OA
BRANCH  18  21
ATOM     19  C   UNL     1       5.685  -0.674  24.882  0.00  0.00    +0.047 C 
ATOM     20  C   UNL     1       6.528   0.200  24.005  0.00  0.00    -0.007 A 
ATOM     21  C   UNL     1       7.412  -0.212  22.984  0.00  0.00    +0.136 A 
ATOM     22  C   UNL     1       8.239   0.790  22.385  0.00  0.00    -0.007 A 
ATOM     23  C   UNL     1       9.309   0.456  21.374  0.00  0.00    +0.047 C 
ATOM     24  C   UNL     1       8.099   2.153  22.732  0.00  0.00    +0.025 A 
ATOM     25  C   UNL     1       7.164   2.549  23.676  0.00  0.00    +0.052 A 
ATOM     26  C   UNL     1       6.406   1.576  24.312  0.00  0.00    +0.025 A 
BRANCH  25  27
ATOM     27  C   UNL     1       6.988   3.928  24.025  0.00  0.00    +0.099 C 
ATOM     28  N   UNL     1       6.865   5.042  24.329  0.00  0.00    -0.191 NA
ENDBRANCH  25  27
ENDBRANCH  18  21
ENDBRANCH   1  18
BRANCH   7  29
ATOM     29  C   UNL     1       8.778  -5.209  25.237  0.00  0.00    +0.212 C 
BRANCH  29  30
ATOM     30  O   UNL     1       9.792  -5.952  24.554  0.00  0.00    -0.389 OA
ATOM     31  H   UNL     1       9.470  -6.037  23.636  0.00  0.00    +0.210 HD
ENDBRANCH  29  30
ENDBRANCH   7  29
TORSDOF 7
ENDMDL
MODEL 5
REMARK VINA RESULT:      -6.2      3.413      4.829
REMARK  Name = 
REMARK  9 active torsions:
REMARK  status: ('A' for Active; 'I' for Inactive)
REMARK    1  A    between atoms: C_1  and  C_2
REMARK    2  A    between atoms: C_4  and  C_28
REMARK    3  A    between atoms: C_6  and  C_7
REMARK    4  A    between atoms: C_8  and  O_9
REMARK    5  A    between atoms: O_9  and  C_10
REMARK    6  A    between atoms: CA_13  and  C_14
REMARK    7  A    between atoms: C_14  and  O_15
REMARK    8  A    between atoms: N_18  and  C_19
REMARK    9  A    between atoms: C_22  and  C_25
REMARK                            x       y       z     vdW  Elec       q    Type
REMARK                         _______ _______ _______ _____ _____    ______ ____
ROOT
ATOM      1  C   UNL     1       7.609  -0.173  24.476  0.00  0.00    +0.239 A 
ATOM      2  N   UNL     1       6.459  -0.769  24.137  0.00  0.00    -0.178 NA
ATOM      3  C   UNL     1       6.432  -2.089  23.910  0.00  0.00    +0.223 A 
ATOM      4  N   UNL     1       5.162  -2.638  23.693  0.00  0.00    -0.284 N 
ATOM      5  H   UNL     1       4.485  -1.888  23.727  0.00  0.00    +0.155 HD
ATOM      6  N   UNL     1       7.537  -2.835  23.937  0.00  0.00    -0.216 NA
ATOM      7  CA  UNL     1       8.725  -2.214  24.177  0.00  0.00    +0.089 A 
ATOM      8  C   UNL     1       8.812  -0.858  24.452  0.00  0.00    +0.103 A 
ATOM      9 BR   UNL     1      10.470   0.001  24.769  0.00  0.00    -0.043 Br
ENDROOT
BRANCH   4  10
ATOM     10  C   UNL     1       4.651  -3.923  23.967  0.00  0.00    +0.034 A 
ATOM     11  C   UNL     1       4.553  -4.860  22.923  0.00  0.00    +0.024 A 
ATOM     12  C   UNL     1       3.994  -6.131  23.141  0.00  0.00    +0.020 A 
ATOM     13  C   UNL     1       3.539  -6.512  24.404  0.00  0.00    +0.052 A 
ATOM     14  C   UNL     1       3.680  -5.599  25.459  0.00  0.00    +0.020 A 
ATOM     15  C   UNL     1       4.240  -4.329  25.235  0.00  0.00    +0.024 A 
BRANCH  13  16
ATOM     16  C   UNL     1       2.932  -7.788  24.635  0.00  0.00    +0.099 C 
ATOM     17  N   UNL     1       2.449  -8.826  24.822  0.00  0.00    -0.191 NA
ENDBRANCH  13  16
ENDBRANCH   4  10
BRANCH   1  18
ATOM     18  O   UNL     1       7.643   1.190  24.768  0.00  0.00    -0.436 OA
BRANCH  18  21
ATOM     19  C   UNL     1       8.339   1.467  21.639  0.00  0.00    +0.047 C 
ATOM     20  C   UNL     1       7.745   2.466  22.584  0.00  0.00    -0.007 A 
ATOM     21  C   UNL     1       7.335   2.244  23.917  0.00  0.00    +0.136 A 
ATOM     22  C   UNL     1       6.642   3.306  24.578  0.00  0.00    -0.007 A 
ATOM     23  C   UNL     1       6.047   3.146  25.956  0.00  0.00    +0.047 C 
ATOM     24  C   UNL     1       6.467   4.562  23.955  0.00  0.00    +0.025 A 
ATOM     25  C   UNL     1       6.952   4.789  22.675  0.00  0.00    +0.052 A 
ATOM     26  C   UNL     1       7.565   3.743  22.000  0.00  0.00    +0.025 A 
BRANCH  25  27
ATOM     27  C   UNL     1       6.809   6.063  22.034  0.00  0.00    +0.099 C 
ATOM     28  N   UNL     1       6.696   7.108  21.541  0.00  0.00    -0.191 NA
ENDBRANCH  25  27
ENDBRANCH  18  21
ENDBRANCH   1  18
BRANCH   7  29
ATOM     29  C   UNL     1       9.936  -3.121  24.124  0.00  0.00    +0.212 C 
BRANCH  29  30
ATOM     30  O   UNL     1       9.603  -4.462  24.494  0.00  0.00    -0.389 OA
ATOM     31  H   UNL     1      10.189  -4.671  25.247  0.00  0.00    +0.210 HD
ENDBRANCH  29  30
ENDBRANCH   7  29
TORSDOF 7
ENDMDL
MODEL 6
REMARK VINA RESULT:      -6.2      3.623      8.674
REMARK  Name = 
REMARK  9 active torsions:
REMARK  status: ('A' for Active; 'I' for Inactive)
REMARK    1  A    between atoms: C_1  and  C_2
REMARK    2  A    between atoms: C_4  and  C_28
REMARK    3  A    between atoms: C_6  and  C_7
REMARK    4  A    between atoms: C_8  and  O_9
REMARK    5  A    between atoms: O_9  and  C_10
REMARK    6  A    between atoms: CA_13  and  C_14
REMARK    7  A    between atoms: C_14  and  O_15
REMARK    8  A    between atoms: N_18  and  C_19
REMARK    9  A    between atoms: C_22  and  C_25
REMARK                            x       y       z     vdW  Elec       q    Type
REMARK                         _______ _______ _______ _____ _____    ______ ____
ROOT
ATOM      1  C   UNL     1       8.031  -0.862  24.520  0.00  0.00    +0.239 A 
ATOM      2  N   UNL     1       7.234   0.110  24.984  0.00  0.00    -0.178 NA
ATOM      3  C   UNL     1       7.198   1.297  24.364  0.00  0.00    +0.223 A 
ATOM      4  N   UNL     1       6.241   2.199  24.844  0.00  0.00    -0.284 N 
ATOM      5  H   UNL     1       5.759   1.763  25.619  0.00  0.00    +0.155 HD
ATOM      6  N   UNL     1       7.991   1.581  23.329  0.00  0.00    -0.216 NA
ATOM      7  CA  UNL     1       8.876   0.631  22.920  0.00  0.00    +0.089 A 
ATOM      8  C   UNL     1       8.938  -0.627  23.500  0.00  0.00    +0.103 A 
ATOM      9 BR   UNL     1      10.184  -1.936  22.936  0.00  0.00    -0.043 Br
ENDROOT
BRANCH   4  10
ATOM     10  C   UNL     1       5.527   3.224  24.191  0.00  0.00    +0.034 A 
ATOM     11  C   UNL     1       4.303   2.921  23.568  0.00  0.00    +0.024 A 
ATOM     12  C   UNL     1       3.590   3.900  22.856  0.00  0.00    +0.020 A 
ATOM     13  C   UNL     1       4.063   5.210  22.762  0.00  0.00    +0.052 A 
ATOM     14  C   UNL     1       5.257   5.530  23.423  0.00  0.00    +0.020 A 
ATOM     15  C   UNL     1       5.966   4.546  24.134  0.00  0.00    +0.024 A 
BRANCH  13  16
ATOM     16  C   UNL     1       3.368   6.210  22.009  0.00  0.00    +0.099 C 
ATOM     17  N   UNL     1       2.810   7.019  21.392  0.00  0.00    -0.191 NA
ENDBRANCH  13  16
ENDBRANCH   4  10
BRANCH   1  18
ATOM     18  O   UNL     1       8.040  -2.120  25.120  0.00  0.00    -0.436 OA
BRANCH  18  21
ATOM     19  C   UNL     1       5.987  -2.404  22.658  0.00  0.00    +0.047 C 
ATOM     20  C   UNL     1       6.277  -3.351  23.782  0.00  0.00    -0.007 A 
ATOM     21  C   UNL     1       7.289  -3.232  24.761  0.00  0.00    +0.136 A 
ATOM     22  C   UNL     1       7.485  -4.342  25.642  0.00  0.00    -0.007 A 
ATOM     23  C   UNL     1       8.612  -4.386  26.645  0.00  0.00    +0.047 C 
ATOM     24  C   UNL     1       6.631  -5.467  25.599  0.00  0.00    +0.025 A 
ATOM     25  C   UNL     1       5.589  -5.528  24.686  0.00  0.00    +0.052 A 
ATOM     26  C   UNL     1       5.433  -4.487  23.783  0.00  0.00    +0.025 A 
BRANCH  25  27
ATOM     27  C   UNL     1       4.696  -6.648  24.643  0.00  0.00    +0.099 C 
ATOM     28  N   UNL     1       3.992  -7.570  24.590  0.00  0.00    -0.191 NA
ENDBRANCH  25  27
ENDBRANCH  18  21
ENDBRANCH   1  18
BRANCH   7  29
ATOM     29  C   UNL     1       9.782   1.057  21.785  0.00  0.00    +0.212 C 
BRANCH  29  30
ATOM     30  O   UNL     1       9.943   2.478  21.747  0.00  0.00    -0.389 OA
ATOM     31  H   UNL     1       9.059   2.840  21.952  0.00  0.00    +0.210 HD
ENDBRANCH  29  30
ENDBRANCH   7  29
TORSDOF 7
ENDMDL
MODEL 7
REMARK VINA RESULT:      -6.1      2.061      2.726
REMARK  Name = 
REMARK  9 active torsions:
REMARK  status: ('A' for Active; 'I' for Inactive)
REMARK    1  A    between atoms: C_1  and  C_2
REMARK    2  A    between atoms: C_4  and  C_28
REMARK    3  A    between atoms: C_6  and  C_7
REMARK    4  A    between atoms: C_8  and  O_9
REMARK    5  A    between atoms: O_9  and  C_10
REMARK    6  A    between atoms: CA_13  and  C_14
REMARK    7  A    between atoms: C_14  and  O_15
REMARK    8  A    between atoms: N_18  and  C_19
REMARK    9  A    between atoms: C_22  and  C_25
REMARK                            x       y       z     vdW  Elec       q    Type
REMARK                         _______ _______ _______ _____ _____    ______ ____
ROOT
ATOM      1  C   UNL     1       6.543   1.201  23.660  0.00  0.00    +0.239 A 
ATOM      2  N   UNL     1       6.890  -0.065  23.397  0.00  0.00    -0.178 NA
ATOM      3  C   UNL     1       6.419  -1.059  24.161  0.00  0.00    +0.223 A 
ATOM      4  N   UNL     1       6.731  -2.354  23.727  0.00  0.00    -0.284 N 
ATOM      5  H   UNL     1       7.301  -2.277  22.895  0.00  0.00    +0.155 HD
ATOM      6  N   UNL     1       5.663  -0.830  25.236  0.00  0.00    -0.216 NA
ATOM      7  CA  UNL     1       5.394   0.463  25.568  0.00  0.00    +0.089 A 
ATOM      8  C   UNL     1       5.826   1.533  24.798  0.00  0.00    +0.103 A 
ATOM      9 BR   UNL     1       5.462   3.328  25.275  0.00  0.00    -0.043 Br
ENDROOT
BRANCH   4  10
ATOM     10  C   UNL     1       6.034  -3.571  23.870  0.00  0.00    +0.034 A 
ATOM     11  C   UNL     1       4.934  -3.834  23.035  0.00  0.00    +0.024 A 
ATOM     12  C   UNL     1       4.176  -5.008  23.184  0.00  0.00    +0.020 A 
ATOM     13  C   UNL     1       4.503  -5.959  24.152  0.00  0.00    +0.052 A 
ATOM     14  C   UNL     1       5.628  -5.724  24.954  0.00  0.00    +0.020 A 
ATOM     15  C   UNL     1       6.384  -4.548  24.799  0.00  0.00    +0.024 A 
BRANCH  13  16
ATOM     16  C   UNL     1       3.719  -7.142  24.342  0.00  0.00    +0.099 C 
ATOM     17  N   UNL     1       3.077  -8.096  24.496  0.00  0.00    -0.191 NA
ENDBRANCH  13  16
ENDBRANCH   4  10
BRANCH   1  18
ATOM     18  O   UNL     1       6.981   2.242  22.843  0.00  0.00    -0.436 OA
BRANCH  18  21
ATOM     19  C   UNL     1       9.971   1.092  23.154  0.00  0.00    +0.047 C 
ATOM     20  C   UNL     1       9.469   2.501  23.235  0.00  0.00    -0.007 A 
ATOM     21  C   UNL     1       8.164   2.962  22.955  0.00  0.00    +0.136 A 
ATOM     22  C   UNL     1       7.956   4.377  22.941  0.00  0.00    -0.007 A 
ATOM     23  C   UNL     1       6.639   4.994  22.534  0.00  0.00    +0.047 C 
ATOM     24  C   UNL     1       8.991   5.271  23.296  0.00  0.00    +0.025 A 
ATOM     25  C   UNL     1      10.244   4.795  23.651  0.00  0.00    +0.052 A 
ATOM     26  C   UNL     1      10.475   3.427  23.601  0.00  0.00    +0.025 A 
BRANCH  25  27
ATOM     27  C   UNL     1      11.301   5.681  24.038  0.00  0.00    +0.099 C 
ATOM     28  N   UNL     1      12.171   6.376  24.366  0.00  0.00    -0.191 NA
ENDBRANCH  25  27
ENDBRANCH  18  21
ENDBRANCH   1  18
BRANCH   7  29
ATOM     29  C   UNL     1       4.588   0.637  26.836  0.00  0.00    +0.212 C 
BRANCH  29  30
ATOM     30  O   UNL     1       3.185   0.507  26.587  0.00  0.00    -0.389 OA
ATOM     31  H   UNL     1       3.107  -0.218  25.937  0.00  0.00    +0.210 HD
ENDBRANCH  29  30
ENDBRANCH   7  29
TORSDOF 7
ENDMDL
MODEL 8
REMARK VINA RESULT:      -6.0      3.621      8.790
REMARK  Name = 
REMARK  9 active torsions:
REMARK  status: ('A' for Active; 'I' for Inactive)
REMARK    1  A    between atoms: C_1  and  C_2
REMARK    2  A    between atoms: C_4  and  C_28
REMARK    3  A    between atoms: C_6  and  C_7
REMARK    4  A    between atoms: C_8  and  O_9
REMARK    5  A    between atoms: O_9  and  C_10
REMARK    6  A    between atoms: CA_13  and  C_14
REMARK    7  A    between atoms: C_14  and  O_15
REMARK    8  A    between atoms: N_18  and  C_19
REMARK    9  A    between atoms: C_22  and  C_25
REMARK                            x       y       z     vdW  Elec       q    Type
REMARK                         _______ _______ _______ _____ _____    ______ ____
ROOT
ATOM      1  C   UNL     1       7.671  -1.252  23.652  0.00  0.00    +0.239 A 
ATOM      2  N   UNL     1       6.627  -0.639  24.226  0.00  0.00    -0.178 NA
ATOM      3  C   UNL     1       6.570   0.699  24.252  0.00  0.00    +0.223 A 
ATOM      4  N   UNL     1       5.381   1.242  24.755  0.00  0.00    -0.284 N 
ATOM      5  H   UNL     1       4.781   0.478  25.037  0.00  0.00    +0.155 HD
ATOM      6  N   UNL     1       7.561   1.460  23.786  0.00  0.00    -0.216 NA
ATOM      7  CA  UNL     1       8.670   0.841  23.296  0.00  0.00    +0.089 A 
ATOM      8  C   UNL     1       8.774  -0.540  23.212  0.00  0.00    +0.103 A 
ATOM      9 BR   UNL     1      10.327  -1.394  22.545  0.00  0.00    -0.043 Br
ENDROOT
BRANCH   4  10
ATOM     10  C   UNL     1       4.718   2.450  24.459  0.00  0.00    +0.034 A 
ATOM     11  C   UNL     1       4.428   3.348  25.502  0.00  0.00    +0.024 A 
ATOM     12  C   UNL     1       3.716   4.535  25.258  0.00  0.00    +0.020 A 
ATOM     13  C   UNL     1       3.293   4.871  23.971  0.00  0.00    +0.052 A 
ATOM     14  C   UNL     1       3.623   4.003  22.921  0.00  0.00    +0.020 A 
ATOM     15  C   UNL     1       4.336   2.817  23.170  0.00  0.00    +0.024 A 
BRANCH  13  16
ATOM     16  C   UNL     1       2.535   6.058  23.712  0.00  0.00    +0.099 C 
ATOM     17  N   UNL     1       1.916   7.015  23.497  0.00  0.00    -0.191 NA
ENDBRANCH  13  16
ENDBRANCH   4  10
BRANCH   1  18
ATOM     18  O   UNL     1       7.720  -2.643  23.568  0.00  0.00    -0.436 OA
BRANCH  18  21
ATOM     19  C   UNL     1       7.238  -3.670  26.580  0.00  0.00    +0.047 C 
ATOM     20  C   UNL     1       6.618  -4.130  25.296  0.00  0.00    -0.007 A 
ATOM     21  C   UNL     1       6.768  -3.549  24.018  0.00  0.00    +0.136 A 
ATOM     22  C   UNL     1       5.949  -4.062  22.963  0.00  0.00    -0.007 A 
ATOM     23  C   UNL     1       5.927  -3.443  21.585  0.00  0.00    +0.047 C 
ATOM     24  C   UNL     1       5.102  -5.173  23.171  0.00  0.00    +0.025 A 
ATOM     25  C   UNL     1       5.032  -5.785  24.413  0.00  0.00    +0.052 A 
ATOM     26  C   UNL     1       5.771  -5.252  25.460  0.00  0.00    +0.025 A 
BRANCH  25  27
ATOM     27  C   UNL     1       4.199  -6.929  24.641  0.00  0.00    +0.099 C 
ATOM     28  N   UNL     1       3.511  -7.840  24.847  0.00  0.00    -0.191 NA
ENDBRANCH  25  27
ENDBRANCH  18  21
ENDBRANCH   1  18
BRANCH   7  29
ATOM     29  C   UNL     1       9.773   1.776  22.849  0.00  0.00    +0.212 C 
BRANCH  29  30
ATOM     30  O   UNL     1       9.694   2.047  21.447  0.00  0.00    -0.389 OA
ATOM     31  H   UNL     1       9.946   1.210  21.011  0.00  0.00    +0.210 HD
ENDBRANCH  29  30
ENDBRANCH   7  29
TORSDOF 7
ENDMDL
MODEL 9
REMARK VINA RESULT:      -5.9      3.848      8.623
REMARK  Name = 
REMARK  9 active torsions:
REMARK  status: ('A' for Active; 'I' for Inactive)
REMARK    1  A    between atoms: C_1  and  C_2
REMARK    2  A    between atoms: C_4  and  C_28
REMARK    3  A    between atoms: C_6  and  C_7
REMARK    4  A    between atoms: C_8  and  O_9
REMARK    5  A    between atoms: O_9  and  C_10
REMARK    6  A    between atoms: CA_13  and  C_14
REMARK    7  A    between atoms: C_14  and  O_15
REMARK    8  A    between atoms: N_18  and  C_19
REMARK    9  A    between atoms: C_22  and  C_25
REMARK                            x       y       z     vdW  Elec       q    Type
REMARK                         _______ _______ _______ _____ _____    ______ ____
ROOT
ATOM      1  C   UNL     1       8.611  -1.141  24.267  0.00  0.00    +0.239 A 
ATOM      2  N   UNL     1       8.284  -0.529  25.412  0.00  0.00    -0.178 NA
ATOM      3  C   UNL     1       8.023   0.785  25.417  0.00  0.00    +0.223 A 
ATOM      4  N   UNL     1       7.563   1.305  26.633  0.00  0.00    -0.284 N 
ATOM      5  H   UNL     1       7.542   0.552  27.308  0.00  0.00    +0.155 HD
ATOM      6  N   UNL     1       8.149   1.537  24.322  0.00  0.00    -0.216 NA
ATOM      7  CA  UNL     1       8.583   0.937  23.179  0.00  0.00    +0.089 A 
ATOM      8  C   UNL     1       8.837  -0.424  23.103  0.00  0.00    +0.103 A 
ATOM      9 BR   UNL     1       9.456  -1.246  21.514  0.00  0.00    -0.043 Br
ENDROOT
BRANCH   4  10
ATOM     10  C   UNL     1       6.704   2.387  26.911  0.00  0.00    +0.034 A 
ATOM     11  C   UNL     1       7.234   3.688  26.969  0.00  0.00    +0.024 A 
ATOM     12  C   UNL     1       6.423   4.787  27.302  0.00  0.00    +0.020 A 
ATOM     13  C   UNL     1       5.061   4.625  27.563  0.00  0.00    +0.052 A 
ATOM     14  C   UNL     1       4.518   3.336  27.457  0.00  0.00    +0.020 A 
ATOM     15  C   UNL     1       5.334   2.241  27.124  0.00  0.00    +0.024 A 
BRANCH  13  16
ATOM     16  C   UNL     1       4.229   5.727  27.940  0.00  0.00    +0.099 C 
ATOM     17  N   UNL     1       3.556   6.623  28.238  0.00  0.00    -0.191 NA
ENDBRANCH  13  16
ENDBRANCH   4  10
BRANCH   1  18
ATOM     18  O   UNL     1       8.833  -2.517  24.235  0.00  0.00    -0.436 OA
BRANCH  18  21
ATOM     19  C   UNL     1       6.291  -2.983  22.317  0.00  0.00    +0.047 C 
ATOM     20  C   UNL     1       6.682  -3.682  23.583  0.00  0.00    -0.007 A 
ATOM     21  C   UNL     1       7.882  -3.527  24.311  0.00  0.00    +0.136 A 
ATOM     22  C   UNL     1       8.109  -4.421  25.404  0.00  0.00    -0.007 A 
ATOM     23  C   UNL     1       9.405  -4.436  26.178  0.00  0.00    +0.047 C 
ATOM     24  C   UNL     1       7.123  -5.352  25.802  0.00  0.00    +0.025 A 
ATOM     25  C   UNL     1       5.914  -5.432  25.127  0.00  0.00    +0.052 A 
ATOM     26  C   UNL     1       5.713  -4.616  24.023  0.00  0.00    +0.025 A 
BRANCH  25  27
ATOM     27  C   UNL     1       4.890  -6.351  25.529  0.00  0.00    +0.099 C 
ATOM     28  N   UNL     1       4.081  -7.108  25.873  0.00  0.00    -0.191 NA
ENDBRANCH  25  27
ENDBRANCH  18  21
ENDBRANCH   1  18
BRANCH   7  29
ATOM     29  C   UNL     1       8.762   1.872  22.002  0.00  0.00    +0.212 C 
BRANCH  29  30
ATOM     30  O   UNL     1      10.144   2.156  21.764  0.00  0.00    -0.389 OA
ATOM     31  H   UNL     1      10.633   1.441  22.217  0.00  0.00    +0.210 HD
ENDBRANCH  29  30
ENDBRANCH   7  29
TORSDOF 7
ENDMDL
