MODEL 1
REMARK VINA RESULT:      -4.4      0.000      0.000
REMARK  Name = 
REMARK  10 active torsions:
REMARK  status: ('A' for Active; 'I' for Inactive)
REMARK    1  A    between atoms: N_1  and  CA_2
REMARK    2  A    between atoms: CA_2  and  C_4
REMARK    3  A    between atoms: CA_2  and  C_13
REMARK    4  A    between atoms: C_4  and  C_5
REMARK    5  A    between atoms: C_5  and  C_6
REMARK    6  A    between atoms: C_6  and  CA_7
REMARK    7  A    between atoms: CA_7  and  N_9
REMARK    8  A    between atoms: CA_7  and  C_10
REMARK    9  A    between atoms: C_10  and  O_11
REMARK   10  A    between atoms: C_13  and  O_14
REMARK                            x       y       z     vdW  Elec       q    Type
REMARK                         _______ _______ _______ _____ _____    ______ ____
ROOT
ATOM      1  C   UNL     1       7.366  -2.315  25.351  0.00  0.00    +0.004 C 
ENDROOT
BRANCH   1   2
ATOM      2  C   UNL     1       8.222  -1.265  24.635  0.00  0.00    +0.030 C 
BRANCH   2   3
ATOM      3  CA  UNL     1       8.379  -1.532  23.129  0.00  0.00    +0.161 C 
BRANCH   3   4
ATOM      4  N   UNL     1       7.412  -2.545  22.608  0.00  0.00    -0.318 NA
ATOM      5  H1  UNL     1       6.707  -2.751  23.323  0.00  0.00    +0.119 HD
ATOM      6  H2  UNL     1       6.867  -2.095  21.865  0.00  0.00    +0.119 HD
ENDBRANCH   3   4
BRANCH   3   7
ATOM      7  C   UNL     1       9.813  -1.988  22.792  0.00  0.00    +0.322 C 
ATOM      8  OXT UNL     1      10.525  -2.664  23.515  0.00  0.00    -0.249 OA
BRANCH   7   9
ATOM      9  O   UNL     1      10.190  -1.556  21.561  0.00  0.00    -0.480 OA
ATOM     10  H   UNL     1      10.944  -0.933  21.718  0.00  0.00    +0.295 HD
ENDBRANCH   7   9
ENDBRANCH   3   7
ENDBRANCH   2   3
ENDBRANCH   1   2
BRANCH   1  11
ATOM     11  C   UNL     1       8.187  -3.252  26.248  0.00  0.00    +0.030 C 
BRANCH  11  12
ATOM     12  CA  UNL     1       7.938  -4.742  25.946  0.00  0.00    +0.161 C 
BRANCH  12  13
ATOM     13  N   UNL     1       8.292  -5.599  27.113  0.00  0.00    -0.318 NA
ATOM     14  H1  UNL     1       9.259  -5.917  26.996  0.00  0.00    +0.119 HD
ATOM     15  H2  UNL     1       8.322  -5.003  27.948  0.00  0.00    +0.119 HD
ENDBRANCH  12  13
BRANCH  12  16
ATOM     16  C   UNL     1       8.793  -5.182  24.746  0.00  0.00    +0.322 C 
ATOM     17  OXT UNL     1       8.378  -5.371  23.618  0.00  0.00    -0.249 OA
BRANCH  16  18
ATOM     18  O   UNL     1      10.109  -5.266  25.088  0.00  0.00    -0.480 OA
ATOM     19  H   UNL     1      10.464  -6.061  24.615  0.00  0.00    +0.295 HD
ENDBRANCH  16  18
ENDBRANCH  12  16
ENDBRANCH  11  12
ENDBRANCH   1  11
TORSDOF 10
ENDMDL
MODEL 2
REMARK VINA RESULT:      -4.4      0.101      4.084
REMARK  Name = 
REMARK  10 active torsions:
REMARK  status: ('A' for Active; 'I' for Inactive)
REMARK    1  A    between atoms: N_1  and  CA_2
REMARK    2  A    between atoms: CA_2  and  C_4
REMARK    3  A    between atoms: CA_2  and  C_13
REMARK    4  A    between atoms: C_4  and  C_5
REMARK    5  A    between atoms: C_5  and  C_6
REMARK    6  A    between atoms: C_6  and  CA_7
REMARK    7  A    between atoms: CA_7  and  N_9
REMARK    8  A    between atoms: CA_7  and  C_10
REMARK    9  A    between atoms: C_10  and  O_11
REMARK   10  A    between atoms: C_13  and  O_14
REMARK                            x       y       z     vdW  Elec       q    Type
REMARK                         _______ _______ _______ _____ _____    ______ ____
ROOT
ATOM      1  C   UNL     1       7.423  -2.315  25.453  0.00  0.00    +0.004 C 
ENDROOT
BRANCH   1   2
ATOM      2  C   UNL     1       8.188  -3.285  26.361  0.00  0.00    +0.030 C 
BRANCH   2   3
ATOM      3  CA  UNL     1       7.957  -4.762  26.003  0.00  0.00    +0.161 C 
BRANCH   3   4
ATOM      4  N   UNL     1       8.238  -5.693  27.138  0.00  0.00    -0.318 NA
ATOM      5  H1  UNL     1       8.861  -6.444  26.825  0.00  0.00    +0.119 HD
ATOM      6  H2  UNL     1       8.810  -5.182  27.819  0.00  0.00    +0.119 HD
ENDBRANCH   3   4
BRANCH   3   7
ATOM      7  C   UNL     1       8.812  -5.180  24.789  0.00  0.00    +0.322 C 
ATOM      8  OXT UNL     1       8.389  -5.368  23.661  0.00  0.00    -0.249 OA
BRANCH   7   9
ATOM      9  O   UNL     1      10.122  -5.300  25.129  0.00  0.00    -0.480 OA
ATOM     10  H   UNL     1      10.192  -4.936  26.047  0.00  0.00    +0.295 HD
ENDBRANCH   7   9
ENDBRANCH   3   7
ENDBRANCH   2   3
ENDBRANCH   1   2
BRANCH   1  11
ATOM     11  C   UNL     1       8.336  -1.291  24.763  0.00  0.00    +0.030 C 
BRANCH  11  12
ATOM     12  CA  UNL     1       8.420  -1.496  23.238  0.00  0.00    +0.161 C 
BRANCH  12  13
ATOM     13  N   UNL     1       7.430  -2.508  22.770  0.00  0.00    -0.318 NA
ATOM     14  H1  UNL     1       6.621  -2.010  22.385  0.00  0.00    +0.119 HD
ATOM     15  H2  UNL     1       7.833  -2.997  21.963  0.00  0.00    +0.119 HD
ENDBRANCH  12  13
BRANCH  12  16
ATOM     16  C   UNL     1       9.826  -1.982  22.853  0.00  0.00    +0.322 C 
ATOM     17  OXT UNL     1      10.537  -2.694  23.538  0.00  0.00    -0.249 OA
BRANCH  16  18
ATOM     18  O   UNL     1      10.159  -1.572  21.597  0.00  0.00    -0.480 OA
ATOM     19  H   UNL     1      11.144  -1.652  21.536  0.00  0.00    +0.295 HD
ENDBRANCH  16  18
ENDBRANCH  12  16
ENDBRANCH  11  12
ENDBRANCH   1  11
TORSDOF 10
ENDMDL
MODEL 3
REMARK VINA RESULT:      -4.4      2.342      5.563
REMARK  Name = 
REMARK  10 active torsions:
REMARK  status: ('A' for Active; 'I' for Inactive)
REMARK    1  A    between atoms: N_1  and  CA_2
REMARK    2  A    between atoms: CA_2  and  C_4
REMARK    3  A    between atoms: CA_2  and  C_13
REMARK    4  A    between atoms: C_4  and  C_5
REMARK    5  A    between atoms: C_5  and  C_6
REMARK    6  A    between atoms: C_6  and  CA_7
REMARK    7  A    between atoms: CA_7  and  N_9
REMARK    8  A    between atoms: CA_7  and  C_10
REMARK    9  A    between atoms: C_10  and  O_11
REMARK   10  A    between atoms: C_13  and  O_14
REMARK                            x       y       z     vdW  Elec       q    Type
REMARK                         _______ _______ _______ _____ _____    ______ ____
ROOT
ATOM      1  C   UNL     1       9.797  -2.599  23.996  0.00  0.00    +0.004 C 
ENDROOT
BRANCH   1   2
ATOM      2  C   UNL     1       8.778  -3.700  24.309  0.00  0.00    +0.030 C 
BRANCH   2   3
ATOM      3  CA  UNL     1       9.134  -4.521  25.559  0.00  0.00    +0.161 C 
BRANCH   3   4
ATOM      4  N   UNL     1      10.235  -5.503  25.323  0.00  0.00    -0.318 NA
ATOM      5  H1  UNL     1      10.061  -6.018  24.454  0.00  0.00    +0.119 HD
ATOM      6  H2  UNL     1      11.084  -4.968  25.113  0.00  0.00    +0.119 HD
ENDBRANCH   3   4
BRANCH   3   7
ATOM      7  C   UNL     1       7.901  -5.272  26.101  0.00  0.00    +0.322 C 
ATOM      8  OXT UNL     1       6.852  -5.432  25.499  0.00  0.00    -0.249 OA
BRANCH   7   9
ATOM      9  O   UNL     1       8.131  -5.761  27.347  0.00  0.00    -0.480 OA
ATOM     10  H   UNL     1       9.041  -6.152  27.314  0.00  0.00    +0.295 HD
ENDBRANCH   7   9
ENDBRANCH   3   7
ENDBRANCH   2   3
ENDBRANCH   1   2
BRANCH   1  11
ATOM     11  C   UNL     1       9.149  -1.226  23.768  0.00  0.00    +0.030 C 
BRANCH  11  12
ATOM     12  CA  UNL     1       9.184  -0.785  22.292  0.00  0.00    +0.161 C 
BRANCH  12  13
ATOM     13  N   UNL     1      10.171  -1.584  21.510  0.00  0.00    -0.318 NA
ATOM     14  H1  UNL     1       9.654  -2.214  20.890  0.00  0.00    +0.119 HD
ATOM     15  H2  UNL     1      10.660  -0.946  20.871  0.00  0.00    +0.119 HD
ENDBRANCH  12  13
BRANCH  12  16
ATOM     16  C   UNL     1       9.579   0.697  22.198  0.00  0.00    +0.322 C 
ATOM     17  OXT UNL     1      10.307   1.282  22.980  0.00  0.00    -0.249 OA
BRANCH  16  18
ATOM     18  O   UNL     1       9.067   1.270  21.075  0.00  0.00    -0.480 OA
ATOM     19  H   UNL     1       9.632   2.063  20.890  0.00  0.00    +0.295 HD
ENDBRANCH  16  18
ENDBRANCH  12  16
ENDBRANCH  11  12
ENDBRANCH   1  11
TORSDOF 10
ENDMDL
MODEL 4
REMARK VINA RESULT:      -4.3      2.291      2.481
REMARK  Name = 
REMARK  10 active torsions:
REMARK  status: ('A' for Active; 'I' for Inactive)
REMARK    1  A    between atoms: N_1  and  CA_2
REMARK    2  A    between atoms: CA_2  and  C_4
REMARK    3  A    between atoms: CA_2  and  C_13
REMARK    4  A    between atoms: C_4  and  C_5
REMARK    5  A    between atoms: C_5  and  C_6
REMARK    6  A    between atoms: C_6  and  CA_7
REMARK    7  A    between atoms: CA_7  and  N_9
REMARK    8  A    between atoms: CA_7  and  C_10
REMARK    9  A    between atoms: C_10  and  O_11
REMARK   10  A    between atoms: C_13  and  O_14
REMARK                            x       y       z     vdW  Elec       q    Type
REMARK                         _______ _______ _______ _____ _____    ______ ____
ROOT
ATOM      1  C   UNL     1       9.524  -2.373  24.179  0.00  0.00    +0.004 C 
ENDROOT
BRANCH   1   2
ATOM      2  C   UNL     1       8.636  -1.302  23.535  0.00  0.00    +0.030 C 
BRANCH   2   3
ATOM      3  CA  UNL     1       9.219  -0.733  22.231  0.00  0.00    +0.161 C 
BRANCH   3   4
ATOM      4  N   UNL     1      10.233  -1.630  21.600  0.00  0.00    -0.318 NA
ATOM      5  H1  UNL     1       9.988  -2.609  21.776  0.00  0.00    +0.119 HD
ATOM      6  H2  UNL     1      10.131  -1.542  20.583  0.00  0.00    +0.119 HD
ENDBRANCH   3   4
BRANCH   3   7
ATOM      7  C   UNL     1       9.852   0.654  22.464  0.00  0.00    +0.322 C 
ATOM      8  OXT UNL     1      10.507   0.974  23.442  0.00  0.00    -0.249 OA
BRANCH   7   9
ATOM      9  O   UNL     1       9.606   1.489  21.421  0.00  0.00    -0.480 OA
ATOM     10  H   UNL     1       9.277   0.908  20.690  0.00  0.00    +0.295 HD
ENDBRANCH   7   9
ENDBRANCH   3   7
ENDBRANCH   2   3
ENDBRANCH   1   2
BRANCH   1  11
ATOM     11  C   UNL     1       8.847  -3.749  24.257  0.00  0.00    +0.030 C 
BRANCH  11  12
ATOM     12  CA  UNL     1       9.188  -4.512  25.551  0.00  0.00    +0.161 C 
BRANCH  12  13
ATOM     13  N   UNL     1      10.244  -5.538  25.315  0.00  0.00    -0.318 NA
ATOM     14  H1  UNL     1      11.157  -5.095  25.452  0.00  0.00    +0.119 HD
ATOM     15  H2  UNL     1      10.185  -6.233  26.067  0.00  0.00    +0.119 HD
ENDBRANCH  12  13
BRANCH  12  16
ATOM     16  C   UNL     1       7.934  -5.224  26.084  0.00  0.00    +0.322 C 
ATOM     17  OXT UNL     1       6.888  -5.357  25.476  0.00  0.00    -0.249 OA
BRANCH  16  18
ATOM     18  O   UNL     1       8.162  -5.760  27.315  0.00  0.00    -0.480 OA
ATOM     19  H   UNL     1       8.260  -6.736  27.173  0.00  0.00    +0.295 HD
ENDBRANCH  16  18
ENDBRANCH  12  16
ENDBRANCH  11  12
ENDBRANCH   1  11
TORSDOF 10
ENDMDL
MODEL 5
REMARK VINA RESULT:      -4.3      2.855      4.664
REMARK  Name = 
REMARK  10 active torsions:
REMARK  status: ('A' for Active; 'I' for Inactive)
REMARK    1  A    between atoms: N_1  and  CA_2
REMARK    2  A    between atoms: CA_2  and  C_4
REMARK    3  A    between atoms: CA_2  and  C_13
REMARK    4  A    between atoms: C_4  and  C_5
REMARK    5  A    between atoms: C_5  and  C_6
REMARK    6  A    between atoms: C_6  and  CA_7
REMARK    7  A    between atoms: CA_7  and  N_9
REMARK    8  A    between atoms: CA_7  and  C_10
REMARK    9  A    between atoms: C_10  and  O_11
REMARK   10  A    between atoms: C_13  and  O_14
REMARK                            x       y       z     vdW  Elec       q    Type
REMARK                         _______ _______ _______ _____ _____    ______ ____
ROOT
ATOM      1  C   UNL     1       9.144  -3.250  23.983  0.00  0.00    +0.004 C 
ENDROOT
BRANCH   1   2
ATOM      2  C   UNL     1       8.618  -3.333  25.421  0.00  0.00    +0.030 C 
BRANCH   2   3
ATOM      3  CA  UNL     1       8.972  -4.654  26.123  0.00  0.00    +0.161 C 
BRANCH   3   4
ATOM      4  N   UNL     1       9.864  -5.533  25.307  0.00  0.00    -0.318 NA
ATOM      5  H1  UNL     1      10.595  -5.935  25.903  0.00  0.00    +0.119 HD
ATOM      6  H2  UNL     1       9.315  -6.352  25.025  0.00  0.00    +0.119 HD
ENDBRANCH   3   4
BRANCH   3   7
ATOM      7  C   UNL     1       7.701  -5.442  26.499  0.00  0.00    +0.322 C 
ATOM      8  OXT UNL     1       6.738  -5.614  25.771  0.00  0.00    -0.249 OA
BRANCH   7   9
ATOM      9  O   UNL     1       7.791  -5.949  27.756  0.00  0.00    -0.480 OA
ATOM     10  H   UNL     1       8.405  -6.723  27.686  0.00  0.00    +0.295 HD
ENDBRANCH   7   9
ENDBRANCH   3   7
ENDBRANCH   2   3
ENDBRANCH   1   2
BRANCH   1  11
ATOM     11  C   UNL     1       8.026  -3.118  22.940  0.00  0.00    +0.030 C 
BRANCH  11  12
ATOM     12  CA  UNL     1       7.101  -4.349  22.894  0.00  0.00    +0.161 C 
BRANCH  12  13
ATOM     13  N   UNL     1       7.884  -5.612  22.767  0.00  0.00    -0.318 NA
ATOM     14  H1  UNL     1       7.382  -6.236  22.127  0.00  0.00    +0.119 HD
ATOM     15  H2  UNL     1       8.758  -5.396  22.275  0.00  0.00    +0.119 HD
ENDBRANCH  12  13
BRANCH  12  16
ATOM     16  C   UNL     1       6.152  -4.246  21.689  0.00  0.00    +0.322 C 
ATOM     17  OXT UNL     1       6.023  -5.089  20.821  0.00  0.00    -0.249 OA
BRANCH  16  18
ATOM     18  O   UNL     1       5.405  -3.108  21.751  0.00  0.00    -0.480 OA
ATOM     19  H   UNL     1       4.559  -3.311  21.278  0.00  0.00    +0.295 HD
ENDBRANCH  16  18
ENDBRANCH  12  16
ENDBRANCH  11  12
ENDBRANCH   1  11
TORSDOF 10
ENDMDL
MODEL 6
REMARK VINA RESULT:      -4.3      3.035      3.905
REMARK  Name = 
REMARK  10 active torsions:
REMARK  status: ('A' for Active; 'I' for Inactive)
REMARK    1  A    between atoms: N_1  and  CA_2
REMARK    2  A    between atoms: CA_2  and  C_4
REMARK    3  A    between atoms: CA_2  and  C_13
REMARK    4  A    between atoms: C_4  and  C_5
REMARK    5  A    between atoms: C_5  and  C_6
REMARK    6  A    between atoms: C_6  and  CA_7
REMARK    7  A    between atoms: CA_7  and  N_9
REMARK    8  A    between atoms: CA_7  and  C_10
REMARK    9  A    between atoms: C_10  and  O_11
REMARK   10  A    between atoms: C_13  and  O_14
REMARK                            x       y       z     vdW  Elec       q    Type
REMARK                         _______ _______ _______ _____ _____    ______ ____
ROOT
ATOM      1  C   UNL     1      10.373   0.139  24.248  0.00  0.00    +0.004 C 
ENDROOT
BRANCH   1   2
ATOM      2  C   UNL     1       9.549   1.416  24.456  0.00  0.00    +0.030 C 
BRANCH   2   3
ATOM      3  CA  UNL     1       8.696   1.794  23.234  0.00  0.00    +0.161 C 
BRANCH   3   4
ATOM      4  N   UNL     1       7.360   1.124  23.220  0.00  0.00    -0.318 NA
ATOM      5  H1  UNL     1       6.619   1.830  23.164  0.00  0.00    +0.119 HD
ATOM      6  H2  UNL     1       7.275   0.625  22.328  0.00  0.00    +0.119 HD
ENDBRANCH   3   4
BRANCH   3   7
ATOM      7  C   UNL     1       9.433   1.468  21.919  0.00  0.00    +0.322 C 
ATOM      8  OXT UNL     1       9.215   0.499  21.211  0.00  0.00    -0.249 OA
BRANCH   7   9
ATOM      9  O   UNL     1      10.359   2.417  21.626  0.00  0.00    -0.480 OA
ATOM     10  H   UNL     1      10.560   2.865  22.486  0.00  0.00    +0.295 HD
ENDBRANCH   7   9
ENDBRANCH   3   7
ENDBRANCH   2   3
ENDBRANCH   1   2
BRANCH   1  11
ATOM     11  C   UNL     1       9.611  -1.137  24.632  0.00  0.00    +0.030 C 
BRANCH  11  12
ATOM     12  CA  UNL     1       9.789  -2.272  23.605  0.00  0.00    +0.161 C 
BRANCH  12  13
ATOM     13  N   UNL     1      10.612  -1.829  22.443  0.00  0.00    -0.318 NA
ATOM     14  H1  UNL     1      10.553  -0.808  22.380  0.00  0.00    +0.119 HD
ATOM     15  H2  UNL     1      11.597  -2.012  22.663  0.00  0.00    +0.119 HD
ENDBRANCH  12  13
BRANCH  12  16
ATOM     16  C   UNL     1       8.416  -2.723  23.081  0.00  0.00    +0.322 C 
ATOM     17  OXT UNL     1       7.935  -3.831  23.231  0.00  0.00    -0.249 OA
BRANCH  16  18
ATOM     18  O   UNL     1       7.759  -1.693  22.479  0.00  0.00    -0.480 OA
ATOM     19  H   UNL     1       7.207  -1.272  23.186  0.00  0.00    +0.295 HD
ENDBRANCH  16  18
ENDBRANCH  12  16
ENDBRANCH  11  12
ENDBRANCH   1  11
TORSDOF 10
ENDMDL
MODEL 7
REMARK VINA RESULT:      -4.3      3.423      4.718
REMARK  Name = 
REMARK  10 active torsions:
REMARK  status: ('A' for Active; 'I' for Inactive)
REMARK    1  A    between atoms: N_1  and  CA_2
REMARK    2  A    between atoms: CA_2  and  C_4
REMARK    3  A    between atoms: CA_2  and  C_13
REMARK    4  A    between atoms: C_4  and  C_5
REMARK    5  A    between atoms: C_5  and  C_6
REMARK    6  A    between atoms: C_6  and  CA_7
REMARK    7  A    between atoms: CA_7  and  N_9
REMARK    8  A    between atoms: CA_7  and  C_10
REMARK    9  A    between atoms: C_10  and  O_11
REMARK   10  A    between atoms: C_13  and  O_14
REMARK                            x       y       z     vdW  Elec       q    Type
REMARK                         _______ _______ _______ _____ _____    ______ ____
ROOT
ATOM      1  C   UNL     1       9.013   0.667  21.556  0.00  0.00    +0.004 C 
ENDROOT
BRANCH   1   2
ATOM      2  C   UNL     1      10.137   1.664  21.863  0.00  0.00    +0.030 C 
BRANCH   2   3
ATOM      3  CA  UNL     1       9.933   2.423  23.183  0.00  0.00    +0.161 C 
BRANCH   3   4
ATOM      4  N   UNL     1      10.807   3.629  23.310  0.00  0.00    -0.318 NA
ATOM      5  H1  UNL     1      11.738   3.350  23.636  0.00  0.00    +0.119 HD
ATOM      6  H2  UNL     1      10.987   3.978  22.362  0.00  0.00    +0.119 HD
ENDBRANCH   3   4
BRANCH   3   7
ATOM      7  C   UNL     1      10.172   1.502  24.397  0.00  0.00    +0.322 C 
ATOM      8  OXT UNL     1      11.191   0.867  24.610  0.00  0.00    -0.249 OA
BRANCH   7   9
ATOM      9  O   UNL     1       9.098   1.496  25.229  0.00  0.00    -0.480 OA
ATOM     10  H   UNL     1       9.470   1.587  26.142  0.00  0.00    +0.295 HD
ENDBRANCH   7   9
ENDBRANCH   3   7
ENDBRANCH   2   3
ENDBRANCH   1   2
BRANCH   1  11
ATOM     11  C   UNL     1       9.438  -0.796  21.747  0.00  0.00    +0.030 C 
BRANCH  11  12
ATOM     12  CA  UNL     1       8.556  -1.549  22.761  0.00  0.00    +0.161 C 
BRANCH  12  13
ATOM     13  N   UNL     1       7.546  -0.643  23.380  0.00  0.00    -0.318 NA
ATOM     14  H1  UNL     1       7.487   0.207  22.811  0.00  0.00    +0.119 HD
ATOM     15  H2  UNL     1       6.623  -1.080  23.277  0.00  0.00    +0.119 HD
ENDBRANCH  12  13
BRANCH  12  16
ATOM     16  C   UNL     1       9.431  -2.135  23.881  0.00  0.00    +0.322 C 
ATOM     17  OXT UNL     1      10.286  -2.988  23.732  0.00  0.00    -0.249 OA
BRANCH  16  18
ATOM     18  O   UNL     1       9.178  -1.521  25.070  0.00  0.00    -0.480 OA
ATOM     19  H   UNL     1       9.054  -0.561  24.861  0.00  0.00    +0.295 HD
ENDBRANCH  16  18
ENDBRANCH  12  16
ENDBRANCH  11  12
ENDBRANCH   1  11
TORSDOF 10
ENDMDL
MODEL 8
REMARK VINA RESULT:      -4.2      2.991      5.120
REMARK  Name = 
REMARK  10 active torsions:
REMARK  status: ('A' for Active; 'I' for Inactive)
REMARK    1  A    between atoms: N_1  and  CA_2
REMARK    2  A    between atoms: CA_2  and  C_4
REMARK    3  A    between atoms: CA_2  and  C_13
REMARK    4  A    between atoms: C_4  and  C_5
REMARK    5  A    between atoms: C_5  and  C_6
REMARK    6  A    between atoms: C_6  and  CA_7
REMARK    7  A    between atoms: CA_7  and  N_9
REMARK    8  A    between atoms: CA_7  and  C_10
REMARK    9  A    between atoms: C_10  and  O_11
REMARK   10  A    between atoms: C_13  and  O_14
REMARK                            x       y       z     vdW  Elec       q    Type
REMARK                         _______ _______ _______ _____ _____    ______ ____
ROOT
ATOM      1  C   UNL     1      10.258   0.196  24.243  0.00  0.00    +0.004 C 
ENDROOT
BRANCH   1   2
ATOM      2  C   UNL     1       9.659  -1.136  24.708  0.00  0.00    +0.030 C 
BRANCH   2   3
ATOM      3  CA  UNL     1       9.829  -2.270  23.683  0.00  0.00    +0.161 C 
BRANCH   3   4
ATOM      4  N   UNL     1      10.642  -1.870  22.494  0.00  0.00    -0.318 NA
ATOM      5  H1  UNL     1      11.334  -2.596  22.286  0.00  0.00    +0.119 HD
ATOM      6  H2  UNL     1      10.023  -1.895  21.676  0.00  0.00    +0.119 HD
ENDBRANCH   3   4
BRANCH   3   7
ATOM      7  C   UNL     1       8.461  -2.794  23.201  0.00  0.00    +0.322 C 
ATOM      8  OXT UNL     1       7.837  -3.707  23.714  0.00  0.00    -0.249 OA
BRANCH   7   9
ATOM      9  O   UNL     1       8.016  -2.091  22.127  0.00  0.00    -0.480 OA
ATOM     10  H   UNL     1       8.117  -1.138  22.375  0.00  0.00    +0.295 HD
ENDBRANCH   7   9
ENDBRANCH   3   7
ENDBRANCH   2   3
ENDBRANCH   1   2
BRANCH   1  11
ATOM     11  C   UNL     1       9.270   1.367  24.342  0.00  0.00    +0.030 C 
BRANCH  11  12
ATOM     12  CA  UNL     1       8.464   1.582  23.047  0.00  0.00    +0.161 C 
BRANCH  12  13
ATOM     13  N   UNL     1       7.284   0.672  22.984  0.00  0.00    -0.318 NA
ATOM     14  H1  UNL     1       6.673   0.993  22.227  0.00  0.00    +0.119 HD
ATOM     15  H2  UNL     1       7.611  -0.249  22.672  0.00  0.00    +0.119 HD
ENDBRANCH  12  13
BRANCH  12  16
ATOM     16  C   UNL     1       9.354   1.305  21.825  0.00  0.00    +0.322 C 
ATOM     17  OXT UNL     1       9.257   0.340  21.089  0.00  0.00    -0.249 OA
BRANCH  16  18
ATOM     18  O   UNL     1      10.232   2.325  21.618  0.00  0.00    -0.480 OA
ATOM     19  H   UNL     1      11.065   1.904  21.285  0.00  0.00    +0.295 HD
ENDBRANCH  16  18
ENDBRANCH  12  16
ENDBRANCH  11  12
ENDBRANCH   1  11
TORSDOF 10
ENDMDL
MODEL 9
REMARK VINA RESULT:      -4.2      3.135      5.486
REMARK  Name = 
REMARK  10 active torsions:
REMARK  status: ('A' for Active; 'I' for Inactive)
REMARK    1  A    between atoms: N_1  and  CA_2
REMARK    2  A    between atoms: CA_2  and  C_4
REMARK    3  A    between atoms: CA_2  and  C_13
REMARK    4  A    between atoms: C_4  and  C_5
REMARK    5  A    between atoms: C_5  and  C_6
REMARK    6  A    between atoms: C_6  and  CA_7
REMARK    7  A    between atoms: CA_7  and  N_9
REMARK    8  A    between atoms: CA_7  and  C_10
REMARK    9  A    between atoms: C_10  and  O_11
REMARK   10  A    between atoms: C_13  and  O_14
REMARK                            x       y       z     vdW  Elec       q    Type
REMARK                         _______ _______ _______ _____ _____    ______ ____
ROOT
ATOM      1  C   UNL     1      10.343   0.330  25.067  0.00  0.00    +0.004 C 
ENDROOT
BRANCH   1   2
ATOM      2  C   UNL     1       9.248  -0.693  25.392  0.00  0.00    +0.030 C 
BRANCH   2   3
ATOM      3  CA  UNL     1       8.770  -1.483  24.163  0.00  0.00    +0.161 C 
BRANCH   3   4
ATOM      4  N   UNL     1       7.491  -2.220  24.398  0.00  0.00    -0.318 NA
ATOM      5  H1  UNL     1       7.677  -3.226  24.466  0.00  0.00    +0.119 HD
ATOM      6  H2  UNL     1       7.166  -1.977  25.340  0.00  0.00    +0.119 HD
ENDBRANCH   3   4
BRANCH   3   7
ATOM      7  C   UNL     1       9.845  -2.485  23.693  0.00  0.00    +0.322 C 
ATOM      8  OXT UNL     1      10.083  -3.560  24.217  0.00  0.00    -0.249 OA
BRANCH   7   9
ATOM      9  O   UNL     1      10.497  -2.026  22.593  0.00  0.00    -0.480 OA
ATOM     10  H   UNL     1      10.888  -2.828  22.163  0.00  0.00    +0.295 HD
ENDBRANCH   7   9
ENDBRANCH   3   7
ENDBRANCH   2   3
ENDBRANCH   1   2
BRANCH   1  11
ATOM     11  C   UNL     1       9.790   1.634  24.475  0.00  0.00    +0.030 C 
BRANCH  11  12
ATOM     12  CA  UNL     1      10.508   2.055  23.178  0.00  0.00    +0.161 C 
BRANCH  12  13
ATOM     13  N   UNL     1      10.641   3.537  23.087  0.00  0.00    -0.318 NA
ATOM     14  H1  UNL     1      11.348   3.752  22.377  0.00  0.00    +0.119 HD
ATOM     15  H2  UNL     1       9.769   3.911  22.696  0.00  0.00    +0.119 HD
ENDBRANCH  12  13
BRANCH  12  16
ATOM     16  C   UNL     1       9.711   1.565  21.958  0.00  0.00    +0.322 C 
ATOM     17  OXT UNL     1       9.778   0.450  21.474  0.00  0.00    -0.249 OA
BRANCH  16  18
ATOM     18  O   UNL     1       8.851   2.525  21.518  0.00  0.00    -0.480 OA
ATOM     19  H   UNL     1       8.600   3.054  22.317  0.00  0.00    +0.295 HD
ENDBRANCH  16  18
ENDBRANCH  12  16
ENDBRANCH  11  12
ENDBRANCH   1  11
TORSDOF 10
ENDMDL
