MODEL 1
REMARK VINA RESULT:      -4.6      0.000      0.000
REMARK  Name = 
REMARK  45 active torsions:
REMARK  status: ('A' for Active; 'I' for Inactive)
REMARK    1  A    between atoms: C_1  and  C_2
REMARK    2  A    between atoms: C_2  and  C_3
REMARK    3  A    between atoms: C_3  and  C_4
REMARK    4  A    between atoms: C_4  and  C_5
REMARK    5  A    between atoms: C_5  and  C_6
REMARK    6  A    between atoms: C_6  and  C_7
REMARK    7  A    between atoms: C_7  and  C_8
REMARK    8  A    between atoms: C_8  and  C_9
REMARK    9  A    between atoms: C_10  and  C_11
REMARK   10  A    between atoms: C_11  and  C_12
REMARK   11  A    between atoms: C_12  and  C_13
REMARK   12  A    between atoms: C_13  and  C_14
REMARK   13  A    between atoms: C_14  and  C_15
REMARK   14  A    between atoms: C_15  and  C_16
REMARK   15  A    between atoms: C_16  and  C_17
REMARK   16  A    between atoms: C_17  and  C_18
REMARK   17  A    between atoms: C_18  and  O_20
REMARK   18  A    between atoms: O_20  and  C_21
REMARK   19  A    between atoms: C_21  and  C_22
REMARK   20  A    between atoms: C_22  and  C_24
REMARK   21  A    between atoms: C_22  and  O_36
REMARK   22  A    between atoms: C_24  and  O_25
REMARK   23  A    between atoms: O_25  and  P_26
REMARK   24  A    between atoms: P_26  and  O_27
REMARK   25  A    between atoms: P_26  and  O_29
REMARK   26  A    between atoms: O_29  and  C_30
REMARK   27  A    between atoms: C_30  and  C_31
REMARK   28  A    between atoms: C_31  and  O_33
REMARK   29  A    between atoms: C_31  and  C_34
REMARK   30  A    between atoms: C_34  and  O_35
REMARK   31  A    between atoms: O_36  and  C_37
REMARK   32  A    between atoms: C_37  and  C_39
REMARK   33  A    between atoms: C_39  and  C_40
REMARK   34  A    between atoms: C_40  and  C_41
REMARK   35  A    between atoms: C_41  and  C_42
REMARK   36  A    between atoms: C_42  and  C_43
REMARK   37  A    between atoms: C_43  and  C_44
REMARK   38  A    between atoms: C_44  and  C_45
REMARK   39  A    between atoms: C_45  and  C_46
REMARK   40  A    between atoms: C_47  and  C_48
REMARK   41  A    between atoms: C_48  and  C_49
REMARK   42  A    between atoms: C_49  and  C_50
REMARK   43  A    between atoms: C_50  and  C_51
REMARK   44  A    between atoms: C_51  and  C_52
REMARK   45  A    between atoms: C_52  and  C_53
REMARK                            x       y       z     vdW  Elec       q    Type
REMARK                         _______ _______ _______ _____ _____    ______ ____
ROOT
ATOM      1  C   UNL     1       5.156  -5.500  23.822  0.00  0.00    +0.240 C 
ENDROOT
BRANCH   1   2
ATOM      2  C   UNL     1       4.296  -6.714  23.442  0.00  0.00    +0.220 C 
BRANCH   2   3
ATOM      3  O   UNL     1       3.785  -7.402  24.577  0.00  0.00    -0.283 OA
BRANCH   3   4
ATOM      4  P   UNL     1       2.297  -8.006  24.455  0.00  0.00    +0.475 P 
ATOM      5  O   UNL     1       1.792  -8.220  23.069  0.00  0.00    -0.227 OA
BRANCH   4   6
ATOM      6  O   UNL     1       2.405  -9.390  25.259  0.00  0.00    -0.302 OA
ATOM      7  H   UNL     1       1.874 -10.073  24.810  0.00  0.00    +0.222 HD
ENDBRANCH   4   6
BRANCH   4   8
ATOM      8  O   UNL     1       1.378  -7.097  25.403  0.00  0.00    -0.284 OA
BRANCH   8   9
ATOM      9  C   UNL     1       1.310  -7.418  26.781  0.00  0.00    +0.206 C 
BRANCH   9  10
ATOM     10  C   UNL     1       2.021  -6.343  27.606  0.00  0.00    +0.166 C 
BRANCH  10  11
ATOM     11  O   UNL     1       2.584  -5.360  26.727  0.00  0.00    -0.387 OA
ATOM     12  H   UNL     1       3.379  -5.018  27.174  0.00  0.00    +0.210 HD
ENDBRANCH  10  11
BRANCH  10  13
ATOM     13  C   UNL     1       3.133  -6.929  28.482  0.00  0.00    +0.189 C 
BRANCH  13  14
ATOM     14  O   UNL     1       4.209  -7.375  27.653  0.00  0.00    -0.392 OA
ATOM     15  H   UNL     1       5.023  -7.295  28.179  0.00  0.00    +0.210 HD
ENDBRANCH  13  14
ENDBRANCH  10  13
ENDBRANCH   9  10
ENDBRANCH   8   9
ENDBRANCH   4   8
ENDBRANCH   3   4
ENDBRANCH   2   3
ENDBRANCH   1   2
BRANCH   1  16
ATOM     16  C   UNL     1       5.631  -5.531  25.279  0.00  0.00    +0.279 C 
BRANCH  16  17
ATOM     17  O   UNL     1       7.049  -5.326  25.377  0.00  0.00    -0.461 OA
BRANCH  17  18
ATOM     18  C   UNL     1       7.453  -4.694  26.514  0.00  0.00    +0.307 C 
ATOM     19  O   UNL     1       8.045  -5.226  27.443  0.00  0.00    -0.251 OA
BRANCH  18  20
ATOM     20  C   UNL     1       7.093  -3.237  26.460  0.00  0.00    +0.120 C 
BRANCH  20  21
ATOM     21  C   UNL     1       8.358  -2.394  26.506  0.00  0.00    +0.011 C 
BRANCH  21  22
ATOM     22  C   UNL     1       8.034  -0.922  26.736  0.00  0.00    +0.001 C 
BRANCH  22  23
ATOM     23  C   UNL     1       6.552  -0.695  26.485  0.00  0.00    +0.000 C 
BRANCH  23  24
ATOM     24  C   UNL     1       5.976   0.408  27.365  0.00  0.00    +0.000 C 
BRANCH  24  25
ATOM     25  C   UNL     1       7.061   1.065  28.220  0.00  0.00    +0.004 C 
BRANCH  25  26
ATOM     26  C   UNL     1       6.836   2.556  28.489  0.00  0.00    +0.027 C 
BRANCH  26  28
ATOM     27  C   UNL     1       5.645   4.295  27.107  0.00  0.00    -0.031 C 
ATOM     28  C   UNL     1       5.659   3.106  27.727  0.00  0.00    -0.031 C 
BRANCH  27  29
ATOM     29  C   UNL     1       6.837   5.197  27.083  0.00  0.00    +0.027 C 
BRANCH  29  30
ATOM     30  C   UNL     1       6.940   6.012  25.807  0.00  0.00    +0.004 C 
BRANCH  30  31
ATOM     31  C   UNL     1       8.409   6.143  25.418  0.00  0.00    +0.000 C 
BRANCH  31  32
ATOM     32  C   UNL     1       8.548   6.390  23.925  0.00  0.00    +0.000 C 
BRANCH  32  33
ATOM     33  C   UNL     1       9.977   6.122  23.466  0.00  0.00    -0.000 C 
BRANCH  33  34
ATOM     34  C   UNL     1      10.959   6.428  24.593  0.00  0.00    -0.000 C 
BRANCH  34  36
ATOM     35  C   UNL     1      12.397   5.056  23.069  0.00  0.00    +0.004 C 
ATOM     36  C   UNL     1      12.387   6.077  24.193  0.00  0.00    -0.003 C 
ENDBRANCH  34  36
ENDBRANCH  33  34
ENDBRANCH  32  33
ENDBRANCH  31  32
ENDBRANCH  30  31
ENDBRANCH  29  30
ENDBRANCH  27  29
ENDBRANCH  26  28
ENDBRANCH  25  26
ENDBRANCH  24  25
ENDBRANCH  23  24
ENDBRANCH  22  23
ENDBRANCH  21  22
ENDBRANCH  20  21
ENDBRANCH  18  20
ENDBRANCH  17  18
ENDBRANCH  16  17
ENDBRANCH   1  16
BRANCH   1  37
ATOM     37  O   UNL     1       6.316  -5.379  22.978  0.00  0.00    -0.456 OA
BRANCH  37  38
ATOM     38  C   UNL     1       6.351  -4.260  22.214  0.00  0.00    +0.308 C 
ATOM     39  O   UNL     1       5.645  -4.032  21.243  0.00  0.00    -0.251 OA
BRANCH  38  40
ATOM     40  C   UNL     1       7.390  -3.301  22.724  0.00  0.00    +0.120 C 
BRANCH  40  41
ATOM     41  C   UNL     1       6.724  -1.973  23.013  0.00  0.00    +0.011 C 
BRANCH  41  42
ATOM     42  C   UNL     1       7.670  -0.800  22.775  0.00  0.00    +0.001 C 
BRANCH  42  43
ATOM     43  C   UNL     1       8.827  -1.293  21.923  0.00  0.00    +0.000 C 
BRANCH  43  44
ATOM     44  C   UNL     1      10.179  -0.848  22.461  0.00  0.00    +0.000 C 
BRANCH  44  45
ATOM     45  C   UNL     1      10.174  -0.794  23.991  0.00  0.00    +0.004 C 
BRANCH  45  46
ATOM     46  C   UNL     1      10.794   0.476  24.581  0.00  0.00    +0.027 C 
BRANCH  46  47
ATOM     47  C   UNL     1      10.610   1.676  23.690  0.00  0.00    -0.031 C 
ATOM     48  C   UNL     1       9.633   2.583  23.832  0.00  0.00    -0.031 C 
BRANCH  48  49
ATOM     49  C   UNL     1       8.624   2.508  24.934  0.00  0.00    +0.027 C 
BRANCH  49  50
ATOM     50  C   UNL     1       7.196   2.379  24.426  0.00  0.00    +0.004 C 
BRANCH  50  51
ATOM     51  C   UNL     1       7.117   2.927  23.003  0.00  0.00    +0.000 C 
BRANCH  51  52
ATOM     52  C   UNL     1       5.996   3.947  22.879  0.00  0.00    -0.000 C 
BRANCH  52  53
ATOM     53  C   UNL     1       4.722   3.436  23.547  0.00  0.00    -0.003 C 
ATOM     54  C   UNL     1       3.564   3.435  22.565  0.00  0.00    +0.004 C 
ENDBRANCH  52  53
ENDBRANCH  51  52
ENDBRANCH  50  51
ENDBRANCH  49  50
ENDBRANCH  48  49
ENDBRANCH  46  47
ENDBRANCH  45  46
ENDBRANCH  44  45
ENDBRANCH  43  44
ENDBRANCH  42  43
ENDBRANCH  41  42
ENDBRANCH  40  41
ENDBRANCH  38  40
ENDBRANCH  37  38
ENDBRANCH   1  37
TORSDOF 43
ENDMDL
MODEL 2
REMARK VINA RESULT:      -4.6      1.412      2.581
REMARK  Name = 
REMARK  45 active torsions:
REMARK  status: ('A' for Active; 'I' for Inactive)
REMARK    1  A    between atoms: C_1  and  C_2
REMARK    2  A    between atoms: C_2  and  C_3
REMARK    3  A    between atoms: C_3  and  C_4
REMARK    4  A    between atoms: C_4  and  C_5
REMARK    5  A    between atoms: C_5  and  C_6
REMARK    6  A    between atoms: C_6  and  C_7
REMARK    7  A    between atoms: C_7  and  C_8
REMARK    8  A    between atoms: C_8  and  C_9
REMARK    9  A    between atoms: C_10  and  C_11
REMARK   10  A    between atoms: C_11  and  C_12
REMARK   11  A    between atoms: C_12  and  C_13
REMARK   12  A    between atoms: C_13  and  C_14
REMARK   13  A    between atoms: C_14  and  C_15
REMARK   14  A    between atoms: C_15  and  C_16
REMARK   15  A    between atoms: C_16  and  C_17
REMARK   16  A    between atoms: C_17  and  C_18
REMARK   17  A    between atoms: C_18  and  O_20
REMARK   18  A    between atoms: O_20  and  C_21
REMARK   19  A    between atoms: C_21  and  C_22
REMARK   20  A    between atoms: C_22  and  C_24
REMARK   21  A    between atoms: C_22  and  O_36
REMARK   22  A    between atoms: C_24  and  O_25
REMARK   23  A    between atoms: O_25  and  P_26
REMARK   24  A    between atoms: P_26  and  O_27
REMARK   25  A    between atoms: P_26  and  O_29
REMARK   26  A    between atoms: O_29  and  C_30
REMARK   27  A    between atoms: C_30  and  C_31
REMARK   28  A    between atoms: C_31  and  O_33
REMARK   29  A    between atoms: C_31  and  C_34
REMARK   30  A    between atoms: C_34  and  O_35
REMARK   31  A    between atoms: O_36  and  C_37
REMARK   32  A    between atoms: C_37  and  C_39
REMARK   33  A    between atoms: C_39  and  C_40
REMARK   34  A    between atoms: C_40  and  C_41
REMARK   35  A    between atoms: C_41  and  C_42
REMARK   36  A    between atoms: C_42  and  C_43
REMARK   37  A    between atoms: C_43  and  C_44
REMARK   38  A    between atoms: C_44  and  C_45
REMARK   39  A    between atoms: C_45  and  C_46
REMARK   40  A    between atoms: C_47  and  C_48
REMARK   41  A    between atoms: C_48  and  C_49
REMARK   42  A    between atoms: C_49  and  C_50
REMARK   43  A    between atoms: C_50  and  C_51
REMARK   44  A    between atoms: C_51  and  C_52
REMARK   45  A    between atoms: C_52  and  C_53
REMARK                            x       y       z     vdW  Elec       q    Type
REMARK                         _______ _______ _______ _____ _____    ______ ____
ROOT
ATOM      1  C   UNL     1       4.722  -5.988  23.663  0.00  0.00    +0.240 C 
ENDROOT
BRANCH   1   2
ATOM      2  C   UNL     1       3.228  -6.322  23.548  0.00  0.00    +0.220 C 
BRANCH   2   3
ATOM      3  O   UNL     1       2.513  -6.067  24.750  0.00  0.00    -0.283 OA
BRANCH   3   4
ATOM      4  P   UNL     1       2.003  -7.348  25.582  0.00  0.00    +0.475 P 
ATOM      5  O   UNL     1       0.830  -8.071  25.012  0.00  0.00    -0.227 OA
BRANCH   4   6
ATOM      6  O   UNL     1       3.303  -8.287  25.628  0.00  0.00    -0.302 OA
ATOM      7  H   UNL     1       4.097  -7.759  25.421  0.00  0.00    +0.222 HD
ENDBRANCH   4   6
BRANCH   4   8
ATOM      8  O   UNL     1       1.851  -6.853  27.099  0.00  0.00    -0.284 OA
BRANCH   8   9
ATOM      9  C   UNL     1       2.233  -5.525  27.413  0.00  0.00    +0.206 C 
BRANCH   9  10
ATOM     10  C   UNL     1       2.970  -5.495  28.753  0.00  0.00    +0.166 C 
BRANCH  10  11
ATOM     11  O   UNL     1       4.268  -4.912  28.574  0.00  0.00    -0.387 OA
ATOM     12  H   UNL     1       4.132  -3.948  28.548  0.00  0.00    +0.210 HD
ENDBRANCH  10  11
BRANCH  10  13
ATOM     13  C   UNL     1       3.128  -6.894  29.357  0.00  0.00    +0.189 C 
BRANCH  13  14
ATOM     14  O   UNL     1       4.185  -7.587  28.687  0.00  0.00    -0.392 OA
ATOM     15  H   UNL     1       4.902  -6.945  28.553  0.00  0.00    +0.210 HD
ENDBRANCH  13  14
ENDBRANCH  10  13
ENDBRANCH   9  10
ENDBRANCH   8   9
ENDBRANCH   4   8
ENDBRANCH   3   4
ENDBRANCH   2   3
ENDBRANCH   1   2
BRANCH   1  16
ATOM     16  C   UNL     1       5.262  -5.218  22.453  0.00  0.00    +0.279 C 
BRANCH  16  17
ATOM     17  O   UNL     1       5.158  -3.799  22.639  0.00  0.00    -0.461 OA
BRANCH  17  18
ATOM     18  C   UNL     1       6.331  -3.121  22.499  0.00  0.00    +0.307 C 
ATOM     19  O   UNL     1       7.317  -3.534  21.905  0.00  0.00    -0.251 OA
BRANCH  18  20
ATOM     20  C   UNL     1       6.239  -1.773  23.156  0.00  0.00    +0.120 C 
BRANCH  20  21
ATOM     21  C   UNL     1       5.652  -1.923  24.551  0.00  0.00    +0.011 C 
BRANCH  21  22
ATOM     22  C   UNL     1       5.978  -0.712  25.420  0.00  0.00    +0.001 C 
BRANCH  22  23
ATOM     23  C   UNL     1       6.080   0.520  24.536  0.00  0.00    +0.000 C 
BRANCH  23  24
ATOM     24  C   UNL     1       6.894   1.634  25.183  0.00  0.00    +0.000 C 
BRANCH  24  25
ATOM     25  C   UNL     1       7.167   1.341  26.660  0.00  0.00    +0.004 C 
BRANCH  25  26
ATOM     26  C   UNL     1       6.834   2.499  27.605  0.00  0.00    +0.027 C 
BRANCH  26  28
ATOM     27  C   UNL     1       5.577   4.590  26.972  0.00  0.00    -0.031 C 
ATOM     28  C   UNL     1       5.613   3.264  27.168  0.00  0.00    -0.031 C 
BRANCH  27  29
ATOM     29  C   UNL     1       6.786   5.454  27.140  0.00  0.00    +0.027 C 
BRANCH  29  30
ATOM     30  C   UNL     1       6.721   6.732  26.323  0.00  0.00    +0.004 C 
BRANCH  30  31
ATOM     31  C   UNL     1       7.935   6.794  25.403  0.00  0.00    +0.000 C 
BRANCH  31  32
ATOM     32  C   UNL     1       8.855   5.610  25.649  0.00  0.00    +0.000 C 
BRANCH  32  33
ATOM     33  C   UNL     1       9.406   5.073  24.332  0.00  0.00    -0.000 C 
BRANCH  33  34
ATOM     34  C   UNL     1      10.810   5.615  24.088  0.00  0.00    -0.000 C 
BRANCH  34  36
ATOM     35  C   UNL     1      12.973   5.232  22.885  0.00  0.00    +0.004 C 
ATOM     36  C   UNL     1      11.675   4.598  23.353  0.00  0.00    -0.003 C 
ENDBRANCH  34  36
ENDBRANCH  33  34
ENDBRANCH  32  33
ENDBRANCH  31  32
ENDBRANCH  30  31
ENDBRANCH  29  30
ENDBRANCH  27  29
ENDBRANCH  26  28
ENDBRANCH  25  26
ENDBRANCH  24  25
ENDBRANCH  23  24
ENDBRANCH  22  23
ENDBRANCH  21  22
ENDBRANCH  20  21
ENDBRANCH  18  20
ENDBRANCH  17  18
ENDBRANCH  16  17
ENDBRANCH   1  16
BRANCH   1  37
ATOM     37  O   UNL     1       5.010  -5.218  24.845  0.00  0.00    -0.456 OA
BRANCH  37  38
ATOM     38  C   UNL     1       5.883  -5.796  25.705  0.00  0.00    +0.308 C 
ATOM     39  O   UNL     1       5.610  -6.645  26.541  0.00  0.00    -0.251 OA
BRANCH  38  40
ATOM     40  C   UNL     1       7.271  -5.258  25.494  0.00  0.00    +0.120 C 
BRANCH  40  41
ATOM     41  C   UNL     1       7.591  -4.293  26.616  0.00  0.00    +0.011 C 
BRANCH  41  42
ATOM     42  C   UNL     1       8.699  -3.320  26.228  0.00  0.00    +0.001 C 
BRANCH  42  43
ATOM     43  C   UNL     1       9.130  -3.639  24.806  0.00  0.00    +0.000 C 
BRANCH  43  44
ATOM     44  C   UNL     1       9.802  -2.458  24.121  0.00  0.00    +0.000 C 
BRANCH  44  45
ATOM     45  C   UNL     1       9.512  -1.151  24.863  0.00  0.00    +0.004 C 
BRANCH  45  46
ATOM     46  C   UNL     1      10.029   0.106  24.157  0.00  0.00    +0.027 C 
BRANCH  46  47
ATOM     47  C   UNL     1      10.173  -0.085  22.670  0.00  0.00    -0.031 C 
ATOM     48  C   UNL     1       9.743   0.788  21.748  0.00  0.00    -0.031 C 
BRANCH  48  49
ATOM     49  C   UNL     1       9.091   2.083  22.114  0.00  0.00    +0.027 C 
BRANCH  49  50
ATOM     50  C   UNL     1       7.627   2.150  21.706  0.00  0.00    +0.004 C 
BRANCH  50  51
ATOM     51  C   UNL     1       7.105   3.565  21.937  0.00  0.00    +0.000 C 
BRANCH  51  52
ATOM     52  C   UNL     1       5.676   3.535  22.456  0.00  0.00    -0.000 C 
BRANCH  52  53
ATOM     53  C   UNL     1       5.363   4.794  23.259  0.00  0.00    -0.003 C 
ATOM     54  C   UNL     1       6.008   6.012  22.622  0.00  0.00    +0.004 C 
ENDBRANCH  52  53
ENDBRANCH  51  52
ENDBRANCH  50  51
ENDBRANCH  49  50
ENDBRANCH  48  49
ENDBRANCH  46  47
ENDBRANCH  45  46
ENDBRANCH  44  45
ENDBRANCH  43  44
ENDBRANCH  42  43
ENDBRANCH  41  42
ENDBRANCH  40  41
ENDBRANCH  38  40
ENDBRANCH  37  38
ENDBRANCH   1  37
TORSDOF 43
ENDMDL
MODEL 3
REMARK VINA RESULT:      -4.5      1.854      4.693
REMARK  Name = 
REMARK  45 active torsions:
REMARK  status: ('A' for Active; 'I' for Inactive)
REMARK    1  A    between atoms: C_1  and  C_2
REMARK    2  A    between atoms: C_2  and  C_3
REMARK    3  A    between atoms: C_3  and  C_4
REMARK    4  A    between atoms: C_4  and  C_5
REMARK    5  A    between atoms: C_5  and  C_6
REMARK    6  A    between atoms: C_6  and  C_7
REMARK    7  A    between atoms: C_7  and  C_8
REMARK    8  A    between atoms: C_8  and  C_9
REMARK    9  A    between atoms: C_10  and  C_11
REMARK   10  A    between atoms: C_11  and  C_12
REMARK   11  A    between atoms: C_12  and  C_13
REMARK   12  A    between atoms: C_13  and  C_14
REMARK   13  A    between atoms: C_14  and  C_15
REMARK   14  A    between atoms: C_15  and  C_16
REMARK   15  A    between atoms: C_16  and  C_17
REMARK   16  A    between atoms: C_17  and  C_18
REMARK   17  A    between atoms: C_18  and  O_20
REMARK   18  A    between atoms: O_20  and  C_21
REMARK   19  A    between atoms: C_21  and  C_22
REMARK   20  A    between atoms: C_22  and  C_24
REMARK   21  A    between atoms: C_22  and  O_36
REMARK   22  A    between atoms: C_24  and  O_25
REMARK   23  A    between atoms: O_25  and  P_26
REMARK   24  A    between atoms: P_26  and  O_27
REMARK   25  A    between atoms: P_26  and  O_29
REMARK   26  A    between atoms: O_29  and  C_30
REMARK   27  A    between atoms: C_30  and  C_31
REMARK   28  A    between atoms: C_31  and  O_33
REMARK   29  A    between atoms: C_31  and  C_34
REMARK   30  A    between atoms: C_34  and  O_35
REMARK   31  A    between atoms: O_36  and  C_37
REMARK   32  A    between atoms: C_37  and  C_39
REMARK   33  A    between atoms: C_39  and  C_40
REMARK   34  A    between atoms: C_40  and  C_41
REMARK   35  A    between atoms: C_41  and  C_42
REMARK   36  A    between atoms: C_42  and  C_43
REMARK   37  A    between atoms: C_43  and  C_44
REMARK   38  A    between atoms: C_44  and  C_45
REMARK   39  A    between atoms: C_45  and  C_46
REMARK   40  A    between atoms: C_47  and  C_48
REMARK   41  A    between atoms: C_48  and  C_49
REMARK   42  A    between atoms: C_49  and  C_50
REMARK   43  A    between atoms: C_50  and  C_51
REMARK   44  A    between atoms: C_51  and  C_52
REMARK   45  A    between atoms: C_52  and  C_53
REMARK                            x       y       z     vdW  Elec       q    Type
REMARK                         _______ _______ _______ _____ _____    ______ ____
ROOT
ATOM      1  C   UNL     1       6.984  -3.804  25.650  0.00  0.00    +0.240 C 
ENDROOT
BRANCH   1   2
ATOM      2  C   UNL     1       7.025  -4.655  26.927  0.00  0.00    +0.220 C 
BRANCH   2   3
ATOM      3  O   UNL     1       6.662  -6.010  26.696  0.00  0.00    -0.283 OA
BRANCH   3   4
ATOM      4  P   UNL     1       5.253  -6.501  27.302  0.00  0.00    +0.475 P 
ATOM      5  O   UNL     1       5.331  -7.488  28.417  0.00  0.00    -0.227 OA
BRANCH   4   6
ATOM      6  O   UNL     1       4.570  -5.131  27.779  0.00  0.00    -0.302 OA
ATOM      7  H   UNL     1       5.129  -4.376  27.516  0.00  0.00    +0.222 HD
ENDBRANCH   4   6
BRANCH   4   8
ATOM      8  O   UNL     1       4.364  -6.939  26.041  0.00  0.00    -0.284 OA
BRANCH   8   9
ATOM      9  C   UNL     1       3.653  -5.934  25.339  0.00  0.00    +0.206 C 
BRANCH   9  10
ATOM     10  C   UNL     1       3.578  -6.287  23.853  0.00  0.00    +0.166 C 
BRANCH  10  11
ATOM     11  O   UNL     1       3.482  -5.084  23.078  0.00  0.00    -0.387 OA
ATOM     12  H   UNL     1       3.337  -5.364  22.157  0.00  0.00    +0.210 HD
ENDBRANCH  10  11
BRANCH  10  13
ATOM     13  C   UNL     1       2.380  -7.187  23.532  0.00  0.00    +0.189 C 
BRANCH  13  14
ATOM     14  O   UNL     1       2.637  -8.512  24.006  0.00  0.00    -0.392 OA
ATOM     15  H   UNL     1       3.581  -8.551  24.235  0.00  0.00    +0.210 HD
ENDBRANCH  13  14
ENDBRANCH  10  13
ENDBRANCH   9  10
ENDBRANCH   8   9
ENDBRANCH   4   8
ENDBRANCH   3   4
ENDBRANCH   2   3
ENDBRANCH   1   2
BRANCH   1  16
ATOM     16  C   UNL     1       7.605  -4.506  24.437  0.00  0.00    +0.279 C 
BRANCH  16  17
ATOM     17  O   UNL     1       8.012  -3.564  23.433  0.00  0.00    -0.461 OA
BRANCH  17  18
ATOM     18  C   UNL     1       9.132  -2.853  23.744  0.00  0.00    +0.307 C 
ATOM     19  O   UNL     1      10.188  -3.334  24.130  0.00  0.00    -0.251 OA
BRANCH  18  20
ATOM     20  C   UNL     1       8.899  -1.386  23.519  0.00  0.00    +0.120 C 
BRANCH  20  21
ATOM     21  C   UNL     1       9.511  -0.589  24.660  0.00  0.00    +0.011 C 
BRANCH  21  22
ATOM     22  C   UNL     1      10.661   0.285  24.170  0.00  0.00    +0.001 C 
BRANCH  22  23
ATOM     23  C   UNL     1      10.113   1.642  23.763  0.00  0.00    +0.000 C 
BRANCH  23  24
ATOM     24  C   UNL     1      10.246   1.898  22.266  0.00  0.00    +0.000 C 
BRANCH  24  25
ATOM     25  C   UNL     1       8.994   1.450  21.509  0.00  0.00    +0.004 C 
BRANCH  25  26
ATOM     26  C   UNL     1       7.760   2.319  21.762  0.00  0.00    +0.027 C 
BRANCH  26  28
ATOM     27  C   UNL     1       6.232   2.128  23.757  0.00  0.00    -0.031 C 
ATOM     28  C   UNL     1       6.734   1.626  22.620  0.00  0.00    -0.031 C 
BRANCH  27  29
ATOM     29  C   UNL     1       6.627   3.472  24.279  0.00  0.00    +0.027 C 
BRANCH  29  30
ATOM     30  C   UNL     1       7.717   3.403  25.333  0.00  0.00    +0.004 C 
BRANCH  30  31
ATOM     31  C   UNL     1       8.543   4.684  25.277  0.00  0.00    +0.000 C 
BRANCH  31  32
ATOM     32  C   UNL     1       8.796   5.095  23.836  0.00  0.00    +0.000 C 
BRANCH  32  33
ATOM     33  C   UNL     1       9.616   6.380  23.779  0.00  0.00    -0.000 C 
BRANCH  33  34
ATOM     34  C   UNL     1      11.072   6.092  24.130  0.00  0.00    -0.000 C 
BRANCH  34  36
ATOM     35  C   UNL     1      13.205   5.163  23.203  0.00  0.00    +0.004 C 
ATOM     36  C   UNL     1      11.689   5.096  23.155  0.00  0.00    -0.003 C 
ENDBRANCH  34  36
ENDBRANCH  33  34
ENDBRANCH  32  33
ENDBRANCH  31  32
ENDBRANCH  30  31
ENDBRANCH  29  30
ENDBRANCH  27  29
ENDBRANCH  26  28
ENDBRANCH  25  26
ENDBRANCH  24  25
ENDBRANCH  23  24
ENDBRANCH  22  23
ENDBRANCH  21  22
ENDBRANCH  20  21
ENDBRANCH  18  20
ENDBRANCH  17  18
ENDBRANCH  16  17
ENDBRANCH   1  16
BRANCH   1  37
ATOM     37  O   UNL     1       5.640  -3.422  25.303  0.00  0.00    -0.456 OA
BRANCH  37  38
ATOM     38  C   UNL     1       5.159  -2.348  25.977  0.00  0.00    +0.308 C 
ATOM     39  O   UNL     1       4.335  -2.378  26.879  0.00  0.00    -0.251 OA
BRANCH  38  40
ATOM     40  C   UNL     1       5.787  -1.080  25.471  0.00  0.00    +0.120 C 
BRANCH  40  41
ATOM     41  C   UNL     1       6.229  -0.251  26.659  0.00  0.00    +0.011 C 
BRANCH  41  42
ATOM     42  C   UNL     1       5.232   0.857  26.981  0.00  0.00    +0.001 C 
BRANCH  42  43
ATOM     43  C   UNL     1       5.766   1.642  28.167  0.00  0.00    +0.000 C 
BRANCH  43  44
ATOM     44  C   UNL     1       5.414   3.120  28.094  0.00  0.00    +0.000 C 
BRANCH  44  45
ATOM     45  C   UNL     1       4.228   3.360  27.156  0.00  0.00    +0.004 C 
BRANCH  45  46
ATOM     46  C   UNL     1       3.981   4.832  26.813  0.00  0.00    +0.027 C 
BRANCH  46  47
ATOM     47  C   UNL     1       5.211   5.682  26.993  0.00  0.00    -0.031 C 
ATOM     48  C   UNL     1       5.595   6.648  26.148  0.00  0.00    -0.031 C 
BRANCH  48  49
ATOM     49  C   UNL     1       4.806   7.008  24.929  0.00  0.00    +0.027 C 
BRANCH  49  50
ATOM     50  C   UNL     1       5.626   6.953  23.649  0.00  0.00    +0.004 C 
BRANCH  50  51
ATOM     51  C   UNL     1       4.832   6.213  22.576  0.00  0.00    +0.000 C 
BRANCH  51  52
ATOM     52  C   UNL     1       3.460   5.815  23.098  0.00  0.00    -0.000 C 
BRANCH  52  53
ATOM     53  C   UNL     1       3.011   4.490  22.487  0.00  0.00    -0.003 C 
ATOM     54  C   UNL     1       2.885   3.420  23.557  0.00  0.00    +0.004 C 
ENDBRANCH  52  53
ENDBRANCH  51  52
ENDBRANCH  50  51
ENDBRANCH  49  50
ENDBRANCH  48  49
ENDBRANCH  46  47
ENDBRANCH  45  46
ENDBRANCH  44  45
ENDBRANCH  43  44
ENDBRANCH  42  43
ENDBRANCH  41  42
ENDBRANCH  40  41
ENDBRANCH  38  40
ENDBRANCH  37  38
ENDBRANCH   1  37
TORSDOF 43
ENDMDL
MODEL 4
REMARK VINA RESULT:      -4.3      1.537      3.871
REMARK  Name = 
REMARK  45 active torsions:
REMARK  status: ('A' for Active; 'I' for Inactive)
REMARK    1  A    between atoms: C_1  and  C_2
REMARK    2  A    between atoms: C_2  and  C_3
REMARK    3  A    between atoms: C_3  and  C_4
REMARK    4  A    between atoms: C_4  and  C_5
REMARK    5  A    between atoms: C_5  and  C_6
REMARK    6  A    between atoms: C_6  and  C_7
REMARK    7  A    between atoms: C_7  and  C_8
REMARK    8  A    between atoms: C_8  and  C_9
REMARK    9  A    between atoms: C_10  and  C_11
REMARK   10  A    between atoms: C_11  and  C_12
REMARK   11  A    between atoms: C_12  and  C_13
REMARK   12  A    between atoms: C_13  and  C_14
REMARK   13  A    between atoms: C_14  and  C_15
REMARK   14  A    between atoms: C_15  and  C_16
REMARK   15  A    between atoms: C_16  and  C_17
REMARK   16  A    between atoms: C_17  and  C_18
REMARK   17  A    between atoms: C_18  and  O_20
REMARK   18  A    between atoms: O_20  and  C_21
REMARK   19  A    between atoms: C_21  and  C_22
REMARK   20  A    between atoms: C_22  and  C_24
REMARK   21  A    between atoms: C_22  and  O_36
REMARK   22  A    between atoms: C_24  and  O_25
REMARK   23  A    between atoms: O_25  and  P_26
REMARK   24  A    between atoms: P_26  and  O_27
REMARK   25  A    between atoms: P_26  and  O_29
REMARK   26  A    between atoms: O_29  and  C_30
REMARK   27  A    between atoms: C_30  and  C_31
REMARK   28  A    between atoms: C_31  and  O_33
REMARK   29  A    between atoms: C_31  and  C_34
REMARK   30  A    between atoms: C_34  and  O_35
REMARK   31  A    between atoms: O_36  and  C_37
REMARK   32  A    between atoms: C_37  and  C_39
REMARK   33  A    between atoms: C_39  and  C_40
REMARK   34  A    between atoms: C_40  and  C_41
REMARK   35  A    between atoms: C_41  and  C_42
REMARK   36  A    between atoms: C_42  and  C_43
REMARK   37  A    between atoms: C_43  and  C_44
REMARK   38  A    between atoms: C_44  and  C_45
REMARK   39  A    between atoms: C_45  and  C_46
REMARK   40  A    between atoms: C_47  and  C_48
REMARK   41  A    between atoms: C_48  and  C_49
REMARK   42  A    between atoms: C_49  and  C_50
REMARK   43  A    between atoms: C_50  and  C_51
REMARK   44  A    between atoms: C_51  and  C_52
REMARK   45  A    between atoms: C_52  and  C_53
REMARK                            x       y       z     vdW  Elec       q    Type
REMARK                         _______ _______ _______ _____ _____    ______ ____
ROOT
ATOM      1  C   UNL     1       4.624  -6.118  23.919  0.00  0.00    +0.240 C 
ENDROOT
BRANCH   1   2
ATOM      2  C   UNL     1       3.109  -6.367  23.935  0.00  0.00    +0.220 C 
BRANCH   2   3
ATOM      3  O   UNL     1       2.469  -5.790  25.066  0.00  0.00    -0.283 OA
BRANCH   3   4
ATOM      4  P   UNL     1       1.853  -6.806  26.153  0.00  0.00    +0.475 P 
ATOM      5  O   UNL     1       0.562  -7.453  25.782  0.00  0.00    -0.227 OA
BRANCH   4   6
ATOM      6  O   UNL     1       3.020  -7.892  26.332  0.00  0.00    -0.302 OA
ATOM      7  H   UNL     1       2.991  -8.261  27.234  0.00  0.00    +0.222 HD
ENDBRANCH   4   6
BRANCH   4   8
ATOM      8  O   UNL     1       1.866  -6.015  27.547  0.00  0.00    -0.284 OA
BRANCH   8   9
ATOM      9  C   UNL     1       2.857  -5.023  27.748  0.00  0.00    +0.206 C 
BRANCH   9  10
ATOM     10  C   UNL     1       3.504  -5.199  29.123  0.00  0.00    +0.166 C 
BRANCH  10  11
ATOM     11  O   UNL     1       4.907  -4.911  29.033  0.00  0.00    -0.387 OA
ATOM     12  H   UNL     1       5.285  -5.584  28.439  0.00  0.00    +0.210 HD
ENDBRANCH  10  11
BRANCH  10  13
ATOM     13  C   UNL     1       3.318  -6.617  29.672  0.00  0.00    +0.189 C 
BRANCH  13  14
ATOM     14  O   UNL     1       4.189  -7.516  28.979  0.00  0.00    -0.392 OA
ATOM     15  H   UNL     1       4.465  -8.192  29.621  0.00  0.00    +0.210 HD
ENDBRANCH  13  14
ENDBRANCH  10  13
ENDBRANCH   9  10
ENDBRANCH   8   9
ENDBRANCH   4   8
ENDBRANCH   3   4
ENDBRANCH   2   3
ENDBRANCH   1   2
BRANCH   1  16
ATOM     16  C   UNL     1       5.115  -5.477  22.616  0.00  0.00    +0.279 C 
BRANCH  16  17
ATOM     17  O   UNL     1       5.029  -4.045  22.667  0.00  0.00    -0.461 OA
BRANCH  17  18
ATOM     18  C   UNL     1       6.219  -3.400  22.513  0.00  0.00    +0.307 C 
ATOM     19  O   UNL     1       7.166  -3.814  21.860  0.00  0.00    -0.251 OA
BRANCH  18  20
ATOM     20  C   UNL     1       6.198  -2.084  23.238  0.00  0.00    +0.120 C 
BRANCH  20  21
ATOM     21  C   UNL     1       5.319  -2.195  24.474  0.00  0.00    +0.011 C 
BRANCH  21  22
ATOM     22  C   UNL     1       5.690  -1.140  25.512  0.00  0.00    +0.001 C 
BRANCH  22  23
ATOM     23  C   UNL     1       6.274   0.070  24.803  0.00  0.00    +0.000 C 
BRANCH  23  24
ATOM     24  C   UNL     1       7.148   0.916  25.721  0.00  0.00    +0.000 C 
BRANCH  24  25
ATOM     25  C   UNL     1       7.397   0.214  27.058  0.00  0.00    +0.004 C 
BRANCH  25  26
ATOM     26  C   UNL     1       7.072   1.067  28.288  0.00  0.00    +0.027 C 
BRANCH  26  28
ATOM     27  C   UNL     1       5.317   2.876  28.293  0.00  0.00    -0.031 C 
ATOM     28  C   UNL     1       5.656   1.578  28.275  0.00  0.00    -0.031 C 
BRANCH  27  29
ATOM     29  C   UNL     1       6.338   3.968  28.293  0.00  0.00    +0.027 C 
BRANCH  29  30
ATOM     30  C   UNL     1       6.072   5.030  27.243  0.00  0.00    +0.004 C 
BRANCH  30  31
ATOM     31  C   UNL     1       6.289   4.425  25.859  0.00  0.00    +0.000 C 
BRANCH  31  32
ATOM     32  C   UNL     1       5.074   4.656  24.977  0.00  0.00    +0.000 C 
BRANCH  32  33
ATOM     33  C   UNL     1       4.588   3.342  24.375  0.00  0.00    -0.000 C 
BRANCH  33  34
ATOM     34  C   UNL     1       4.671   3.396  22.854  0.00  0.00    -0.000 C 
BRANCH  34  36
ATOM     35  C   UNL     1       2.299   4.180  23.033  0.00  0.00    +0.004 C 
ATOM     36  C   UNL     1       3.285   3.358  22.222  0.00  0.00    -0.003 C 
ENDBRANCH  34  36
ENDBRANCH  33  34
ENDBRANCH  32  33
ENDBRANCH  31  32
ENDBRANCH  30  31
ENDBRANCH  29  30
ENDBRANCH  27  29
ENDBRANCH  26  28
ENDBRANCH  25  26
ENDBRANCH  24  25
ENDBRANCH  23  24
ENDBRANCH  22  23
ENDBRANCH  21  22
ENDBRANCH  20  21
ENDBRANCH  18  20
ENDBRANCH  17  18
ENDBRANCH  16  17
ENDBRANCH   1  16
BRANCH   1  37
ATOM     37  O   UNL     1       5.042  -5.281  25.013  0.00  0.00    -0.456 OA
BRANCH  37  38
ATOM     38  C   UNL     1       5.941  -5.847  25.854  0.00  0.00    +0.308 C 
ATOM     39  O   UNL     1       5.695  -6.688  26.706  0.00  0.00    -0.251 OA
BRANCH  38  40
ATOM     40  C   UNL     1       7.320  -5.305  25.601  0.00  0.00    +0.120 C 
BRANCH  40  41
ATOM     41  C   UNL     1       7.609  -4.221  26.618  0.00  0.00    +0.011 C 
BRANCH  41  42
ATOM     42  C   UNL     1       8.647  -3.227  26.108  0.00  0.00    +0.001 C 
BRANCH  42  43
ATOM     43  C   UNL     1       9.222  -3.770  24.810  0.00  0.00    +0.000 C 
BRANCH  43  44
ATOM     44  C   UNL     1       9.821  -2.679  23.936  0.00  0.00    +0.000 C 
BRANCH  44  45
ATOM     45  C   UNL     1       9.664  -1.301  24.586  0.00  0.00    +0.004 C 
BRANCH  45  46
ATOM     46  C   UNL     1      10.272  -0.149  23.782  0.00  0.00    +0.027 C 
BRANCH  46  47
ATOM     47  C   UNL     1      10.200  -0.380  22.296  0.00  0.00    -0.031 C 
ATOM     48  C   UNL     1       9.294   0.182  21.483  0.00  0.00    -0.031 C 
BRANCH  48  49
ATOM     49  C   UNL     1       8.259   1.141  21.980  0.00  0.00    +0.027 C 
BRANCH  49  50
ATOM     50  C   UNL     1       8.694   2.595  21.872  0.00  0.00    +0.004 C 
BRANCH  50  51
ATOM     51  C   UNL     1       8.287   3.336  23.143  0.00  0.00    +0.000 C 
BRANCH  51  52
ATOM     52  C   UNL     1       9.446   3.401  24.124  0.00  0.00    -0.000 C 
BRANCH  52  53
ATOM     53  C   UNL     1      10.429   4.500  23.731  0.00  0.00    -0.003 C 
ATOM     54  C   UNL     1       9.758   5.861  23.771  0.00  0.00    +0.004 C 
ENDBRANCH  52  53
ENDBRANCH  51  52
ENDBRANCH  50  51
ENDBRANCH  49  50
ENDBRANCH  48  49
ENDBRANCH  46  47
ENDBRANCH  45  46
ENDBRANCH  44  45
ENDBRANCH  43  44
ENDBRANCH  42  43
ENDBRANCH  41  42
ENDBRANCH  40  41
ENDBRANCH  38  40
ENDBRANCH  37  38
ENDBRANCH   1  37
TORSDOF 43
ENDMDL
MODEL 5
REMARK VINA RESULT:      -4.2      1.306      2.052
REMARK  Name = 
REMARK  45 active torsions:
REMARK  status: ('A' for Active; 'I' for Inactive)
REMARK    1  A    between atoms: C_1  and  C_2
REMARK    2  A    between atoms: C_2  and  C_3
REMARK    3  A    between atoms: C_3  and  C_4
REMARK    4  A    between atoms: C_4  and  C_5
REMARK    5  A    between atoms: C_5  and  C_6
REMARK    6  A    between atoms: C_6  and  C_7
REMARK    7  A    between atoms: C_7  and  C_8
REMARK    8  A    between atoms: C_8  and  C_9
REMARK    9  A    between atoms: C_10  and  C_11
REMARK   10  A    between atoms: C_11  and  C_12
REMARK   11  A    between atoms: C_12  and  C_13
REMARK   12  A    between atoms: C_13  and  C_14
REMARK   13  A    between atoms: C_14  and  C_15
REMARK   14  A    between atoms: C_15  and  C_16
REMARK   15  A    between atoms: C_16  and  C_17
REMARK   16  A    between atoms: C_17  and  C_18
REMARK   17  A    between atoms: C_18  and  O_20
REMARK   18  A    between atoms: O_20  and  C_21
REMARK   19  A    between atoms: C_21  and  C_22
REMARK   20  A    between atoms: C_22  and  C_24
REMARK   21  A    between atoms: C_22  and  O_36
REMARK   22  A    between atoms: C_24  and  O_25
REMARK   23  A    between atoms: O_25  and  P_26
REMARK   24  A    between atoms: P_26  and  O_27
REMARK   25  A    between atoms: P_26  and  O_29
REMARK   26  A    between atoms: O_29  and  C_30
REMARK   27  A    between atoms: C_30  and  C_31
REMARK   28  A    between atoms: C_31  and  O_33
REMARK   29  A    between atoms: C_31  and  C_34
REMARK   30  A    between atoms: C_34  and  O_35
REMARK   31  A    between atoms: O_36  and  C_37
REMARK   32  A    between atoms: C_37  and  C_39
REMARK   33  A    between atoms: C_39  and  C_40
REMARK   34  A    between atoms: C_40  and  C_41
REMARK   35  A    between atoms: C_41  and  C_42
REMARK   36  A    between atoms: C_42  and  C_43
REMARK   37  A    between atoms: C_43  and  C_44
REMARK   38  A    between atoms: C_44  and  C_45
REMARK   39  A    between atoms: C_45  and  C_46
REMARK   40  A    between atoms: C_47  and  C_48
REMARK   41  A    between atoms: C_48  and  C_49
REMARK   42  A    between atoms: C_49  and  C_50
REMARK   43  A    between atoms: C_50  and  C_51
REMARK   44  A    between atoms: C_51  and  C_52
REMARK   45  A    between atoms: C_52  and  C_53
REMARK                            x       y       z     vdW  Elec       q    Type
REMARK                         _______ _______ _______ _____ _____    ______ ____
ROOT
ATOM      1  C   UNL     1       4.732  -4.621  23.626  0.00  0.00    +0.240 C 
ENDROOT
BRANCH   1   2
ATOM      2  C   UNL     1       3.490  -5.494  23.391  0.00  0.00    +0.220 C 
BRANCH   2   3
ATOM      3  O   UNL     1       3.620  -6.795  23.948  0.00  0.00    -0.283 OA
BRANCH   3   4
ATOM      4  P   UNL     1       2.257  -7.579  24.297  0.00  0.00    +0.475 P 
ATOM      5  O   UNL     1       1.335  -7.824  23.151  0.00  0.00    -0.227 OA
BRANCH   4   6
ATOM      6  O   UNL     1       2.786  -8.957  24.926  0.00  0.00    -0.302 OA
ATOM      7  H   UNL     1       3.731  -8.872  25.155  0.00  0.00    +0.222 HD
ENDBRANCH   4   6
BRANCH   4   8
ATOM      8  O   UNL     1       1.623  -6.816  25.556  0.00  0.00    -0.284 OA
BRANCH   8   9
ATOM      9  C   UNL     1       1.937  -7.287  26.855  0.00  0.00    +0.206 C 
BRANCH   9  10
ATOM     10  C   UNL     1       3.185  -6.578  27.382  0.00  0.00    +0.166 C 
BRANCH  10  11
ATOM     11  O   UNL     1       4.355  -7.305  26.980  0.00  0.00    -0.387 OA
ATOM     12  H   UNL     1       5.117  -6.807  27.327  0.00  0.00    +0.210 HD
ENDBRANCH  10  11
BRANCH  10  13
ATOM     13  C   UNL     1       3.175  -6.449  28.909  0.00  0.00    +0.189 C 
BRANCH  13  14
ATOM     14  O   UNL     1       3.581  -7.689  29.496  0.00  0.00    -0.392 OA
ATOM     15  H   UNL     1       4.511  -7.584  29.761  0.00  0.00    +0.210 HD
ENDBRANCH  13  14
ENDBRANCH  10  13
ENDBRANCH   9  10
ENDBRANCH   8   9
ENDBRANCH   4   8
ENDBRANCH   3   4
ENDBRANCH   2   3
ENDBRANCH   1   2
BRANCH   1  16
ATOM     16  C   UNL     1       5.269  -4.710  25.059  0.00  0.00    +0.279 C 
BRANCH  16  17
ATOM     17  O   UNL     1       6.286  -5.715  25.181  0.00  0.00    -0.461 OA
BRANCH  17  18
ATOM     18  C   UNL     1       7.174  -5.503  26.192  0.00  0.00    +0.307 C 
ATOM     19  O   UNL     1       7.064  -5.940  27.329  0.00  0.00    -0.251 OA
BRANCH  18  20
ATOM     20  C   UNL     1       8.330  -4.675  25.708  0.00  0.00    +0.120 C 
BRANCH  20  21
ATOM     21  C   UNL     1       8.639  -3.585  26.721  0.00  0.00    +0.011 C 
BRANCH  21  22
ATOM     22  C   UNL     1       8.440  -2.198  26.120  0.00  0.00    +0.001 C 
BRANCH  22  23
ATOM     23  C   UNL     1       6.975  -1.811  26.241  0.00  0.00    +0.000 C 
BRANCH  23  24
ATOM     24  C   UNL     1       6.662  -0.492  25.545  0.00  0.00    +0.000 C 
BRANCH  24  25
ATOM     25  C   UNL     1       5.427   0.180  26.149  0.00  0.00    +0.004 C 
BRANCH  25  26
ATOM     26  C   UNL     1       5.499   0.387  27.664  0.00  0.00    +0.027 C 
BRANCH  26  28
ATOM     27  C   UNL     1       6.984   2.352  28.200  0.00  0.00    -0.031 C 
ATOM     28  C   UNL     1       6.791   1.029  28.096  0.00  0.00    -0.031 C 
BRANCH  27  29
ATOM     29  C   UNL     1       5.898   3.341  27.923  0.00  0.00    +0.027 C 
BRANCH  29  30
ATOM     30  C   UNL     1       6.103   4.101  26.625  0.00  0.00    +0.004 C 
BRANCH  30  31
ATOM     31  C   UNL     1       6.113   5.597  26.923  0.00  0.00    +0.000 C 
BRANCH  31  32
ATOM     32  C   UNL     1       5.950   6.398  25.642  0.00  0.00    +0.000 C 
BRANCH  32  33
ATOM     33  C   UNL     1       6.691   5.729  24.490  0.00  0.00    -0.000 C 
BRANCH  33  34
ATOM     34  C   UNL     1       8.121   6.252  24.410  0.00  0.00    -0.000 C 
BRANCH  34  36
ATOM     35  C   UNL     1       7.398   6.266  22.012  0.00  0.00    +0.004 C 
ATOM     36  C   UNL     1       8.574   6.404  22.962  0.00  0.00    -0.003 C 
ENDBRANCH  34  36
ENDBRANCH  33  34
ENDBRANCH  32  33
ENDBRANCH  31  32
ENDBRANCH  30  31
ENDBRANCH  29  30
ENDBRANCH  27  29
ENDBRANCH  26  28
ENDBRANCH  25  26
ENDBRANCH  24  25
ENDBRANCH  23  24
ENDBRANCH  22  23
ENDBRANCH  21  22
ENDBRANCH  20  21
ENDBRANCH  18  20
ENDBRANCH  17  18
ENDBRANCH  16  17
ENDBRANCH   1  16
BRANCH   1  37
ATOM     37  O   UNL     1       5.804  -4.960  22.727  0.00  0.00    -0.456 OA
BRANCH  37  38
ATOM     38  C   UNL     1       6.258  -3.934  21.967  0.00  0.00    +0.308 C 
ATOM     39  O   UNL     1       5.639  -3.373  21.076  0.00  0.00    -0.251 OA
BRANCH  38  40
ATOM     40  C   UNL     1       7.655  -3.554  22.371  0.00  0.00    +0.120 C 
BRANCH  40  41
ATOM     41  C   UNL     1       7.731  -2.046  22.492  0.00  0.00    +0.011 C 
BRANCH  41  42
ATOM     42  C   UNL     1       9.040  -1.497  21.934  0.00  0.00    +0.001 C 
BRANCH  42  43
ATOM     43  C   UNL     1       9.987  -1.264  23.099  0.00  0.00    +0.000 C 
BRANCH  43  44
ATOM     44  C   UNL     1      10.437   0.186  23.204  0.00  0.00    +0.000 C 
BRANCH  44  45
ATOM     45  C   UNL     1      10.117   0.764  24.585  0.00  0.00    +0.004 C 
BRANCH  45  46
ATOM     46  C   UNL     1       9.062   1.874  24.578  0.00  0.00    +0.027 C 
BRANCH  46  47
ATOM     47  C   UNL     1       9.092   2.691  23.313  0.00  0.00    -0.031 C 
ATOM     48  C   UNL     1       8.151   2.647  22.360  0.00  0.00    -0.031 C 
BRANCH  48  49
ATOM     49  C   UNL     1       6.934   1.784  22.474  0.00  0.00    +0.027 C 
BRANCH  49  50
ATOM     50  C   UNL     1       5.832   2.416  23.310  0.00  0.00    +0.004 C 
BRANCH  50  51
ATOM     51  C   UNL     1       5.004   3.348  22.428  0.00  0.00    +0.000 C 
BRANCH  51  52
ATOM     52  C   UNL     1       3.753   3.810  23.157  0.00  0.00    -0.000 C 
BRANCH  52  53
ATOM     53  C   UNL     1       3.522   2.982  24.418  0.00  0.00    -0.003 C 
ATOM     54  C   UNL     1       2.609   3.716  25.385  0.00  0.00    +0.004 C 
ENDBRANCH  52  53
ENDBRANCH  51  52
ENDBRANCH  50  51
ENDBRANCH  49  50
ENDBRANCH  48  49
ENDBRANCH  46  47
ENDBRANCH  45  46
ENDBRANCH  44  45
ENDBRANCH  43  44
ENDBRANCH  42  43
ENDBRANCH  41  42
ENDBRANCH  40  41
ENDBRANCH  38  40
ENDBRANCH  37  38
ENDBRANCH   1  37
TORSDOF 43
ENDMDL
MODEL 6
REMARK VINA RESULT:      -4.2      3.275      8.101
REMARK  Name = 
REMARK  45 active torsions:
REMARK  status: ('A' for Active; 'I' for Inactive)
REMARK    1  A    between atoms: C_1  and  C_2
REMARK    2  A    between atoms: C_2  and  C_3
REMARK    3  A    between atoms: C_3  and  C_4
REMARK    4  A    between atoms: C_4  and  C_5
REMARK    5  A    between atoms: C_5  and  C_6
REMARK    6  A    between atoms: C_6  and  C_7
REMARK    7  A    between atoms: C_7  and  C_8
REMARK    8  A    between atoms: C_8  and  C_9
REMARK    9  A    between atoms: C_10  and  C_11
REMARK   10  A    between atoms: C_11  and  C_12
REMARK   11  A    between atoms: C_12  and  C_13
REMARK   12  A    between atoms: C_13  and  C_14
REMARK   13  A    between atoms: C_14  and  C_15
REMARK   14  A    between atoms: C_15  and  C_16
REMARK   15  A    between atoms: C_16  and  C_17
REMARK   16  A    between atoms: C_17  and  C_18
REMARK   17  A    between atoms: C_18  and  O_20
REMARK   18  A    between atoms: O_20  and  C_21
REMARK   19  A    between atoms: C_21  and  C_22
REMARK   20  A    between atoms: C_22  and  C_24
REMARK   21  A    between atoms: C_22  and  O_36
REMARK   22  A    between atoms: C_24  and  O_25
REMARK   23  A    between atoms: O_25  and  P_26
REMARK   24  A    between atoms: P_26  and  O_27
REMARK   25  A    between atoms: P_26  and  O_29
REMARK   26  A    between atoms: O_29  and  C_30
REMARK   27  A    between atoms: C_30  and  C_31
REMARK   28  A    between atoms: C_31  and  O_33
REMARK   29  A    between atoms: C_31  and  C_34
REMARK   30  A    between atoms: C_34  and  O_35
REMARK   31  A    between atoms: O_36  and  C_37
REMARK   32  A    between atoms: C_37  and  C_39
REMARK   33  A    between atoms: C_39  and  C_40
REMARK   34  A    between atoms: C_40  and  C_41
REMARK   35  A    between atoms: C_41  and  C_42
REMARK   36  A    between atoms: C_42  and  C_43
REMARK   37  A    between atoms: C_43  and  C_44
REMARK   38  A    between atoms: C_44  and  C_45
REMARK   39  A    between atoms: C_45  and  C_46
REMARK   40  A    between atoms: C_47  and  C_48
REMARK   41  A    between atoms: C_48  and  C_49
REMARK   42  A    between atoms: C_49  and  C_50
REMARK   43  A    between atoms: C_50  and  C_51
REMARK   44  A    between atoms: C_51  and  C_52
REMARK   45  A    between atoms: C_52  and  C_53
REMARK                            x       y       z     vdW  Elec       q    Type
REMARK                         _______ _______ _______ _____ _____    ______ ____
ROOT
ATOM      1  C   UNL     1       9.851  -0.998  24.379  0.00  0.00    +0.240 C 
ENDROOT
BRANCH   1   2
ATOM      2  C   UNL     1       8.918   0.102  24.903  0.00  0.00    +0.220 C 
BRANCH   2   3
ATOM      3  O   UNL     1       7.544  -0.194  24.688  0.00  0.00    -0.283 OA
BRANCH   3   4
ATOM      4  P   UNL     1       6.492   0.415  25.745  0.00  0.00    +0.475 P 
ATOM      5  O   UNL     1       5.504   1.387  25.195  0.00  0.00    -0.227 OA
BRANCH   4   6
ATOM      6  O   UNL     1       5.766  -0.893  26.323  0.00  0.00    -0.302 OA
ATOM      7  H   UNL     1       6.064  -1.058  27.237  0.00  0.00    +0.222 HD
ENDBRANCH   4   6
BRANCH   4   8
ATOM      8  O   UNL     1       7.368   0.931  26.985  0.00  0.00    -0.284 OA
BRANCH   8   9
ATOM      9  C   UNL     1       6.841   1.970  27.793  0.00  0.00    +0.206 C 
BRANCH   9  10
ATOM     10  C   UNL     1       7.160   1.701  29.265  0.00  0.00    +0.166 C 
BRANCH  10  11
ATOM     11  O   UNL     1       8.318   0.860  29.358  0.00  0.00    -0.387 OA
ATOM     12  H   UNL     1       8.268   0.244  28.605  0.00  0.00    +0.210 HD
ENDBRANCH  10  11
BRANCH  10  13
ATOM     13  C   UNL     1       5.993   1.031  29.996  0.00  0.00    +0.189 C 
BRANCH  13  14
ATOM     14  O   UNL     1       5.186   0.318  29.055  0.00  0.00    -0.392 OA
ATOM     15  H   UNL     1       5.583  -0.564  28.954  0.00  0.00    +0.210 HD
ENDBRANCH  13  14
ENDBRANCH  10  13
ENDBRANCH   9  10
ENDBRANCH   8   9
ENDBRANCH   4   8
ENDBRANCH   3   4
ENDBRANCH   2   3
ENDBRANCH   1   2
BRANCH   1  16
ATOM     16  C   UNL     1       9.114  -2.295  24.024  0.00  0.00    +0.279 C 
BRANCH  16  17
ATOM     17  O   UNL     1       9.949  -3.447  24.216  0.00  0.00    -0.461 OA
BRANCH  17  18
ATOM     18  C   UNL     1       9.341  -4.487  24.852  0.00  0.00    +0.307 C 
ATOM     19  O   UNL     1       9.441  -5.663  24.533  0.00  0.00    -0.251 OA
BRANCH  18  20
ATOM     20  C   UNL     1       8.546  -3.990  26.026  0.00  0.00    +0.120 C 
BRANCH  20  21
ATOM     21  C   UNL     1       7.961  -5.171  26.785  0.00  0.00    +0.011 C 
BRANCH  21  22
ATOM     22  C   UNL     1       6.442  -5.215  26.651  0.00  0.00    +0.001 C 
BRANCH  22  23
ATOM     23  C   UNL     1       5.858  -5.926  27.861  0.00  0.00    +0.000 C 
BRANCH  23  24
ATOM     24  C   UNL     1       4.455  -6.461  27.601  0.00  0.00    +0.000 C 
BRANCH  24  25
ATOM     25  C   UNL     1       3.397  -5.636  28.337  0.00  0.00    +0.004 C 
BRANCH  25  26
ATOM     26  C   UNL     1       2.359  -4.980  27.421  0.00  0.00    +0.027 C 
BRANCH  26  28
ATOM     27  C   UNL     1       2.705  -3.701  25.277  0.00  0.00    -0.031 C 
ATOM     28  C   UNL     1       2.948  -3.875  26.585  0.00  0.00    -0.031 C 
BRANCH  27  29
ATOM     29  C   UNL     1       1.777  -4.590  24.513  0.00  0.00    +0.027 C 
BRANCH  29  30
ATOM     30  C   UNL     1       2.481  -5.406  23.444  0.00  0.00    +0.004 C 
BRANCH  30  31
ATOM     31  C   UNL     1       2.971  -6.712  24.060  0.00  0.00    +0.000 C 
BRANCH  31  32
ATOM     32  C   UNL     1       4.485  -6.810  23.975  0.00  0.00    +0.000 C 
BRANCH  32  33
ATOM     33  C   UNL     1       5.056  -5.643  23.176  0.00  0.00    -0.000 C 
BRANCH  33  34
ATOM     34  C   UNL     1       6.402  -6.027  22.573  0.00  0.00    -0.000 C 
BRANCH  34  36
ATOM     35  C   UNL     1       6.231  -3.577  22.083  0.00  0.00    +0.004 C 
ATOM     36  C   UNL     1       7.085  -4.823  21.933  0.00  0.00    -0.003 C 
ENDBRANCH  34  36
ENDBRANCH  33  34
ENDBRANCH  32  33
ENDBRANCH  31  32
ENDBRANCH  30  31
ENDBRANCH  29  30
ENDBRANCH  27  29
ENDBRANCH  26  28
ENDBRANCH  25  26
ENDBRANCH  24  25
ENDBRANCH  23  24
ENDBRANCH  22  23
ENDBRANCH  21  22
ENDBRANCH  20  21
ENDBRANCH  18  20
ENDBRANCH  17  18
ENDBRANCH  16  17
ENDBRANCH   1  16
BRANCH   1  37
ATOM     37  O   UNL     1      10.585  -0.571  23.216  0.00  0.00    -0.456 OA
BRANCH  37  38
ATOM     38  C   UNL     1       9.825  -0.315  22.124  0.00  0.00    +0.308 C 
ATOM     39  O   UNL     1       9.194  -1.139  21.479  0.00  0.00    -0.251 OA
BRANCH  38  40
ATOM     40  C   UNL     1       9.846   1.152  21.796  0.00  0.00    +0.120 C 
BRANCH  40  41
ATOM     41  C   UNL     1       8.421   1.627  21.608  0.00  0.00    +0.011 C 
BRANCH  41  42
ATOM     42  C   UNL     1       8.065   2.750  22.578  0.00  0.00    +0.001 C 
BRANCH  42  43
ATOM     43  C   UNL     1       6.850   3.479  22.028  0.00  0.00    +0.000 C 
BRANCH  43  44
ATOM     44  C   UNL     1       6.973   4.991  22.151  0.00  0.00    +0.000 C 
BRANCH  44  45
ATOM     45  C   UNL     1       5.832   5.572  22.991  0.00  0.00    +0.004 C 
BRANCH  45  46
ATOM     46  C   UNL     1       6.271   6.153  24.338  0.00  0.00    +0.027 C 
BRANCH  46  47
ATOM     47  C   UNL     1       6.597   5.087  25.349  0.00  0.00    -0.031 C 
ATOM     48  C   UNL     1       7.821   4.861  25.847  0.00  0.00    -0.031 C 
BRANCH  48  49
ATOM     49  C   UNL     1       9.007   5.687  25.460  0.00  0.00    +0.027 C 
BRANCH  49  50
ATOM     50  C   UNL     1       9.870   5.028  24.394  0.00  0.00    +0.004 C 
BRANCH  50  51
ATOM     51  C   UNL     1      10.689   6.100  23.679  0.00  0.00    +0.000 C 
BRANCH  51  52
ATOM     52  C   UNL     1      12.145   6.043  24.110  0.00  0.00    -0.000 C 
BRANCH  52  53
ATOM     53  C   UNL     1      12.924   5.040  23.263  0.00  0.00    -0.003 C 
ATOM     54  C   UNL     1      13.341   5.662  21.942  0.00  0.00    +0.004 C 
ENDBRANCH  52  53
ENDBRANCH  51  52
ENDBRANCH  50  51
ENDBRANCH  49  50
ENDBRANCH  48  49
ENDBRANCH  46  47
ENDBRANCH  45  46
ENDBRANCH  44  45
ENDBRANCH  43  44
ENDBRANCH  42  43
ENDBRANCH  41  42
ENDBRANCH  40  41
ENDBRANCH  38  40
ENDBRANCH  37  38
ENDBRANCH   1  37
TORSDOF 43
ENDMDL
MODEL 7
REMARK VINA RESULT:      -4.2      5.044      9.905
REMARK  Name = 
REMARK  45 active torsions:
REMARK  status: ('A' for Active; 'I' for Inactive)
REMARK    1  A    between atoms: C_1  and  C_2
REMARK    2  A    between atoms: C_2  and  C_3
REMARK    3  A    between atoms: C_3  and  C_4
REMARK    4  A    between atoms: C_4  and  C_5
REMARK    5  A    between atoms: C_5  and  C_6
REMARK    6  A    between atoms: C_6  and  C_7
REMARK    7  A    between atoms: C_7  and  C_8
REMARK    8  A    between atoms: C_8  and  C_9
REMARK    9  A    between atoms: C_10  and  C_11
REMARK   10  A    between atoms: C_11  and  C_12
REMARK   11  A    between atoms: C_12  and  C_13
REMARK   12  A    between atoms: C_13  and  C_14
REMARK   13  A    between atoms: C_14  and  C_15
REMARK   14  A    between atoms: C_15  and  C_16
REMARK   15  A    between atoms: C_16  and  C_17
REMARK   16  A    between atoms: C_17  and  C_18
REMARK   17  A    between atoms: C_18  and  O_20
REMARK   18  A    between atoms: O_20  and  C_21
REMARK   19  A    between atoms: C_21  and  C_22
REMARK   20  A    between atoms: C_22  and  C_24
REMARK   21  A    between atoms: C_22  and  O_36
REMARK   22  A    between atoms: C_24  and  O_25
REMARK   23  A    between atoms: O_25  and  P_26
REMARK   24  A    between atoms: P_26  and  O_27
REMARK   25  A    between atoms: P_26  and  O_29
REMARK   26  A    between atoms: O_29  and  C_30
REMARK   27  A    between atoms: C_30  and  C_31
REMARK   28  A    between atoms: C_31  and  O_33
REMARK   29  A    between atoms: C_31  and  C_34
REMARK   30  A    between atoms: C_34  and  O_35
REMARK   31  A    between atoms: O_36  and  C_37
REMARK   32  A    between atoms: C_37  and  C_39
REMARK   33  A    between atoms: C_39  and  C_40
REMARK   34  A    between atoms: C_40  and  C_41
REMARK   35  A    between atoms: C_41  and  C_42
REMARK   36  A    between atoms: C_42  and  C_43
REMARK   37  A    between atoms: C_43  and  C_44
REMARK   38  A    between atoms: C_44  and  C_45
REMARK   39  A    between atoms: C_45  and  C_46
REMARK   40  A    between atoms: C_47  and  C_48
REMARK   41  A    between atoms: C_48  and  C_49
REMARK   42  A    between atoms: C_49  and  C_50
REMARK   43  A    between atoms: C_50  and  C_51
REMARK   44  A    between atoms: C_51  and  C_52
REMARK   45  A    between atoms: C_52  and  C_53
REMARK                            x       y       z     vdW  Elec       q    Type
REMARK                         _______ _______ _______ _____ _____    ______ ____
ROOT
ATOM      1  C   UNL     1       5.675   5.363  24.125  0.00  0.00    +0.240 C 
ENDROOT
BRANCH   1   2
ATOM      2  C   UNL     1       4.306   5.022  24.732  0.00  0.00    +0.220 C 
BRANCH   2   3
ATOM      3  O   UNL     1       3.308   4.800  23.744  0.00  0.00    -0.283 OA
BRANCH   3   4
ATOM      4  P   UNL     1       2.135   3.760  24.112  0.00  0.00    +0.475 P 
ATOM      5  O   UNL     1       2.239   3.108  25.450  0.00  0.00    -0.227 OA
BRANCH   4   6
ATOM      6  O   UNL     1       0.811   4.657  24.000  0.00  0.00    -0.302 OA
ATOM      7  H   UNL     1       1.000   5.459  23.480  0.00  0.00    +0.222 HD
ENDBRANCH   4   6
BRANCH   4   8
ATOM      8  O   UNL     1       2.020   2.769  22.858  0.00  0.00    -0.284 OA
BRANCH   8   9
ATOM      9  C   UNL     1       1.309   3.211  21.715  0.00  0.00    +0.206 C 
BRANCH   9  10
ATOM     10  C   UNL     1       2.285   3.533  20.582  0.00  0.00    +0.166 C 
BRANCH  10  11
ATOM     11  O   UNL     1       2.739   4.888  20.711  0.00  0.00    -0.387 OA
ATOM     12  H   UNL     1       2.658   5.113  21.656  0.00  0.00    +0.210 HD
ENDBRANCH  10  11
BRANCH  10  13
ATOM     13  C   UNL     1       1.649   3.347  19.201  0.00  0.00    +0.189 C 
BRANCH  13  14
ATOM     14  O   UNL     1       2.463   3.982  18.211  0.00  0.00    -0.392 OA
ATOM     15  H   UNL     1       3.367   4.016  18.568  0.00  0.00    +0.210 HD
ENDBRANCH  13  14
ENDBRANCH  10  13
ENDBRANCH   9  10
ENDBRANCH   8   9
ENDBRANCH   4   8
ENDBRANCH   3   4
ENDBRANCH   2   3
ENDBRANCH   1   2
BRANCH   1  16
ATOM     16  C   UNL     1       6.469   6.375  24.960  0.00  0.00    +0.279 C 
BRANCH  16  17
ATOM     17  O   UNL     1       7.464   5.729  25.768  0.00  0.00    -0.461 OA
BRANCH  17  18
ATOM     18  C   UNL     1       8.665   6.370  25.807  0.00  0.00    +0.307 C 
ATOM     19  O   UNL     1       9.346   6.530  26.810  0.00  0.00    -0.251 OA
BRANCH  18  20
ATOM     20  C   UNL     1       9.056   6.834  24.433  0.00  0.00    +0.120 C 
BRANCH  20  21
ATOM     21  C   UNL     1      10.273   6.057  23.956  0.00  0.00    +0.011 C 
BRANCH  21  22
ATOM     22  C   UNL     1      10.062   4.553  24.106  0.00  0.00    +0.001 C 
BRANCH  22  23
ATOM     23  C   UNL     1      11.159   3.822  23.350  0.00  0.00    +0.000 C 
BRANCH  23  24
ATOM     24  C   UNL     1      10.720   2.438  22.884  0.00  0.00    +0.000 C 
BRANCH  24  25
ATOM     25  C   UNL     1      10.770   1.422  24.028  0.00  0.00    +0.004 C 
BRANCH  25  26
ATOM     26  C   UNL     1      10.538  -0.028  23.594  0.00  0.00    +0.027 C 
BRANCH  26  28
ATOM     27  C   UNL     1       9.212  -1.158  21.772  0.00  0.00    -0.031 C 
ATOM     28  C   UNL     1       9.948  -0.127  22.212  0.00  0.00    -0.031 C 
BRANCH  27  29
ATOM     29  C   UNL     1       8.870  -2.323  22.644  0.00  0.00    +0.027 C 
BRANCH  29  30
ATOM     30  C   UNL     1       7.551  -2.976  22.273  0.00  0.00    +0.004 C 
BRANCH  30  31
ATOM     31  C   UNL     1       7.417  -4.291  23.034  0.00  0.00    +0.000 C 
BRANCH  31  32
ATOM     32  C   UNL     1       7.149  -5.439  22.075  0.00  0.00    +0.000 C 
BRANCH  32  33
ATOM     33  C   UNL     1       5.658  -5.756  22.018  0.00  0.00    -0.000 C 
BRANCH  33  34
ATOM     34  C   UNL     1       4.982  -5.347  23.322  0.00  0.00    -0.000 C 
BRANCH  34  36
ATOM     35  C   UNL     1       4.187  -7.165  24.851  0.00  0.00    +0.004 C 
ATOM     36  C   UNL     1       3.831  -6.285  23.666  0.00  0.00    -0.003 C 
ENDBRANCH  34  36
ENDBRANCH  33  34
ENDBRANCH  32  33
ENDBRANCH  31  32
ENDBRANCH  30  31
ENDBRANCH  29  30
ENDBRANCH  27  29
ENDBRANCH  26  28
ENDBRANCH  25  26
ENDBRANCH  24  25
ENDBRANCH  23  24
ENDBRANCH  22  23
ENDBRANCH  21  22
ENDBRANCH  20  21
ENDBRANCH  18  20
ENDBRANCH  17  18
ENDBRANCH  16  17
ENDBRANCH   1  16
BRANCH   1  37
ATOM     37  O   UNL     1       6.493   4.190  23.953  0.00  0.00    -0.456 OA
BRANCH  37  38
ATOM     38  C   UNL     1       6.961   4.001  22.695  0.00  0.00    +0.308 C 
ATOM     39  O   UNL     1       7.197   4.879  21.879  0.00  0.00    -0.251 OA
BRANCH  38  40
ATOM     40  C   UNL     1       7.170   2.538  22.421  0.00  0.00    +0.120 C 
BRANCH  40  41
ATOM     41  C   UNL     1       7.077   1.782  23.729  0.00  0.00    +0.011 C 
BRANCH  41  42
ATOM     42  C   UNL     1       6.455   0.402  23.544  0.00  0.00    +0.001 C 
BRANCH  42  43
ATOM     43  C   UNL     1       6.524  -0.329  24.874  0.00  0.00    +0.000 C 
BRANCH  43  44
ATOM     44  C   UNL     1       7.677   0.151  25.744  0.00  0.00    +0.000 C 
BRANCH  44  45
ATOM     45  C   UNL     1       8.360  -1.023  26.452  0.00  0.00    +0.004 C 
BRANCH  45  46
ATOM     46  C   UNL     1       7.730  -2.389  26.164  0.00  0.00    +0.027 C 
BRANCH  46  47
ATOM     47  C   UNL     1       8.670  -3.530  26.449  0.00  0.00    -0.031 C 
ATOM     48  C   UNL     1       8.284  -4.797  26.653  0.00  0.00    -0.031 C 
BRANCH  48  49
ATOM     49  C   UNL     1       6.850  -5.219  26.585  0.00  0.00    +0.027 C 
BRANCH  49  50
ATOM     50  C   UNL     1       6.275  -5.597  27.942  0.00  0.00    +0.004 C 
BRANCH  50  51
ATOM     51  C   UNL     1       4.947  -4.873  28.144  0.00  0.00    +0.000 C 
BRANCH  51  52
ATOM     52  C   UNL     1       4.511  -4.179  26.863  0.00  0.00    -0.000 C 
BRANCH  52  53
ATOM     53  C   UNL     1       3.764  -2.885  27.174  0.00  0.00    -0.003 C 
ATOM     54  C   UNL     1       4.686  -1.877  27.836  0.00  0.00    +0.004 C 
ENDBRANCH  52  53
ENDBRANCH  51  52
ENDBRANCH  50  51
ENDBRANCH  49  50
ENDBRANCH  48  49
ENDBRANCH  46  47
ENDBRANCH  45  46
ENDBRANCH  44  45
ENDBRANCH  43  44
ENDBRANCH  42  43
ENDBRANCH  41  42
ENDBRANCH  40  41
ENDBRANCH  38  40
ENDBRANCH  37  38
ENDBRANCH   1  37
TORSDOF 43
ENDMDL
MODEL 8
REMARK VINA RESULT:      -4.2      1.674      4.418
REMARK  Name = 
REMARK  45 active torsions:
REMARK  status: ('A' for Active; 'I' for Inactive)
REMARK    1  A    between atoms: C_1  and  C_2
REMARK    2  A    between atoms: C_2  and  C_3
REMARK    3  A    between atoms: C_3  and  C_4
REMARK    4  A    between atoms: C_4  and  C_5
REMARK    5  A    between atoms: C_5  and  C_6
REMARK    6  A    between atoms: C_6  and  C_7
REMARK    7  A    between atoms: C_7  and  C_8
REMARK    8  A    between atoms: C_8  and  C_9
REMARK    9  A    between atoms: C_10  and  C_11
REMARK   10  A    between atoms: C_11  and  C_12
REMARK   11  A    between atoms: C_12  and  C_13
REMARK   12  A    between atoms: C_13  and  C_14
REMARK   13  A    between atoms: C_14  and  C_15
REMARK   14  A    between atoms: C_15  and  C_16
REMARK   15  A    between atoms: C_16  and  C_17
REMARK   16  A    between atoms: C_17  and  C_18
REMARK   17  A    between atoms: C_18  and  O_20
REMARK   18  A    between atoms: O_20  and  C_21
REMARK   19  A    between atoms: C_21  and  C_22
REMARK   20  A    between atoms: C_22  and  C_24
REMARK   21  A    between atoms: C_22  and  O_36
REMARK   22  A    between atoms: C_24  and  O_25
REMARK   23  A    between atoms: O_25  and  P_26
REMARK   24  A    between atoms: P_26  and  O_27
REMARK   25  A    between atoms: P_26  and  O_29
REMARK   26  A    between atoms: O_29  and  C_30
REMARK   27  A    between atoms: C_30  and  C_31
REMARK   28  A    between atoms: C_31  and  O_33
REMARK   29  A    between atoms: C_31  and  C_34
REMARK   30  A    between atoms: C_34  and  O_35
REMARK   31  A    between atoms: O_36  and  C_37
REMARK   32  A    between atoms: C_37  and  C_39
REMARK   33  A    between atoms: C_39  and  C_40
REMARK   34  A    between atoms: C_40  and  C_41
REMARK   35  A    between atoms: C_41  and  C_42
REMARK   36  A    between atoms: C_42  and  C_43
REMARK   37  A    between atoms: C_43  and  C_44
REMARK   38  A    between atoms: C_44  and  C_45
REMARK   39  A    between atoms: C_45  and  C_46
REMARK   40  A    between atoms: C_47  and  C_48
REMARK   41  A    between atoms: C_48  and  C_49
REMARK   42  A    between atoms: C_49  and  C_50
REMARK   43  A    between atoms: C_50  and  C_51
REMARK   44  A    between atoms: C_51  and  C_52
REMARK   45  A    between atoms: C_52  and  C_53
REMARK                            x       y       z     vdW  Elec       q    Type
REMARK                         _______ _______ _______ _____ _____    ______ ____
ROOT
ATOM      1  C   UNL     1       4.711  -4.085  23.712  0.00  0.00    +0.240 C 
ENDROOT
BRANCH   1   2
ATOM      2  C   UNL     1       3.253  -4.557  23.611  0.00  0.00    +0.220 C 
BRANCH   2   3
ATOM      3  O   UNL     1       3.137  -5.879  23.101  0.00  0.00    -0.283 OA
BRANCH   3   4
ATOM      4  P   UNL     1       2.814  -7.046  24.163  0.00  0.00    +0.475 P 
ATOM      5  O   UNL     1       1.757  -8.018  23.761  0.00  0.00    -0.227 OA
BRANCH   4   6
ATOM      6  O   UNL     1       4.234  -7.768  24.347  0.00  0.00    -0.302 OA
ATOM      7  H   UNL     1       4.145  -8.721  24.160  0.00  0.00    +0.222 HD
ENDBRANCH   4   6
BRANCH   4   8
ATOM      8  O   UNL     1       2.588  -6.307  25.568  0.00  0.00    -0.284 OA
BRANCH   8   9
ATOM      9  C   UNL     1       2.605  -7.091  26.748  0.00  0.00    +0.206 C 
BRANCH   9  10
ATOM     10  C   UNL     1       3.744  -6.635  27.663  0.00  0.00    +0.166 C 
BRANCH  10  11
ATOM     11  O   UNL     1       4.965  -7.272  27.261  0.00  0.00    -0.387 OA
ATOM     12  H   UNL     1       5.686  -6.694  27.567  0.00  0.00    +0.210 HD
ENDBRANCH  10  11
BRANCH  10  13
ATOM     13  C   UNL     1       3.469  -6.961  29.134  0.00  0.00    +0.189 C 
BRANCH  13  14
ATOM     14  O   UNL     1       2.547  -8.051  29.218  0.00  0.00    -0.392 OA
ATOM     15  H   UNL     1       2.036  -7.926  30.036  0.00  0.00    +0.210 HD
ENDBRANCH  13  14
ENDBRANCH  10  13
ENDBRANCH   9  10
ENDBRANCH   8   9
ENDBRANCH   4   8
ENDBRANCH   3   4
ENDBRANCH   2   3
ENDBRANCH   1   2
BRANCH   1  16
ATOM     16  C   UNL     1       5.292  -4.226  25.124  0.00  0.00    +0.279 C 
BRANCH  16  17
ATOM     17  O   UNL     1       6.139  -5.379  25.234  0.00  0.00    -0.461 OA
BRANCH  17  18
ATOM     18  C   UNL     1       7.252  -5.194  25.998  0.00  0.00    +0.307 C 
ATOM     19  O   UNL     1       7.589  -5.902  26.936  0.00  0.00    -0.251 OA
BRANCH  18  20
ATOM     20  C   UNL     1       8.030  -4.005  25.509  0.00  0.00    +0.120 C 
BRANCH  20  21
ATOM     21  C   UNL     1       8.630  -3.263  26.694  0.00  0.00    +0.011 C 
BRANCH  21  22
ATOM     22  C   UNL     1       8.548  -1.753  26.499  0.00  0.00    +0.001 C 
BRANCH  22  23
ATOM     23  C   UNL     1       7.087  -1.340  26.434  0.00  0.00    +0.000 C 
BRANCH  23  24
ATOM     24  C   UNL     1       6.760  -0.555  25.169  0.00  0.00    +0.000 C 
BRANCH  24  25
ATOM     25  C   UNL     1       5.517   0.316  25.357  0.00  0.00    +0.004 C 
BRANCH  25  26
ATOM     26  C   UNL     1       5.778   1.821  25.244  0.00  0.00    +0.027 C 
BRANCH  26  28
ATOM     27  C   UNL     1       4.458   3.637  24.099  0.00  0.00    -0.031 C 
ATOM     28  C   UNL     1       5.065   2.442  24.071  0.00  0.00    -0.031 C 
BRANCH  27  29
ATOM     29  C   UNL     1       4.458   4.505  25.316  0.00  0.00    +0.027 C 
BRANCH  29  30
ATOM     30  C   UNL     1       3.075   4.688  25.915  0.00  0.00    +0.004 C 
BRANCH  30  31
ATOM     31  C   UNL     1       2.424   3.319  26.086  0.00  0.00    +0.000 C 
BRANCH  31  32
ATOM     32  C   UNL     1       2.303   2.964  27.558  0.00  0.00    +0.000 C 
BRANCH  32  33
ATOM     33  C   UNL     1       3.120   1.717  27.880  0.00  0.00    -0.000 C 
BRANCH  33  34
ATOM     34  C   UNL     1       2.377   0.467  27.420  0.00  0.00    -0.000 C 
BRANCH  34  36
ATOM     35  C   UNL     1       2.949  -1.914  26.894  0.00  0.00    +0.004 C 
ATOM     36  C   UNL     1       3.061  -0.799  27.920  0.00  0.00    -0.003 C 
ENDBRANCH  34  36
ENDBRANCH  33  34
ENDBRANCH  32  33
ENDBRANCH  31  32
ENDBRANCH  30  31
ENDBRANCH  29  30
ENDBRANCH  27  29
ENDBRANCH  26  28
ENDBRANCH  25  26
ENDBRANCH  24  25
ENDBRANCH  23  24
ENDBRANCH  22  23
ENDBRANCH  21  22
ENDBRANCH  20  21
ENDBRANCH  18  20
ENDBRANCH  17  18
ENDBRANCH  16  17
ENDBRANCH   1  16
BRANCH   1  37
ATOM     37  O   UNL     1       5.570  -4.798  22.804  0.00  0.00    -0.456 OA
BRANCH  37  38
ATOM     38  C   UNL     1       6.136  -4.036  21.837  0.00  0.00    +0.308 C 
ATOM     39  O   UNL     1       5.602  -3.685  20.796  0.00  0.00    -0.251 OA
BRANCH  38  40
ATOM     40  C   UNL     1       7.541  -3.657  22.215  0.00  0.00    +0.120 C 
BRANCH  40  41
ATOM     41  C   UNL     1       7.616  -2.152  22.354  0.00  0.00    +0.011 C 
BRANCH  41  42
ATOM     42  C   UNL     1       8.966  -1.606  21.900  0.00  0.00    +0.001 C 
BRANCH  42  43
ATOM     43  C   UNL     1       9.804  -1.332  23.138  0.00  0.00    +0.000 C 
BRANCH  43  44
ATOM     44  C   UNL     1      10.371   0.080  23.156  0.00  0.00    +0.000 C 
BRANCH  44  45
ATOM     45  C   UNL     1      10.293   0.688  24.559  0.00  0.00    +0.004 C 
BRANCH  45  46
ATOM     46  C   UNL     1       9.393   1.922  24.664  0.00  0.00    +0.027 C 
BRANCH  46  47
ATOM     47  C   UNL     1       9.125   2.558  23.326  0.00  0.00    -0.031 C 
ATOM     48  C   UNL     1       8.543   3.753  23.157  0.00  0.00    -0.031 C 
BRANCH  48  49
ATOM     49  C   UNL     1       8.118   4.608  24.309  0.00  0.00    +0.027 C 
BRANCH  49  50
ATOM     50  C   UNL     1       9.265   5.401  24.917  0.00  0.00    +0.004 C 
BRANCH  50  51
ATOM     51  C   UNL     1      10.057   6.075  23.800  0.00  0.00    +0.000 C 
BRANCH  51  52
ATOM     52  C   UNL     1      11.550   6.015  24.084  0.00  0.00    -0.000 C 
BRANCH  52  53
ATOM     53  C   UNL     1      12.206   4.882  23.301  0.00  0.00    -0.003 C 
ATOM     54  C   UNL     1      13.053   5.432  22.167  0.00  0.00    +0.004 C 
ENDBRANCH  52  53
ENDBRANCH  51  52
ENDBRANCH  50  51
ENDBRANCH  49  50
ENDBRANCH  48  49
ENDBRANCH  46  47
ENDBRANCH  45  46
ENDBRANCH  44  45
ENDBRANCH  43  44
ENDBRANCH  42  43
ENDBRANCH  41  42
ENDBRANCH  40  41
ENDBRANCH  38  40
ENDBRANCH  37  38
ENDBRANCH   1  37
TORSDOF 43
ENDMDL
MODEL 9
REMARK VINA RESULT:      -4.2      1.726      4.131
REMARK  Name = 
REMARK  45 active torsions:
REMARK  status: ('A' for Active; 'I' for Inactive)
REMARK    1  A    between atoms: C_1  and  C_2
REMARK    2  A    between atoms: C_2  and  C_3
REMARK    3  A    between atoms: C_3  and  C_4
REMARK    4  A    between atoms: C_4  and  C_5
REMARK    5  A    between atoms: C_5  and  C_6
REMARK    6  A    between atoms: C_6  and  C_7
REMARK    7  A    between atoms: C_7  and  C_8
REMARK    8  A    between atoms: C_8  and  C_9
REMARK    9  A    between atoms: C_10  and  C_11
REMARK   10  A    between atoms: C_11  and  C_12
REMARK   11  A    between atoms: C_12  and  C_13
REMARK   12  A    between atoms: C_13  and  C_14
REMARK   13  A    between atoms: C_14  and  C_15
REMARK   14  A    between atoms: C_15  and  C_16
REMARK   15  A    between atoms: C_16  and  C_17
REMARK   16  A    between atoms: C_17  and  C_18
REMARK   17  A    between atoms: C_18  and  O_20
REMARK   18  A    between atoms: O_20  and  C_21
REMARK   19  A    between atoms: C_21  and  C_22
REMARK   20  A    between atoms: C_22  and  C_24
REMARK   21  A    between atoms: C_22  and  O_36
REMARK   22  A    between atoms: C_24  and  O_25
REMARK   23  A    between atoms: O_25  and  P_26
REMARK   24  A    between atoms: P_26  and  O_27
REMARK   25  A    between atoms: P_26  and  O_29
REMARK   26  A    between atoms: O_29  and  C_30
REMARK   27  A    between atoms: C_30  and  C_31
REMARK   28  A    between atoms: C_31  and  O_33
REMARK   29  A    between atoms: C_31  and  C_34
REMARK   30  A    between atoms: C_34  and  O_35
REMARK   31  A    between atoms: O_36  and  C_37
REMARK   32  A    between atoms: C_37  and  C_39
REMARK   33  A    between atoms: C_39  and  C_40
REMARK   34  A    between atoms: C_40  and  C_41
REMARK   35  A    between atoms: C_41  and  C_42
REMARK   36  A    between atoms: C_42  and  C_43
REMARK   37  A    between atoms: C_43  and  C_44
REMARK   38  A    between atoms: C_44  and  C_45
REMARK   39  A    between atoms: C_45  and  C_46
REMARK   40  A    between atoms: C_47  and  C_48
REMARK   41  A    between atoms: C_48  and  C_49
REMARK   42  A    between atoms: C_49  and  C_50
REMARK   43  A    between atoms: C_50  and  C_51
REMARK   44  A    between atoms: C_51  and  C_52
REMARK   45  A    between atoms: C_52  and  C_53
REMARK                            x       y       z     vdW  Elec       q    Type
REMARK                         _______ _______ _______ _____ _____    ______ ____
ROOT
ATOM      1  C   UNL     1       4.600  -5.908  23.655  0.00  0.00    +0.240 C 
ENDROOT
BRANCH   1   2
ATOM      2  C   UNL     1       3.163  -6.437  23.540  0.00  0.00    +0.220 C 
BRANCH   2   3
ATOM      3  O   UNL     1       2.413  -6.256  24.734  0.00  0.00    -0.283 OA
BRANCH   3   4
ATOM      4  P   UNL     1       1.874  -7.586  25.466  0.00  0.00    +0.475 P 
ATOM      5  O   UNL     1       0.576  -8.124  24.967  0.00  0.00    -0.227 OA
BRANCH   4   6
ATOM      6  O   UNL     1       3.068  -8.632  25.234  0.00  0.00    -0.302 OA
ATOM      7  H   UNL     1       3.723  -8.547  25.952  0.00  0.00    +0.222 HD
ENDBRANCH   4   6
BRANCH   4   8
ATOM      8  O   UNL     1       1.948  -7.281  27.038  0.00  0.00    -0.284 OA
BRANCH   8   9
ATOM      9  C   UNL     1       1.915  -5.929  27.462  0.00  0.00    +0.206 C 
BRANCH   9  10
ATOM     10  C   UNL     1       2.695  -5.771  28.768  0.00  0.00    +0.166 C 
BRANCH  10  11
ATOM     11  O   UNL     1       3.903  -5.038  28.520  0.00  0.00    -0.387 OA
ATOM     12  H   UNL     1       4.146  -4.619  29.365  0.00  0.00    +0.210 HD
ENDBRANCH  10  11
BRANCH  10  13
ATOM     13  C   UNL     1       3.050  -7.123  29.397  0.00  0.00    +0.189 C 
BRANCH  13  14
ATOM     14  O   UNL     1       4.359  -7.517  28.976  0.00  0.00    -0.392 OA
ATOM     15  H   UNL     1       4.782  -6.728  28.596  0.00  0.00    +0.210 HD
ENDBRANCH  13  14
ENDBRANCH  10  13
ENDBRANCH   9  10
ENDBRANCH   8   9
ENDBRANCH   4   8
ENDBRANCH   3   4
ENDBRANCH   2   3
ENDBRANCH   1   2
BRANCH   1  16
ATOM     16  C   UNL     1       4.979  -4.944  22.525  0.00  0.00    +0.279 C 
BRANCH  16  17
ATOM     17  O   UNL     1       5.179  -3.609  23.014  0.00  0.00    -0.461 OA
BRANCH  17  18
ATOM     18  C   UNL     1       6.335  -3.021  22.600  0.00  0.00    +0.307 C 
ATOM     19  O   UNL     1       7.162  -3.536  21.860  0.00  0.00    -0.251 OA
BRANCH  18  20
ATOM     20  C   UNL     1       6.444  -1.631  23.158  0.00  0.00    +0.120 C 
BRANCH  20  21
ATOM     21  C   UNL     1       5.702  -1.550  24.482  0.00  0.00    +0.011 C 
BRANCH  21  22
ATOM     22  C   UNL     1       5.903  -0.193  25.148  0.00  0.00    +0.001 C 
BRANCH  22  23
ATOM     23  C   UNL     1       6.371  -0.407  26.578  0.00  0.00    +0.000 C 
BRANCH  23  24
ATOM     24  C   UNL     1       7.529   0.510  26.954  0.00  0.00    +0.000 C 
BRANCH  24  25
ATOM     25  C   UNL     1       7.195   1.977  26.674  0.00  0.00    +0.004 C 
BRANCH  25  26
ATOM     26  C   UNL     1       6.582   2.721  27.863  0.00  0.00    +0.027 C 
BRANCH  26  28
ATOM     27  C   UNL     1       6.566   1.550  30.095  0.00  0.00    -0.031 C 
ATOM     28  C   UNL     1       7.188   2.304  29.177  0.00  0.00    -0.031 C 
BRANCH  27  29
ATOM     29  C   UNL     1       5.188   1.009  29.882  0.00  0.00    +0.027 C 
BRANCH  29  30
ATOM     30  C   UNL     1       4.098   1.970  30.322  0.00  0.00    +0.004 C 
BRANCH  30  31
ATOM     31  C   UNL     1       3.134   2.190  29.161  0.00  0.00    +0.000 C 
BRANCH  31  32
ATOM     32  C   UNL     1       3.212   1.038  28.173  0.00  0.00    +0.000 C 
BRANCH  32  33
ATOM     33  C   UNL     1       3.190   1.556  26.739  0.00  0.00    -0.000 C 
BRANCH  33  34
ATOM     34  C   UNL     1       3.003   3.069  26.728  0.00  0.00    -0.000 C 
BRANCH  34  36
ATOM     35  C   UNL     1       3.905   2.992  24.392  0.00  0.00    +0.004 C 
ATOM     36  C   UNL     1       3.930   3.734  25.717  0.00  0.00    -0.003 C 
ENDBRANCH  34  36
ENDBRANCH  33  34
ENDBRANCH  32  33
ENDBRANCH  31  32
ENDBRANCH  30  31
ENDBRANCH  29  30
ENDBRANCH  27  29
ENDBRANCH  26  28
ENDBRANCH  25  26
ENDBRANCH  24  25
ENDBRANCH  23  24
ENDBRANCH  22  23
ENDBRANCH  21  22
ENDBRANCH  20  21
ENDBRANCH  18  20
ENDBRANCH  17  18
ENDBRANCH  16  17
ENDBRANCH   1  16
BRANCH   1  37
ATOM     37  O   UNL     1       4.826  -5.237  24.908  0.00  0.00    -0.456 OA
BRANCH  37  38
ATOM     38  C   UNL     1       5.649  -5.889  25.764  0.00  0.00    +0.308 C 
ATOM     39  O   UNL     1       5.319  -6.769  26.546  0.00  0.00    -0.251 OA
BRANCH  38  40
ATOM     40  C   UNL     1       7.060  -5.390  25.628  0.00  0.00    +0.120 C 
BRANCH  40  41
ATOM     41  C   UNL     1       7.251  -4.215  26.564  0.00  0.00    +0.011 C 
BRANCH  41  42
ATOM     42  C   UNL     1       8.467  -3.378  26.182  0.00  0.00    +0.001 C 
BRANCH  42  43
ATOM     43  C   UNL     1       9.046  -3.946  24.897  0.00  0.00    +0.000 C 
BRANCH  43  44
ATOM     44  C   UNL     1       9.841  -2.915  24.110  0.00  0.00    +0.000 C 
BRANCH  44  45
ATOM     45  C   UNL     1       9.549  -1.496  24.605  0.00  0.00    +0.004 C 
BRANCH  45  46
ATOM     46  C   UNL     1      10.148  -0.387  23.736  0.00  0.00    +0.027 C 
BRANCH  46  47
ATOM     47  C   UNL     1      10.317   0.908  24.486  0.00  0.00    -0.031 C 
ATOM     48  C   UNL     1       9.872   2.097  24.056  0.00  0.00    -0.031 C 
BRANCH  48  49
ATOM     49  C   UNL     1       9.119   2.255  22.773  0.00  0.00    +0.027 C 
BRANCH  49  50
ATOM     50  C   UNL     1       7.610   2.205  22.958  0.00  0.00    +0.004 C 
BRANCH  50  51
ATOM     51  C   UNL     1       6.977   3.396  22.242  0.00  0.00    +0.000 C 
BRANCH  51  52
ATOM     52  C   UNL     1       7.565   4.704  22.747  0.00  0.00    -0.000 C 
BRANCH  52  53
ATOM     53  C   UNL     1       7.036   5.034  24.140  0.00  0.00    -0.003 C 
ATOM     54  C   UNL     1       8.180   5.223  25.119  0.00  0.00    +0.004 C 
ENDBRANCH  52  53
ENDBRANCH  51  52
ENDBRANCH  50  51
ENDBRANCH  49  50
ENDBRANCH  48  49
ENDBRANCH  46  47
ENDBRANCH  45  46
ENDBRANCH  44  45
ENDBRANCH  43  44
ENDBRANCH  42  43
ENDBRANCH  41  42
ENDBRANCH  40  41
ENDBRANCH  38  40
ENDBRANCH  37  38
ENDBRANCH   1  37
TORSDOF 43
ENDMDL
