MODEL 1
REMARK VINA RESULT:      -7.6      0.000      0.000
REMARK  Name = 
REMARK  10 active torsions:
REMARK  status: ('A' for Active; 'I' for Inactive)
REMARK    1  A    between atoms: C_1  and  C_2
REMARK    2  A    between atoms: C_2  and  C_4
REMARK    3  A    between atoms: C_7  and  C_9
REMARK    4  A    between atoms: C_11  and  N_12
REMARK    5  A    between atoms: N_12  and  S_13
REMARK    6  A    between atoms: S_13  and  C_16
REMARK    7  A    between atoms: C_19  and  C_20
REMARK    8  A    between atoms: C_22  and  C_23
REMARK    9  A    between atoms: C_24  and  C_26
REMARK   10  A    between atoms: C_26  and  O_27
REMARK                            x       y       z     vdW  Elec       q    Type
REMARK                         _______ _______ _______ _____ _____    ______ ____
ROOT
ATOM      1  C   UNL     1       8.892  -1.902  23.193  0.00  0.00    +0.029 A 
ATOM      2  S   UNL     1       9.671  -2.708  24.492  0.00  0.00    -0.079 S 
ATOM      3  C   UNL     1       8.743  -4.120  24.300  0.00  0.00    +0.119 A 
ATOM      4  C   UNL     1       7.876  -4.033  23.229  0.00  0.00    +0.070 A 
ATOM      5  C   UNL     1       7.984  -2.756  22.580  0.00  0.00    +0.042 A 
ENDROOT
BRANCH   1   8
ATOM      6  C   UNL     1       9.890   1.884  23.017  0.00  0.00    +0.055 A 
ATOM      7  S   UNL     1       9.490   0.645  24.133  0.00  0.00    -0.085 S 
ATOM      8  C   UNL     1       9.214  -0.516  22.900  0.00  0.00    +0.027 A 
ATOM      9  C   UNL     1       9.370   0.070  21.652  0.00  0.00    +0.017 A 
ATOM     10  C   UNL     1       9.757   1.440  21.717  0.00  0.00    +0.019 A 
BRANCH   6  12
ATOM     11  C   UNL     1       9.259   4.023  24.210  0.00  0.00    +0.092 C 
ATOM     12  C   UNL     1      10.312   3.190  23.510  0.00  0.00    +0.167 C 
ATOM     13  O   UNL     1      11.448   3.648  23.382  0.00  0.00    -0.292 OA
ENDBRANCH   6  12
ENDBRANCH   1   8
BRANCH   3  14
ATOM     14  C   UNL     1       8.896  -5.218  25.225  0.00  0.00    +0.345 C 
ATOM     15  O   UNL     1       7.988  -5.697  25.891  0.00  0.00    -0.244 OA
BRANCH  14  16
ATOM     16  O   UNL     1      10.163  -5.703  25.267  0.00  0.00    -0.477 OA
ATOM     17  H   UNL     1      10.578  -5.722  24.380  0.00  0.00    +0.295 HD
ENDBRANCH  14  16
ENDBRANCH   3  14
BRANCH   4  18
ATOM     18  N   UNL     1       6.962  -5.047  22.833  0.00  0.00    -0.215 N 
ATOM     19  H   UNL     1       7.211  -5.499  21.945  0.00  0.00    +0.174 HD
BRANCH  18  20
ATOM     20  S   UNL     1       5.299  -4.610  22.737  0.00  0.00    +0.073 S 
ATOM     21  O   UNL     1       4.546  -5.802  22.405  0.00  0.00    -0.150 OA
ATOM     22  O   UNL     1       5.199  -3.420  21.919  0.00  0.00    -0.150 OA
BRANCH  20  23
ATOM     23  C   UNL     1       4.938  -4.149  24.439  0.00  0.00    +0.111 A 
ATOM     24  C   UNL     1       4.722  -5.088  25.468  0.00  0.00    -0.024 A 
ATOM     25  C   UNL     1       4.734  -6.578  25.279  0.00  0.00    +0.046 C 
ATOM     26  C   UNL     1       4.439  -4.610  26.764  0.00  0.00    +0.008 A 
ATOM     27  C   UNL     1       4.385  -3.241  27.053  0.00  0.00    -0.050 A 
ATOM     28  C   UNL     1       4.136  -2.790  28.463  0.00  0.00    +0.044 C 
ATOM     29  C   UNL     1       4.566  -2.326  26.015  0.00  0.00    +0.005 A 
ATOM     30  C   UNL     1       4.835  -2.775  24.717  0.00  0.00    +0.029 A 
ENDBRANCH  20  23
ENDBRANCH  18  20
ENDBRANCH   4  18
TORSDOF 7
ENDMDL
MODEL 2
REMARK VINA RESULT:      -7.5      0.918      1.651
REMARK  Name = 
REMARK  10 active torsions:
REMARK  status: ('A' for Active; 'I' for Inactive)
REMARK    1  A    between atoms: C_1  and  C_2
REMARK    2  A    between atoms: C_2  and  C_4
REMARK    3  A    between atoms: C_7  and  C_9
REMARK    4  A    between atoms: C_11  and  N_12
REMARK    5  A    between atoms: N_12  and  S_13
REMARK    6  A    between atoms: S_13  and  C_16
REMARK    7  A    between atoms: C_19  and  C_20
REMARK    8  A    between atoms: C_22  and  C_23
REMARK    9  A    between atoms: C_24  and  C_26
REMARK   10  A    between atoms: C_26  and  O_27
REMARK                            x       y       z     vdW  Elec       q    Type
REMARK                         _______ _______ _______ _____ _____    ______ ____
ROOT
ATOM      1  C   UNL     1       8.964  -1.580  23.116  0.00  0.00    +0.029 A 
ATOM      2  S   UNL     1       9.604  -2.367  24.501  0.00  0.00    -0.079 S 
ATOM      3  C   UNL     1       8.783  -3.820  24.174  0.00  0.00    +0.119 A 
ATOM      4  C   UNL     1       8.061  -3.760  22.999  0.00  0.00    +0.070 A 
ATOM      5  C   UNL     1       8.188  -2.469  22.381  0.00  0.00    +0.042 A 
ENDROOT
BRANCH   1   8
ATOM      6  C   UNL     1       9.807   2.247  23.105  0.00  0.00    +0.055 A 
ATOM      7  S   UNL     1       9.361   0.967  24.156  0.00  0.00    -0.085 S 
ATOM      8  C   UNL     1       9.249  -0.175  22.880  0.00  0.00    +0.027 A 
ATOM      9  C   UNL     1       9.493   0.445  21.664  0.00  0.00    +0.017 A 
ATOM     10  C   UNL     1       9.813   1.828  21.790  0.00  0.00    +0.019 A 
BRANCH   6  12
ATOM     11  C   UNL     1      11.508   4.099  23.371  0.00  0.00    +0.092 C 
ATOM     12  C   UNL     1      10.125   3.557  23.660  0.00  0.00    +0.167 C 
ATOM     13  O   UNL     1       9.352   4.228  24.347  0.00  0.00    -0.292 OA
ENDBRANCH   6  12
ENDBRANCH   1   8
BRANCH   3  14
ATOM     14  C   UNL     1       8.868  -4.923  25.102  0.00  0.00    +0.345 C 
ATOM     15  O   UNL     1       8.423  -4.908  26.241  0.00  0.00    -0.244 OA
BRANCH  14  16
ATOM     16  O   UNL     1       9.476  -6.016  24.572  0.00  0.00    -0.477 OA
ATOM     17  H   UNL     1       9.997  -6.505  25.240  0.00  0.00    +0.295 HD
ENDBRANCH  14  16
ENDBRANCH   3  14
BRANCH   4  18
ATOM     18  N   UNL     1       7.261  -4.812  22.476  0.00  0.00    -0.215 N 
ATOM     19  H   UNL     1       7.465  -5.033  21.494  0.00  0.00    +0.174 HD
BRANCH  18  20
ATOM     20  S   UNL     1       5.553  -4.642  22.620  0.00  0.00    +0.073 S 
ATOM     21  O   UNL     1       4.940  -5.798  21.998  0.00  0.00    -0.150 OA
ATOM     22  O   UNL     1       5.202  -3.302  22.201  0.00  0.00    -0.150 OA
BRANCH  20  23
ATOM     23  C   UNL     1       5.319  -4.750  24.402  0.00  0.00    +0.111 A 
ATOM     24  C   UNL     1       5.207  -3.622  25.239  0.00  0.00    -0.024 A 
ATOM     25  C   UNL     1       5.297  -2.198  24.768  0.00  0.00    +0.046 C 
ATOM     26  C   UNL     1       5.033  -3.828  26.623  0.00  0.00    +0.008 A 
ATOM     27  C   UNL     1       4.952  -5.112  27.176  0.00  0.00    -0.050 A 
ATOM     28  C   UNL     1       4.709  -5.271  28.649  0.00  0.00    +0.044 C 
ATOM     29  C   UNL     1       5.101  -6.217  26.337  0.00  0.00    +0.005 A 
ATOM     30  C   UNL     1       5.287  -6.039  24.961  0.00  0.00    +0.029 A 
ENDBRANCH  20  23
ENDBRANCH  18  20
ENDBRANCH   4  18
TORSDOF 7
ENDMDL
MODEL 3
REMARK VINA RESULT:      -7.5      2.251      3.118
REMARK  Name = 
REMARK  10 active torsions:
REMARK  status: ('A' for Active; 'I' for Inactive)
REMARK    1  A    between atoms: C_1  and  C_2
REMARK    2  A    between atoms: C_2  and  C_4
REMARK    3  A    between atoms: C_7  and  C_9
REMARK    4  A    between atoms: C_11  and  N_12
REMARK    5  A    between atoms: N_12  and  S_13
REMARK    6  A    between atoms: S_13  and  C_16
REMARK    7  A    between atoms: C_19  and  C_20
REMARK    8  A    between atoms: C_22  and  C_23
REMARK    9  A    between atoms: C_24  and  C_26
REMARK   10  A    between atoms: C_26  and  O_27
REMARK                            x       y       z     vdW  Elec       q    Type
REMARK                         _______ _______ _______ _____ _____    ______ ____
ROOT
ATOM      1  C   UNL     1       8.881  -0.895  24.276  0.00  0.00    +0.029 A 
ATOM      2  S   UNL     1       9.725  -2.374  24.063  0.00  0.00    -0.079 S 
ATOM      3  C   UNL     1       8.683  -3.230  25.099  0.00  0.00    +0.119 A 
ATOM      4  C   UNL     1       7.657  -2.439  25.577  0.00  0.00    +0.070 A 
ATOM      5  C   UNL     1       7.765  -1.096  25.079  0.00  0.00    +0.042 A 
ENDROOT
BRANCH   1   8
ATOM      6  C   UNL     1      10.348   2.585  23.227  0.00  0.00    +0.055 A 
ATOM      7  S   UNL     1       9.745   1.729  24.585  0.00  0.00    -0.085 S 
ATOM      8  C   UNL     1       9.386   0.324  23.668  0.00  0.00    +0.027 A 
ATOM      9  C   UNL     1       9.672   0.545  22.329  0.00  0.00    +0.017 A 
ATOM     10  C   UNL     1      10.223   1.835  22.075  0.00  0.00    +0.019 A 
BRANCH   6  12
ATOM     11  C   UNL     1       9.941   5.004  23.840  0.00  0.00    +0.092 C 
ATOM     12  C   UNL     1      10.905   3.920  23.405  0.00  0.00    +0.167 C 
ATOM     13  O   UNL     1      12.086   4.213  23.214  0.00  0.00    -0.292 OA
ENDBRANCH   6  12
ENDBRANCH   1   8
BRANCH   3  14
ATOM     14  C   UNL     1       8.947  -4.615  25.407  0.00  0.00    +0.345 C 
ATOM     15  O   UNL     1       9.208  -5.474  24.575  0.00  0.00    -0.244 OA
BRANCH  14  16
ATOM     16  O   UNL     1       8.907  -4.880  26.738  0.00  0.00    -0.477 OA
ATOM     17  H   UNL     1       8.555  -4.125  27.251  0.00  0.00    +0.295 HD
ENDBRANCH  14  16
ENDBRANCH   3  14
BRANCH   4  18
ATOM     18  N   UNL     1       6.644  -2.871  26.476  0.00  0.00    -0.215 N 
ATOM     19  H   UNL     1       6.880  -3.737  26.975  0.00  0.00    +0.174 HD
BRANCH  18  20
ATOM     20  S   UNL     1       5.058  -3.066  25.833  0.00  0.00    +0.073 S 
ATOM     21  O   UNL     1       4.556  -1.753  25.485  0.00  0.00    -0.150 OA
ATOM     22  O   UNL     1       4.317  -3.928  26.730  0.00  0.00    -0.150 OA
BRANCH  20  23
ATOM     23  C   UNL     1       5.382  -3.984  24.318  0.00  0.00    +0.111 A 
ATOM     24  C   UNL     1       5.584  -5.378  24.284  0.00  0.00    -0.024 A 
ATOM     25  C   UNL     1       5.585  -6.270  25.493  0.00  0.00    +0.046 C 
ATOM     26  C   UNL     1       5.839  -5.990  23.039  0.00  0.00    +0.008 A 
ATOM     27  C   UNL     1       5.878  -5.254  21.848  0.00  0.00    -0.050 A 
ATOM     28  C   UNL     1       6.097  -5.966  20.544  0.00  0.00    +0.044 C 
ATOM     29  C   UNL     1       5.712  -3.870  21.905  0.00  0.00    +0.005 A 
ATOM     30  C   UNL     1       5.470  -3.238  23.131  0.00  0.00    +0.029 A 
ENDBRANCH  20  23
ENDBRANCH  18  20
ENDBRANCH   4  18
TORSDOF 7
ENDMDL
MODEL 4
REMARK VINA RESULT:      -7.4      2.561      4.299
REMARK  Name = 
REMARK  10 active torsions:
REMARK  status: ('A' for Active; 'I' for Inactive)
REMARK    1  A    between atoms: C_1  and  C_2
REMARK    2  A    between atoms: C_2  and  C_4
REMARK    3  A    between atoms: C_7  and  C_9
REMARK    4  A    between atoms: C_11  and  N_12
REMARK    5  A    between atoms: N_12  and  S_13
REMARK    6  A    between atoms: S_13  and  C_16
REMARK    7  A    between atoms: C_19  and  C_20
REMARK    8  A    between atoms: C_22  and  C_23
REMARK    9  A    between atoms: C_24  and  C_26
REMARK   10  A    between atoms: C_26  and  O_27
REMARK                            x       y       z     vdW  Elec       q    Type
REMARK                         _______ _______ _______ _____ _____    ______ ____
ROOT
ATOM      1  C   UNL     1       7.489  -0.819  25.561  0.00  0.00    +0.029 A 
ATOM      2  S   UNL     1       5.855  -0.740  25.044  0.00  0.00    -0.079 S 
ATOM      3  C   UNL     1       5.413  -2.136  25.909  0.00  0.00    +0.119 A 
ATOM      4  C   UNL     1       6.463  -2.652  26.641  0.00  0.00    +0.070 A 
ATOM      5  C   UNL     1       7.655  -1.872  26.453  0.00  0.00    +0.042 A 
ENDROOT
BRANCH   1   8
ATOM      6  C   UNL     1       9.640   2.147  24.169  0.00  0.00    +0.055 A 
ATOM      7  S   UNL     1       8.015   1.671  24.443  0.00  0.00    -0.085 S 
ATOM      8  C   UNL     1       8.463   0.127  25.043  0.00  0.00    +0.027 A 
ATOM      9  C   UNL     1       9.839  -0.031  24.970  0.00  0.00    +0.017 A 
ATOM     10  C   UNL     1      10.513   1.122  24.473  0.00  0.00    +0.019 A 
BRANCH   6  12
ATOM     11  C   UNL     1      11.369   3.802  23.353  0.00  0.00    +0.092 C 
ATOM     12  C   UNL     1       9.925   3.493  23.687  0.00  0.00    +0.167 C 
ATOM     13  O   UNL     1       9.078   4.377  23.550  0.00  0.00    -0.292 OA
ENDBRANCH   6  12
ENDBRANCH   1   8
BRANCH   3  14
ATOM     14  C   UNL     1       4.072  -2.661  25.799  0.00  0.00    +0.345 C 
ATOM     15  O   UNL     1       3.549  -3.014  24.751  0.00  0.00    -0.244 OA
BRANCH  14  16
ATOM     16  O   UNL     1       3.440  -2.759  26.997  0.00  0.00    -0.477 OA
ATOM     17  H   UNL     1       2.624  -2.220  27.025  0.00  0.00    +0.295 HD
ENDBRANCH  14  16
ENDBRANCH   3  14
BRANCH   4  18
ATOM     18  N   UNL     1       6.402  -3.822  27.447  0.00  0.00    -0.215 N 
ATOM     19  H   UNL     1       6.573  -3.642  28.444  0.00  0.00    +0.174 HD
BRANCH  18  20
ATOM     20  S   UNL     1       7.404  -5.144  26.985  0.00  0.00    +0.073 S 
ATOM     21  O   UNL     1       6.971  -6.309  27.730  0.00  0.00    -0.150 OA
ATOM     22  O   UNL     1       8.781  -4.700  27.041  0.00  0.00    -0.150 OA
BRANCH  20  23
ATOM     23  C   UNL     1       6.957  -5.362  25.255  0.00  0.00    +0.111 A 
ATOM     24  C   UNL     1       5.709  -5.862  24.833  0.00  0.00    -0.024 A 
ATOM     25  C   UNL     1       4.610  -6.303  25.758  0.00  0.00    +0.046 C 
ATOM     26  C   UNL     1       5.472  -5.996  23.449  0.00  0.00    +0.008 A 
ATOM     27  C   UNL     1       6.431  -5.633  22.496  0.00  0.00    -0.050 A 
ATOM     28  C   UNL     1       6.104  -5.744  21.035  0.00  0.00    +0.044 C 
ATOM     29  C   UNL     1       7.675  -5.174  22.933  0.00  0.00    +0.005 A 
ATOM     30  C   UNL     1       7.938  -5.043  24.301  0.00  0.00    +0.029 A 
ENDBRANCH  20  23
ENDBRANCH  18  20
ENDBRANCH   4  18
TORSDOF 7
ENDMDL
MODEL 5
REMARK VINA RESULT:      -7.3      2.457      3.856
REMARK  Name = 
REMARK  10 active torsions:
REMARK  status: ('A' for Active; 'I' for Inactive)
REMARK    1  A    between atoms: C_1  and  C_2
REMARK    2  A    between atoms: C_2  and  C_4
REMARK    3  A    between atoms: C_7  and  C_9
REMARK    4  A    between atoms: C_11  and  N_12
REMARK    5  A    between atoms: N_12  and  S_13
REMARK    6  A    between atoms: S_13  and  C_16
REMARK    7  A    between atoms: C_19  and  C_20
REMARK    8  A    between atoms: C_22  and  C_23
REMARK    9  A    between atoms: C_24  and  C_26
REMARK   10  A    between atoms: C_26  and  O_27
REMARK                            x       y       z     vdW  Elec       q    Type
REMARK                         _______ _______ _______ _____ _____    ______ ____
ROOT
ATOM      1  C   UNL     1       8.734   0.694  24.782  0.00  0.00    +0.029 A 
ATOM      2  S   UNL     1       7.023   0.569  24.808  0.00  0.00    -0.079 S 
ATOM      3  C   UNL     1       7.052  -1.057  25.307  0.00  0.00    +0.119 A 
ATOM      4  C   UNL     1       8.337  -1.516  25.515  0.00  0.00    +0.070 A 
ATOM      5  C   UNL     1       9.304  -0.492  25.232  0.00  0.00    +0.042 A 
ENDROOT
BRANCH   1   8
ATOM      6  C   UNL     1       9.997   4.283  23.842  0.00  0.00    +0.055 A 
ATOM      7  S   UNL     1       8.651   3.459  24.514  0.00  0.00    -0.085 S 
ATOM      8  C   UNL     1       9.368   1.913  24.311  0.00  0.00    +0.027 A 
ATOM      9  C   UNL     1      10.596   2.038  23.679  0.00  0.00    +0.017 A 
ATOM     10  C   UNL     1      10.958   3.390  23.411  0.00  0.00    +0.019 A 
BRANCH   6  12
ATOM     11  C   UNL     1      11.109   6.435  24.568  0.00  0.00    +0.092 C 
ATOM     12  C   UNL     1      10.003   5.740  23.802  0.00  0.00    +0.167 C 
ATOM     13  O   UNL     1       9.171   6.423  23.203  0.00  0.00    -0.292 OA
ENDBRANCH   6  12
ENDBRANCH   1   8
BRANCH   3  14
ATOM     14  C   UNL     1       5.818  -1.796  25.436  0.00  0.00    +0.345 C 
ATOM     15  O   UNL     1       5.052  -2.036  24.513  0.00  0.00    -0.244 OA
BRANCH  14  16
ATOM     16  O   UNL     1       5.595  -2.237  26.701  0.00  0.00    -0.477 OA
ATOM     17  H   UNL     1       5.486  -3.209  26.735  0.00  0.00    +0.295 HD
ENDBRANCH  14  16
ENDBRANCH   3  14
BRANCH   4  18
ATOM     18  N   UNL     1       8.678  -2.836  25.917  0.00  0.00    -0.215 N 
ATOM     19  H   UNL     1       9.484  -2.876  26.553  0.00  0.00    +0.174 HD
BRANCH  18  20
ATOM     20  S   UNL     1       8.953  -3.990  24.668  0.00  0.00    +0.073 S 
ATOM     21  O   UNL     1      10.002  -4.883  25.113  0.00  0.00    -0.150 OA
ATOM     22  O   UNL     1       9.074  -3.270  23.417  0.00  0.00    -0.150 OA
BRANCH  20  23
ATOM     23  C   UNL     1       7.394  -4.890  24.645  0.00  0.00    +0.111 A 
ATOM     24  C   UNL     1       6.791  -5.426  25.800  0.00  0.00    -0.024 A 
ATOM     25  C   UNL     1       7.374  -5.344  27.183  0.00  0.00    +0.046 C 
ATOM     26  C   UNL     1       5.571  -6.120  25.661  0.00  0.00    +0.008 A 
ATOM     27  C   UNL     1       4.945  -6.273  24.418  0.00  0.00    -0.050 A 
ATOM     28  C   UNL     1       3.619  -6.972  24.337  0.00  0.00    +0.044 C 
ATOM     29  C   UNL     1       5.575  -5.768  23.280  0.00  0.00    +0.005 A 
ATOM     30  C   UNL     1       6.792  -5.085  23.391  0.00  0.00    +0.029 A 
ENDBRANCH  20  23
ENDBRANCH  18  20
ENDBRANCH   4  18
TORSDOF 7
ENDMDL
MODEL 6
REMARK VINA RESULT:      -7.3      1.540      2.404
REMARK  Name = 
REMARK  10 active torsions:
REMARK  status: ('A' for Active; 'I' for Inactive)
REMARK    1  A    between atoms: C_1  and  C_2
REMARK    2  A    between atoms: C_2  and  C_4
REMARK    3  A    between atoms: C_7  and  C_9
REMARK    4  A    between atoms: C_11  and  N_12
REMARK    5  A    between atoms: N_12  and  S_13
REMARK    6  A    between atoms: S_13  and  C_16
REMARK    7  A    between atoms: C_19  and  C_20
REMARK    8  A    between atoms: C_22  and  C_23
REMARK    9  A    between atoms: C_24  and  C_26
REMARK   10  A    between atoms: C_26  and  O_27
REMARK                            x       y       z     vdW  Elec       q    Type
REMARK                         _______ _______ _______ _____ _____    ______ ____
ROOT
ATOM      1  C   UNL     1       8.667  -1.506  23.687  0.00  0.00    +0.029 A 
ATOM      2  S   UNL     1       9.801  -2.711  24.140  0.00  0.00    -0.079 S 
ATOM      3  C   UNL     1       8.592  -3.801  24.633  0.00  0.00    +0.119 A 
ATOM      4  C   UNL     1       7.322  -3.305  24.417  0.00  0.00    +0.070 A 
ATOM      5  C   UNL     1       7.373  -1.986  23.849  0.00  0.00    +0.042 A 
ENDROOT
BRANCH   1   8
ATOM      6  C   UNL     1       9.984   2.138  23.094  0.00  0.00    +0.055 A 
ATOM      7  S   UNL     1       9.369   1.109  24.320  0.00  0.00    -0.085 S 
ATOM      8  C   UNL     1       9.129  -0.203  23.240  0.00  0.00    +0.027 A 
ATOM      9  C   UNL     1       9.463   0.178  21.948  0.00  0.00    +0.017 A 
ATOM     10  C   UNL     1       9.953   1.513  21.863  0.00  0.00    +0.019 A 
BRANCH   6  12
ATOM     11  C   UNL     1       9.444   4.409  24.065  0.00  0.00    +0.092 C 
ATOM     12  C   UNL     1      10.457   3.471  23.443  0.00  0.00    +0.167 C 
ATOM     13  O   UNL     1      11.606   3.875  23.252  0.00  0.00    -0.292 OA
ENDBRANCH   6  12
ENDBRANCH   1   8
BRANCH   3  14
ATOM     14  C   UNL     1       8.956  -5.064  25.229  0.00  0.00    +0.345 C 
ATOM     15  O   UNL     1       8.231  -5.720  25.965  0.00  0.00    -0.244 OA
BRANCH  14  16
ATOM     16  O   UNL     1      10.194  -5.485  24.864  0.00  0.00    -0.477 OA
ATOM     17  H   UNL     1      10.540  -4.985  24.097  0.00  0.00    +0.295 HD
ENDBRANCH  14  16
ENDBRANCH   3  14
BRANCH   4  18
ATOM     18  N   UNL     1       6.114  -3.979  24.745  0.00  0.00    -0.215 N 
ATOM     19  H   UNL     1       6.205  -4.616  25.546  0.00  0.00    +0.174 HD
BRANCH  18  20
ATOM     20  S   UNL     1       5.336  -4.852  23.481  0.00  0.00    +0.073 S 
ATOM     21  O   UNL     1       6.271  -5.839  22.983  0.00  0.00    -0.150 OA
ATOM     22  O   UNL     1       4.728  -3.891  22.585  0.00  0.00    -0.150 OA
BRANCH  20  23
ATOM     23  C   UNL     1       4.019  -5.697  24.371  0.00  0.00    +0.111 A 
ATOM     24  C   UNL     1       3.013  -5.023  25.092  0.00  0.00    -0.024 A 
ATOM     25  C   UNL     1       2.923  -3.531  25.238  0.00  0.00    +0.046 C 
ATOM     26  C   UNL     1       2.035  -5.791  25.758  0.00  0.00    +0.008 A 
ATOM     27  C   UNL     1       2.031  -7.190  25.705  0.00  0.00    -0.050 A 
ATOM     28  C   UNL     1       0.932  -7.955  26.386  0.00  0.00    +0.044 C 
ATOM     29  C   UNL     1       3.055  -7.842  25.016  0.00  0.00    +0.005 A 
ATOM     30  C   UNL     1       4.044  -7.102  24.358  0.00  0.00    +0.029 A 
ENDBRANCH  20  23
ENDBRANCH  18  20
ENDBRANCH   4  18
TORSDOF 7
ENDMDL
MODEL 7
REMARK VINA RESULT:      -7.3      2.936      8.404
REMARK  Name = 
REMARK  10 active torsions:
REMARK  status: ('A' for Active; 'I' for Inactive)
REMARK    1  A    between atoms: C_1  and  C_2
REMARK    2  A    between atoms: C_2  and  C_4
REMARK    3  A    between atoms: C_7  and  C_9
REMARK    4  A    between atoms: C_11  and  N_12
REMARK    5  A    between atoms: N_12  and  S_13
REMARK    6  A    between atoms: S_13  and  C_16
REMARK    7  A    between atoms: C_19  and  C_20
REMARK    8  A    between atoms: C_22  and  C_23
REMARK    9  A    between atoms: C_24  and  C_26
REMARK   10  A    between atoms: C_26  and  O_27
REMARK                            x       y       z     vdW  Elec       q    Type
REMARK                         _______ _______ _______ _____ _____    ______ ____
ROOT
ATOM      1  C   UNL     1       7.033  -3.384  24.237  0.00  0.00    +0.029 A 
ATOM      2  S   UNL     1       7.675  -3.250  22.651  0.00  0.00    -0.079 S 
ATOM      3  C   UNL     1       8.477  -1.790  22.995  0.00  0.00    +0.119 A 
ATOM      4  C   UNL     1       8.324  -1.408  24.312  0.00  0.00    +0.070 A 
ATOM      5  C   UNL     1       7.507  -2.345  25.031  0.00  0.00    +0.042 A 
ENDROOT
BRANCH   1   8
ATOM      6  C   UNL     1       4.353  -6.229  24.523  0.00  0.00    +0.055 A 
ATOM      7  S   UNL     1       4.815  -4.905  23.536  0.00  0.00    -0.085 S 
ATOM      8  C   UNL     1       6.117  -4.463  24.563  0.00  0.00    +0.027 A 
ATOM      9  C   UNL     1       6.147  -5.291  25.676  0.00  0.00    +0.017 A 
ATOM     10  C   UNL     1       5.141  -6.301  25.655  0.00  0.00    +0.019 A 
BRANCH   6  12
ATOM     11  C   UNL     1       2.257  -6.502  23.135  0.00  0.00    +0.092 C 
ATOM     12  C   UNL     1       3.260  -7.096  24.101  0.00  0.00    +0.167 C 
ATOM     13  O   UNL     1       3.102  -8.255  24.488  0.00  0.00    -0.292 OA
ENDBRANCH   6  12
ENDBRANCH   1   8
BRANCH   3  14
ATOM     14  C   UNL     1       9.184  -1.090  21.948  0.00  0.00    +0.345 C 
ATOM     15  O   UNL     1       8.881   0.017  21.526  0.00  0.00    -0.244 OA
BRANCH  14  16
ATOM     16  O   UNL     1      10.261  -1.776  21.485  0.00  0.00    -0.477 OA
ATOM     17  H   UNL     1      10.953  -1.178  21.137  0.00  0.00    +0.295 HD
ENDBRANCH  14  16
ENDBRANCH   3  14
BRANCH   4  18
ATOM     18  N   UNL     1       8.863  -0.225  24.887  0.00  0.00    -0.215 N 
ATOM     19  H   UNL     1       9.296  -0.376  25.806  0.00  0.00    +0.174 HD
BRANCH  18  20
ATOM     20  S   UNL     1       7.805   1.127  25.036  0.00  0.00    +0.073 S 
ATOM     21  O   UNL     1       7.467   1.272  26.436  0.00  0.00    -0.150 OA
ATOM     22  O   UNL     1       6.769   0.993  24.034  0.00  0.00    -0.150 OA
BRANCH  20  23
ATOM     23  C   UNL     1       8.877   2.490  24.553  0.00  0.00    +0.111 A 
ATOM     24  C   UNL     1       8.525   3.846  24.708  0.00  0.00    -0.024 A 
ATOM     25  C   UNL     1       7.215   4.329  25.263  0.00  0.00    +0.046 C 
ATOM     26  C   UNL     1       9.443   4.831  24.286  0.00  0.00    +0.008 A 
ATOM     27  C   UNL     1      10.687   4.496  23.739  0.00  0.00    -0.050 A 
ATOM     28  C   UNL     1      11.647   5.585  23.359  0.00  0.00    +0.044 C 
ATOM     29  C   UNL     1      11.003   3.149  23.559  0.00  0.00    +0.005 A 
ATOM     30  C   UNL     1      10.105   2.153  23.958  0.00  0.00    +0.029 A 
ENDBRANCH  20  23
ENDBRANCH  18  20
ENDBRANCH   4  18
TORSDOF 7
ENDMDL
MODEL 8
REMARK VINA RESULT:      -7.2      1.802      3.314
REMARK  Name = 
REMARK  10 active torsions:
REMARK  status: ('A' for Active; 'I' for Inactive)
REMARK    1  A    between atoms: C_1  and  C_2
REMARK    2  A    between atoms: C_2  and  C_4
REMARK    3  A    between atoms: C_7  and  C_9
REMARK    4  A    between atoms: C_11  and  N_12
REMARK    5  A    between atoms: N_12  and  S_13
REMARK    6  A    between atoms: S_13  and  C_16
REMARK    7  A    between atoms: C_19  and  C_20
REMARK    8  A    between atoms: C_22  and  C_23
REMARK    9  A    between atoms: C_24  and  C_26
REMARK   10  A    between atoms: C_26  and  O_27
REMARK                            x       y       z     vdW  Elec       q    Type
REMARK                         _______ _______ _______ _____ _____    ______ ____
ROOT
ATOM      1  C   UNL     1       8.452  -1.668  23.114  0.00  0.00    +0.029 A 
ATOM      2  S   UNL     1       7.635  -2.510  21.860  0.00  0.00    -0.079 S 
ATOM      3  C   UNL     1       7.544  -3.952  22.757  0.00  0.00    +0.119 A 
ATOM      4  C   UNL     1       8.072  -3.814  24.025  0.00  0.00    +0.070 A 
ATOM      5  C   UNL     1       8.574  -2.484  24.232  0.00  0.00    +0.042 A 
ENDROOT
BRANCH   1   8
ATOM      6  C   UNL     1       9.672   2.056  23.148  0.00  0.00    +0.055 A 
ATOM      7  S   UNL     1       8.921   0.874  24.137  0.00  0.00    -0.085 S 
ATOM      8  C   UNL     1       8.917  -0.310  22.894  0.00  0.00    +0.027 A 
ATOM      9  C   UNL     1       9.432   0.229  21.724  0.00  0.00    +0.017 A 
ATOM     10  C   UNL     1       9.865   1.579  21.867  0.00  0.00    +0.019 A 
BRANCH   6  12
ATOM     11  C   UNL     1      11.385   3.904  23.360  0.00  0.00    +0.092 C 
ATOM     12  C   UNL     1      10.020   3.353  23.714  0.00  0.00    +0.167 C 
ATOM     13  O   UNL     1       9.287   4.007  24.459  0.00  0.00    -0.292 OA
ENDBRANCH   6  12
ENDBRANCH   1   8
BRANCH   3  14
ATOM     14  C   UNL     1       6.989  -5.143  22.157  0.00  0.00    +0.345 C 
ATOM     15  O   UNL     1       7.493  -6.255  22.226  0.00  0.00    -0.244 OA
BRANCH  14  16
ATOM     16  O   UNL     1       5.810  -4.916  21.522  0.00  0.00    -0.477 OA
ATOM     17  H   UNL     1       5.429  -4.045  21.756  0.00  0.00    +0.295 HD
ENDBRANCH  14  16
ENDBRANCH   3  14
BRANCH   4  18
ATOM     18  N   UNL     1       8.152  -4.850  24.995  0.00  0.00    -0.215 N 
ATOM     19  H   UNL     1       8.171  -5.793  24.587  0.00  0.00    +0.174 HD
BRANCH  18  20
ATOM     20  S   UNL     1       6.960  -4.853  26.238  0.00  0.00    +0.073 S 
ATOM     21  O   UNL     1       6.918  -3.526  26.815  0.00  0.00    -0.150 OA
ATOM     22  O   UNL     1       7.188  -6.016  27.071  0.00  0.00    -0.150 OA
BRANCH  20  23
ATOM     23  C   UNL     1       5.447  -5.127  25.301  0.00  0.00    +0.111 A 
ATOM     24  C   UNL     1       4.596  -4.085  24.881  0.00  0.00    -0.024 A 
ATOM     25  C   UNL     1       4.817  -2.630  25.180  0.00  0.00    +0.046 C 
ATOM     26  C   UNL     1       3.433  -4.420  24.157  0.00  0.00    +0.008 A 
ATOM     27  C   UNL     1       3.117  -5.745  23.836  0.00  0.00    -0.050 A 
ATOM     28  C   UNL     1       1.894  -6.038  23.015  0.00  0.00    +0.044 C 
ATOM     29  C   UNL     1       3.952  -6.766  24.292  0.00  0.00    +0.005 A 
ATOM     30  C   UNL     1       5.106  -6.461  25.022  0.00  0.00    +0.029 A 
ENDBRANCH  20  23
ENDBRANCH  18  20
ENDBRANCH   4  18
TORSDOF 7
ENDMDL
MODEL 9
REMARK VINA RESULT:      -7.2      3.020      8.453
REMARK  Name = 
REMARK  10 active torsions:
REMARK  status: ('A' for Active; 'I' for Inactive)
REMARK    1  A    between atoms: C_1  and  C_2
REMARK    2  A    between atoms: C_2  and  C_4
REMARK    3  A    between atoms: C_7  and  C_9
REMARK    4  A    between atoms: C_11  and  N_12
REMARK    5  A    between atoms: N_12  and  S_13
REMARK    6  A    between atoms: S_13  and  C_16
REMARK    7  A    between atoms: C_19  and  C_20
REMARK    8  A    between atoms: C_22  and  C_23
REMARK    9  A    between atoms: C_24  and  C_26
REMARK   10  A    between atoms: C_26  and  O_27
REMARK                            x       y       z     vdW  Elec       q    Type
REMARK                         _______ _______ _______ _____ _____    ______ ____
ROOT
ATOM      1  C   UNL     1       7.507  -3.299  25.216  0.00  0.00    +0.029 A 
ATOM      2  S   UNL     1       8.207  -3.485  23.660  0.00  0.00    -0.079 S 
ATOM      3  C   UNL     1       8.927  -1.945  23.694  0.00  0.00    +0.119 A 
ATOM      4  C   UNL     1       8.704  -1.290  24.888  0.00  0.00    +0.070 A 
ATOM      5  C   UNL     1       7.901  -2.088  25.772  0.00  0.00    +0.042 A 
ENDROOT
BRANCH   1   8
ATOM      6  C   UNL     1       5.478  -6.024  27.170  0.00  0.00    +0.055 A 
ATOM      7  S   UNL     1       6.943  -5.135  27.226  0.00  0.00    -0.085 S 
ATOM      8  C   UNL     1       6.627  -4.327  25.745  0.00  0.00    +0.027 A 
ATOM      9  C   UNL     1       5.440  -4.789  25.196  0.00  0.00    +0.017 A 
ATOM     10  C   UNL     1       4.781  -5.757  26.008  0.00  0.00    +0.019 A 
BRANCH   6  12
ATOM     11  C   UNL     1       3.699  -6.831  28.777  0.00  0.00    +0.092 C 
ATOM     12  C   UNL     1       5.127  -6.904  28.277  0.00  0.00    +0.167 C 
ATOM     13  O   UNL     1       5.912  -7.679  28.826  0.00  0.00    -0.292 OA
ENDBRANCH   6  12
ENDBRANCH   1   8
BRANCH   3  14
ATOM     14  C   UNL     1       9.644  -1.456  22.540  0.00  0.00    +0.345 C 
ATOM     15  O   UNL     1      10.789  -1.774  22.247  0.00  0.00    -0.244 OA
BRANCH  14  16
ATOM     16  O   UNL     1       8.904  -0.616  21.772  0.00  0.00    -0.477 OA
ATOM     17  H   UNL     1       8.325  -0.041  22.313  0.00  0.00    +0.295 HD
ENDBRANCH  14  16
ENDBRANCH   3  14
BRANCH   4  18
ATOM     18  N   UNL     1       9.165   0.018  25.202  0.00  0.00    -0.215 N 
ATOM     19  H   UNL     1       9.542   0.102  26.154  0.00  0.00    +0.174 HD
BRANCH  18  20
ATOM     20  S   UNL     1       8.056   1.316  24.973  0.00  0.00    +0.073 S 
ATOM     21  O   UNL     1       7.499   1.654  26.266  0.00  0.00    -0.150 OA
ATOM     22  O   UNL     1       7.195   0.974  23.861  0.00  0.00    -0.150 OA
BRANCH  20  23
ATOM     23  C   UNL     1       9.148   2.646  24.446  0.00  0.00    +0.111 A 
ATOM     24  C   UNL     1       8.820   4.012  24.563  0.00  0.00    -0.024 A 
ATOM     25  C   UNL     1       7.521   4.533  25.109  0.00  0.00    +0.046 C 
ATOM     26  C   UNL     1       9.752   4.968  24.108  0.00  0.00    +0.008 A 
ATOM     27  C   UNL     1      10.988   4.596  23.565  0.00  0.00    -0.050 A 
ATOM     28  C   UNL     1      11.964   5.658  23.150  0.00  0.00    +0.044 C 
ATOM     29  C   UNL     1      11.281   3.239  23.423  0.00  0.00    +0.005 A 
ATOM     30  C   UNL     1      10.367   2.271  23.856  0.00  0.00    +0.029 A 
ENDBRANCH  20  23
ENDBRANCH  18  20
ENDBRANCH   4  18
TORSDOF 7
ENDMDL
