MODEL 1
REMARK VINA RESULT:      -6.5      0.000      0.000
REMARK  Name = 
REMARK  6 active torsions:
REMARK  status: ('A' for Active; 'I' for Inactive)
REMARK    1  A    between atoms: C_2  and  N_18
REMARK    2  A    between atoms: C_4  and  C_6
REMARK    3  A    between atoms: C_11  and  C_12
REMARK    4  A    between atoms: C_12  and  C_14
REMARK    5  A    between atoms: C_14  and  C_15
REMARK    6  A    between atoms: C_16  and  O_17
REMARK                            x       y       z     vdW  Elec       q    Type
REMARK                         _______ _______ _______ _____ _____    ______ ____
ROOT
ATOM      1  C   UNL     1       6.873  -4.413  22.258  0.00  0.00    +0.083 C 
ATOM      2  C   UNL     1       5.641  -4.589  23.125  0.00  0.00    +0.047 C 
ATOM      3  C   UNL     1       6.458  -5.783  22.693  0.00  0.00    +0.033 C 
ENDROOT
BRANCH   1   4
ATOM      4  N   UNL     1       8.095  -3.832  22.743  0.00  0.00    -0.296 N 
ATOM      5  H   UNL     1       8.898  -4.437  22.851  0.00  0.00    +0.151 HD
ATOM      6  C   UNL     1       8.366  -2.492  22.556  0.00  0.00    +0.305 C 
ATOM      7  N   UNL     1       9.534  -2.107  23.182  0.00  0.00    -0.254 N 
ATOM      8  H   UNL     1       9.697  -2.555  24.072  0.00  0.00    +0.158 HD
ATOM      9  C   UNL     1       9.922  -0.762  23.190  0.00  0.00    +0.126 A 
ATOM     10  C   UNL     1       9.846   0.025  22.044  0.00  0.00    +0.045 A 
ATOM     11  C   UNL     1      10.071   1.394  22.151  0.00  0.00    +0.020 A 
ATOM     12  C   UNL     1      10.367   1.926  23.396  0.00  0.00    +0.036 A 
ATOM     13 BR   UNL     1      10.553   3.787  23.624  0.00  0.00    -0.049 Br
ATOM     14  C   UNL     1      10.493   1.059  24.471  0.00  0.00    +0.128 A 
ATOM     15  N   UNL     1      10.312  -0.283  24.389  0.00  0.00    -0.239 NA
ATOM     16  O   UNL     1       7.618  -1.741  21.937  0.00  0.00    -0.252 OA
ENDBRANCH   1   4
BRANCH   2  17
ATOM     17  C   UNL     1       5.608  -4.097  24.561  0.00  0.00    +0.035 A 
ATOM     18  C   UNL     1       5.419  -2.734  24.867  0.00  0.00    +0.134 A 
ATOM     19  C   UNL     1       5.406  -2.266  26.200  0.00  0.00    +0.059 A 
ATOM     20  C   UNL     1       5.507  -3.179  27.252  0.00  0.00    +0.018 A 
ATOM     21  C   UNL     1       5.650  -4.533  26.978  0.00  0.00    +0.039 A 
ATOM     22  C   UNL     1       5.701  -4.973  25.654  0.00  0.00    +0.130 A 
ATOM     23  F   UNL     1       5.831  -6.291  25.449  0.00  0.00    -0.205 F 
BRANCH  18  24
ATOM     24  O   UNL     1       5.230  -1.877  23.808  0.00  0.00    -0.506 OA
ATOM     25  H   UNL     1       4.621  -2.301  23.162  0.00  0.00    +0.292 HD
ENDBRANCH  18  24
BRANCH  19  26
ATOM     26  C   UNL     1       5.290  -0.806  26.479  0.00  0.00    +0.166 C 
ATOM     27  O   UNL     1       4.392  -0.170  25.931  0.00  0.00    -0.292 OA
BRANCH  26  28
ATOM     28  C   UNL     1       6.305  -0.174  27.419  0.00  0.00    +0.076 C 
ATOM     29  C   UNL     1       7.730  -0.310  26.913  0.00  0.00    +0.012 C 
ENDBRANCH  26  28
ENDBRANCH  19  26
ENDBRANCH   2  17
TORSDOF 5
ENDMDL
MODEL 2
REMARK VINA RESULT:      -6.4      4.134      7.088
REMARK  Name = 
REMARK  6 active torsions:
REMARK  status: ('A' for Active; 'I' for Inactive)
REMARK    1  A    between atoms: C_2  and  N_18
REMARK    2  A    between atoms: C_4  and  C_6
REMARK    3  A    between atoms: C_11  and  C_12
REMARK    4  A    between atoms: C_12  and  C_14
REMARK    5  A    between atoms: C_14  and  C_15
REMARK    6  A    between atoms: C_16  and  O_17
REMARK                            x       y       z     vdW  Elec       q    Type
REMARK                         _______ _______ _______ _____ _____    ______ ____
ROOT
ATOM      1  C   UNL     1       9.073  -0.987  22.503  0.00  0.00    +0.083 C 
ATOM      2  C   UNL     1       9.817   0.258  22.945  0.00  0.00    +0.047 C 
ATOM      3  C   UNL     1       9.611  -0.039  21.478  0.00  0.00    +0.033 C 
ENDROOT
BRANCH   1   4
ATOM      4  N   UNL     1       7.656  -1.153  22.670  0.00  0.00    -0.296 N 
ATOM      5  H   UNL     1       7.046  -0.443  22.288  0.00  0.00    +0.151 HD
ATOM      6  C   UNL     1       7.103  -2.408  22.825  0.00  0.00    +0.305 C 
ATOM      7  N   UNL     1       5.746  -2.350  23.074  0.00  0.00    -0.254 N 
ATOM      8  H   UNL     1       5.463  -1.577  23.660  0.00  0.00    +0.158 HD
ATOM      9  C   UNL     1       5.028  -3.517  23.360  0.00  0.00    +0.126 A 
ATOM     10  C   UNL     1       5.214  -4.684  22.624  0.00  0.00    +0.045 A 
ATOM     11  C   UNL     1       4.612  -5.860  23.064  0.00  0.00    +0.020 A 
ATOM     12  C   UNL     1       3.845  -5.826  24.218  0.00  0.00    +0.036 A 
ATOM     13 BR   UNL     1       3.114  -7.410  24.930  0.00  0.00    -0.049 Br
ATOM     14  C   UNL     1       3.655  -4.605  24.848  0.00  0.00    +0.128 A 
ATOM     15  N   UNL     1       4.203  -3.439  24.424  0.00  0.00    -0.239 NA
ATOM     16  O   UNL     1       7.767  -3.439  22.784  0.00  0.00    -0.252 OA
ENDBRANCH   1   4
BRANCH   2  17
ATOM     17  C   UNL     1       9.104   1.394  23.657  0.00  0.00    +0.035 A 
ATOM     18  C   UNL     1       8.816   2.608  22.999  0.00  0.00    +0.134 A 
ATOM     19  C   UNL     1       8.171   3.677  23.660  0.00  0.00    +0.059 A 
ATOM     20  C   UNL     1       7.733   3.509  24.976  0.00  0.00    +0.018 A 
ATOM     21  C   UNL     1       7.964   2.307  25.631  0.00  0.00    +0.039 A 
ATOM     22  C   UNL     1       8.641   1.276  24.976  0.00  0.00    +0.130 A 
ATOM     23  F   UNL     1       8.828   0.135  25.655  0.00  0.00    -0.205 F 
BRANCH  18  24
ATOM     24  O   UNL     1       9.179   2.702  21.676  0.00  0.00    -0.506 OA
ATOM     25  H   UNL     1      10.148   2.865  21.624  0.00  0.00    +0.292 HD
ENDBRANCH  18  24
BRANCH  19  26
ATOM     26  C   UNL     1       7.963   4.974  22.957  0.00  0.00    +0.166 C 
ATOM     27  O   UNL     1       7.255   4.993  21.951  0.00  0.00    -0.292 OA
BRANCH  26  28
ATOM     28  C   UNL     1       8.654   6.209  23.514  0.00  0.00    +0.076 C 
ATOM     29  C   UNL     1      10.156   6.030  23.637  0.00  0.00    +0.012 C 
ENDBRANCH  26  28
ENDBRANCH  19  26
ENDBRANCH   2  17
TORSDOF 5
ENDMDL
MODEL 3
REMARK VINA RESULT:      -6.3      3.637      6.412
REMARK  Name = 
REMARK  6 active torsions:
REMARK  status: ('A' for Active; 'I' for Inactive)
REMARK    1  A    between atoms: C_2  and  N_18
REMARK    2  A    between atoms: C_4  and  C_6
REMARK    3  A    between atoms: C_11  and  C_12
REMARK    4  A    between atoms: C_12  and  C_14
REMARK    5  A    between atoms: C_14  and  C_15
REMARK    6  A    between atoms: C_16  and  O_17
REMARK                            x       y       z     vdW  Elec       q    Type
REMARK                         _______ _______ _______ _____ _____    ______ ____
ROOT
ATOM      1  C   UNL     1       8.853  -2.298  25.376  0.00  0.00    +0.083 C 
ATOM      2  C   UNL     1       9.825  -2.042  24.241  0.00  0.00    +0.047 C 
ATOM      3  C   UNL     1       8.815  -3.162  24.155  0.00  0.00    +0.033 C 
ENDROOT
BRANCH   1   4
ATOM      4  N   UNL     1       7.757  -1.420  25.683  0.00  0.00    -0.296 N 
ATOM      5  H   UNL     1       6.827  -1.709  25.410  0.00  0.00    +0.151 HD
ATOM      6  C   UNL     1       7.833  -0.535  26.738  0.00  0.00    +0.305 C 
ATOM      7  N   UNL     1       6.727   0.289  26.803  0.00  0.00    -0.254 N 
ATOM      8  H   UNL     1       6.367   0.576  25.904  0.00  0.00    +0.158 HD
ATOM      9  C   UNL     1       6.669   1.322  27.747  0.00  0.00    +0.126 A 
ATOM     10  C   UNL     1       7.055   1.122  29.070  0.00  0.00    +0.045 A 
ATOM     11  C   UNL     1       7.150   2.223  29.917  0.00  0.00    +0.020 A 
ATOM     12  C   UNL     1       6.853   3.480  29.414  0.00  0.00    +0.036 A 
ATOM     13 BR   UNL     1       7.088   5.017  30.476  0.00  0.00    -0.049 Br
ATOM     14  C   UNL     1       6.408   3.578  28.104  0.00  0.00    +0.128 A 
ATOM     15  N   UNL     1       6.275   2.519  27.266  0.00  0.00    -0.239 NA
ATOM     16  O   UNL     1       8.800  -0.476  27.491  0.00  0.00    -0.252 OA
ENDBRANCH   1   4
BRANCH   2  17
ATOM     17  C   UNL     1       9.730  -0.790  23.387  0.00  0.00    +0.035 A 
ATOM     18  C   UNL     1      10.052   0.481  23.907  0.00  0.00    +0.134 A 
ATOM     19  C   UNL     1       9.948   1.653  23.125  0.00  0.00    +0.059 A 
ATOM     20  C   UNL     1       9.591   1.553  21.778  0.00  0.00    +0.018 A 
ATOM     21  C   UNL     1       9.312   0.308  21.230  0.00  0.00    +0.039 A 
ATOM     22  C   UNL     1       9.380  -0.835  22.028  0.00  0.00    +0.130 A 
ATOM     23  F   UNL     1       9.110  -2.011  21.444  0.00  0.00    -0.205 F 
BRANCH  18  24
ATOM     24  O   UNL     1      10.489   0.529  25.210  0.00  0.00    -0.506 OA
ATOM     25  H   UNL     1       9.714   0.673  25.799  0.00  0.00    +0.292 HD
ENDBRANCH  18  24
BRANCH  19  26
ATOM     26  C   UNL     1      10.214   2.985  23.736  0.00  0.00    +0.166 C 
ATOM     27  O   UNL     1       9.412   3.430  24.556  0.00  0.00    -0.292 OA
BRANCH  26  28
ATOM     28  C   UNL     1      11.462   3.737  23.300  0.00  0.00    +0.076 C 
ATOM     29  C   UNL     1      11.386   5.221  23.608  0.00  0.00    +0.012 C 
ENDBRANCH  26  28
ENDBRANCH  19  26
ENDBRANCH   2  17
TORSDOF 5
ENDMDL
MODEL 4
REMARK VINA RESULT:      -6.3      3.569      6.106
REMARK  Name = 
REMARK  6 active torsions:
REMARK  status: ('A' for Active; 'I' for Inactive)
REMARK    1  A    between atoms: C_2  and  N_18
REMARK    2  A    between atoms: C_4  and  C_6
REMARK    3  A    between atoms: C_11  and  C_12
REMARK    4  A    between atoms: C_12  and  C_14
REMARK    5  A    between atoms: C_14  and  C_15
REMARK    6  A    between atoms: C_16  and  O_17
REMARK                            x       y       z     vdW  Elec       q    Type
REMARK                         _______ _______ _______ _____ _____    ______ ____
ROOT
ATOM      1  C   UNL     1       8.581  -2.428  25.255  0.00  0.00    +0.083 C 
ATOM      2  C   UNL     1       9.803  -1.958  24.490  0.00  0.00    +0.047 C 
ATOM      3  C   UNL     1       9.176  -3.300  24.195  0.00  0.00    +0.033 C 
ENDROOT
BRANCH   1   4
ATOM      4  N   UNL     1       7.277  -1.852  25.078  0.00  0.00    -0.296 N 
ATOM      5  H   UNL     1       6.506  -2.474  24.876  0.00  0.00    +0.151 HD
ATOM      6  C   UNL     1       6.947  -0.649  25.668  0.00  0.00    +0.305 C 
ATOM      7  N   UNL     1       5.691  -0.215  25.294  0.00  0.00    -0.254 N 
ATOM      8  H   UNL     1       5.453  -0.408  24.332  0.00  0.00    +0.158 HD
ATOM      9  C   UNL     1       5.221   1.036  25.711  0.00  0.00    +0.126 A 
ATOM     10  C   UNL     1       5.383   1.474  27.023  0.00  0.00    +0.045 A 
ATOM     11  C   UNL     1       5.062   2.792  27.337  0.00  0.00    +0.020 A 
ATOM     12  C   UNL     1       4.589   3.621  26.333  0.00  0.00    +0.036 A 
ATOM     13 BR   UNL     1       4.261   5.445  26.671  0.00  0.00    -0.049 Br
ATOM     14  C   UNL     1       4.391   3.081  25.071  0.00  0.00    +0.128 A 
ATOM     15  N   UNL     1       4.664   1.793  24.744  0.00  0.00    -0.239 NA
ATOM     16  O   UNL     1       7.714  -0.034  26.403  0.00  0.00    -0.252 OA
ENDBRANCH   1   4
BRANCH   2  17
ATOM     17  C   UNL     1       9.729  -0.791  23.521  0.00  0.00    +0.035 A 
ATOM     18  C   UNL     1      10.064   0.519  23.921  0.00  0.00    +0.134 A 
ATOM     19  C   UNL     1       9.979   1.613  23.030  0.00  0.00    +0.059 A 
ATOM     20  C   UNL     1       9.628   1.389  21.697  0.00  0.00    +0.018 A 
ATOM     21  C   UNL     1       9.337   0.102  21.267  0.00  0.00    +0.039 A 
ATOM     22  C   UNL     1       9.386  -0.961  22.170  0.00  0.00    +0.130 A 
ATOM     23  F   UNL     1       9.103  -2.184  21.698  0.00  0.00    -0.205 F 
BRANCH  18  24
ATOM     24  O   UNL     1      10.495   0.685  25.216  0.00  0.00    -0.506 OA
ATOM     25  H   UNL     1      10.117  -0.034  25.771  0.00  0.00    +0.292 HD
ENDBRANCH  18  24
BRANCH  19  26
ATOM     26  C   UNL     1      10.258   2.994  23.515  0.00  0.00    +0.166 C 
ATOM     27  O   UNL     1      11.429   3.346  23.652  0.00  0.00    -0.292 OA
BRANCH  26  28
ATOM     28  C   UNL     1       9.074   3.895  23.831  0.00  0.00    +0.076 C 
ATOM     29  C   UNL     1       8.280   3.412  25.031  0.00  0.00    +0.012 C 
ENDBRANCH  26  28
ENDBRANCH  19  26
ENDBRANCH   2  17
TORSDOF 5
ENDMDL
MODEL 5
REMARK VINA RESULT:      -6.3      4.188      7.274
REMARK  Name = 
REMARK  6 active torsions:
REMARK  status: ('A' for Active; 'I' for Inactive)
REMARK    1  A    between atoms: C_2  and  N_18
REMARK    2  A    between atoms: C_4  and  C_6
REMARK    3  A    between atoms: C_11  and  C_12
REMARK    4  A    between atoms: C_12  and  C_14
REMARK    5  A    between atoms: C_14  and  C_15
REMARK    6  A    between atoms: C_16  and  O_17
REMARK                            x       y       z     vdW  Elec       q    Type
REMARK                         _______ _______ _______ _____ _____    ______ ____
ROOT
ATOM      1  C   UNL     1       8.790  -2.536  25.031  0.00  0.00    +0.083 C 
ATOM      2  C   UNL     1       9.978  -1.820  24.417  0.00  0.00    +0.047 C 
ATOM      3  C   UNL     1       9.608  -3.218  23.979  0.00  0.00    +0.033 C 
ENDROOT
BRANCH   1   4
ATOM      4  N   UNL     1       7.428  -2.162  24.767  0.00  0.00    -0.296 N 
ATOM      5  H   UNL     1       7.262  -1.316  24.239  0.00  0.00    +0.151 HD
ATOM      6  C   UNL     1       6.429  -3.112  24.720  0.00  0.00    +0.305 C 
ATOM      7  N   UNL     1       5.181  -2.545  24.559  0.00  0.00    -0.254 N 
ATOM      8  H   UNL     1       5.052  -1.674  25.054  0.00  0.00    +0.158 HD
ATOM      9  C   UNL     1       4.031  -3.343  24.591  0.00  0.00    +0.126 A 
ATOM     10  C   UNL     1       3.969  -4.558  23.915  0.00  0.00    +0.045 A 
ATOM     11  C   UNL     1       2.875  -5.392  24.127  0.00  0.00    +0.020 A 
ATOM     12  C   UNL     1       1.883  -4.981  25.003  0.00  0.00    +0.036 A 
ATOM     13 BR   UNL     1       0.446  -6.123  25.428  0.00  0.00    -0.049 Br
ATOM     14  C   UNL     1       1.991  -3.724  25.579  0.00  0.00    +0.128 A 
ATOM     15  N   UNL     1       3.029  -2.877  25.364  0.00  0.00    -0.239 NA
ATOM     16  O   UNL     1       6.644  -4.313  24.852  0.00  0.00    -0.252 OA
ENDBRANCH   1   4
BRANCH   2  17
ATOM     17  C   UNL     1       9.794  -0.608  23.521  0.00  0.00    +0.035 A 
ATOM     18  C   UNL     1      10.040   0.698  23.992  0.00  0.00    +0.134 A 
ATOM     19  C   UNL     1       9.852   1.832  23.171  0.00  0.00    +0.059 A 
ATOM     20  C   UNL     1       9.487   1.661  21.834  0.00  0.00    +0.018 A 
ATOM     21  C   UNL     1       9.282   0.383  21.333  0.00  0.00    +0.039 A 
ATOM     22  C   UNL     1       9.432  -0.724  22.170  0.00  0.00    +0.130 A 
ATOM     23  F   UNL     1       9.230  -1.935  21.631  0.00  0.00    -0.205 F 
BRANCH  18  24
ATOM     24  O   UNL     1      10.487   0.821  25.287  0.00  0.00    -0.506 OA
ATOM     25  H   UNL     1       9.721   0.732  25.897  0.00  0.00    +0.292 HD
ENDBRANCH  18  24
BRANCH  19  26
ATOM     26  C   UNL     1      10.039   3.200  23.732  0.00  0.00    +0.166 C 
ATOM     27  O   UNL     1       9.154   3.673  24.443  0.00  0.00    -0.292 OA
BRANCH  26  28
ATOM     28  C   UNL     1      11.315   3.950  23.379  0.00  0.00    +0.076 C 
ATOM     29  C   UNL     1      11.228   5.431  23.701  0.00  0.00    +0.012 C 
ENDBRANCH  26  28
ENDBRANCH  19  26
ENDBRANCH   2  17
TORSDOF 5
ENDMDL
MODEL 6
REMARK VINA RESULT:      -6.2      3.721      6.117
REMARK  Name = 
REMARK  6 active torsions:
REMARK  status: ('A' for Active; 'I' for Inactive)
REMARK    1  A    between atoms: C_2  and  N_18
REMARK    2  A    between atoms: C_4  and  C_6
REMARK    3  A    between atoms: C_11  and  C_12
REMARK    4  A    between atoms: C_12  and  C_14
REMARK    5  A    between atoms: C_14  and  C_15
REMARK    6  A    between atoms: C_16  and  O_17
REMARK                            x       y       z     vdW  Elec       q    Type
REMARK                         _______ _______ _______ _____ _____    ______ ____
ROOT
ATOM      1  C   UNL     1      10.193   0.359  22.438  0.00  0.00    +0.083 C 
ATOM      2  C   UNL     1       9.964   1.506  23.403  0.00  0.00    +0.047 C 
ATOM      3  C   UNL     1      10.192   1.767  21.933  0.00  0.00    +0.033 C 
ENDROOT
BRANCH   1   4
ATOM      4  N   UNL     1       9.155  -0.556  22.049  0.00  0.00    -0.296 N 
ATOM      5  H   UNL     1       8.958  -0.659  21.062  0.00  0.00    +0.151 HD
ATOM      6  C   UNL     1       8.817  -1.627  22.850  0.00  0.00    +0.305 C 
ATOM      7  N   UNL     1       7.733  -2.323  22.356  0.00  0.00    -0.254 N 
ATOM      8  H   UNL     1       7.023  -1.743  21.932  0.00  0.00    +0.158 HD
ATOM      9  C   UNL     1       7.179  -3.382  23.085  0.00  0.00    +0.126 A 
ATOM     10  C   UNL     1       7.981  -4.342  23.696  0.00  0.00    +0.045 A 
ATOM     11  C   UNL     1       7.390  -5.265  24.556  0.00  0.00    +0.020 A 
ATOM     12  C   UNL     1       6.023  -5.197  24.770  0.00  0.00    +0.036 A 
ATOM     13 BR   UNL     1       5.190  -6.334  26.019  0.00  0.00    -0.049 Br
ATOM     14  C   UNL     1       5.291  -4.253  24.064  0.00  0.00    +0.128 A 
ATOM     15  N   UNL     1       5.835  -3.364  23.196  0.00  0.00    -0.239 NA
ATOM     16  O   UNL     1       9.401  -1.886  23.898  0.00  0.00    -0.252 OA
ENDBRANCH   1   4
BRANCH   2  17
ATOM     17  C   UNL     1       8.618   1.720  24.071  0.00  0.00    +0.035 A 
ATOM     18  C   UNL     1       8.299   1.102  25.298  0.00  0.00    +0.134 A 
ATOM     19  C   UNL     1       7.042   1.281  25.916  0.00  0.00    +0.059 A 
ATOM     20  C   UNL     1       6.111   2.152  25.345  0.00  0.00    +0.018 A 
ATOM     21  C   UNL     1       6.417   2.807  24.160  0.00  0.00    +0.039 A 
ATOM     22  C   UNL     1       7.649   2.587  23.541  0.00  0.00    +0.130 A 
ATOM     23  F   UNL     1       7.894   3.253  22.404  0.00  0.00    -0.205 F 
BRANCH  18  24
ATOM     24  O   UNL     1       9.276   0.326  25.878  0.00  0.00    -0.506 OA
ATOM     25  H   UNL     1       8.925  -0.584  26.002  0.00  0.00    +0.292 HD
ENDBRANCH  18  24
BRANCH  19  26
ATOM     26  C   UNL     1       6.713   0.542  27.168  0.00  0.00    +0.166 C 
ATOM     27  O   UNL     1       7.193   0.935  28.230  0.00  0.00    -0.292 OA
BRANCH  26  28
ATOM     28  C   UNL     1       5.807  -0.676  27.063  0.00  0.00    +0.076 C 
ATOM     29  C   UNL     1       6.555  -1.921  26.621  0.00  0.00    +0.012 C 
ENDBRANCH  26  28
ENDBRANCH  19  26
ENDBRANCH   2  17
TORSDOF 5
ENDMDL
MODEL 7
REMARK VINA RESULT:      -6.2      4.148      6.784
REMARK  Name = 
REMARK  6 active torsions:
REMARK  status: ('A' for Active; 'I' for Inactive)
REMARK    1  A    between atoms: C_2  and  N_18
REMARK    2  A    between atoms: C_4  and  C_6
REMARK    3  A    between atoms: C_11  and  C_12
REMARK    4  A    between atoms: C_12  and  C_14
REMARK    5  A    between atoms: C_14  and  C_15
REMARK    6  A    between atoms: C_16  and  O_17
REMARK                            x       y       z     vdW  Elec       q    Type
REMARK                         _______ _______ _______ _____ _____    ______ ____
ROOT
ATOM      1  C   UNL     1      10.304  -0.054  24.922  0.00  0.00    +0.083 C 
ATOM      2  C   UNL     1       9.823   1.370  24.723  0.00  0.00    +0.047 C 
ATOM      3  C   UNL     1      11.185   0.940  24.233  0.00  0.00    +0.033 C 
ENDROOT
BRANCH   1   4
ATOM      4  N   UNL     1       9.761  -1.172  24.200  0.00  0.00    -0.296 N 
ATOM      5  H   UNL     1      10.243  -1.477  23.365  0.00  0.00    +0.151 HD
ATOM      6  C   UNL     1       8.993  -2.123  24.840  0.00  0.00    +0.305 C 
ATOM      7  N   UNL     1       8.481  -3.055  23.959  0.00  0.00    -0.254 N 
ATOM      8  H   UNL     1       8.206  -2.675  23.064  0.00  0.00    +0.158 HD
ATOM      9  C   UNL     1       7.594  -4.040  24.407  0.00  0.00    +0.126 A 
ATOM     10  C   UNL     1       7.822  -4.742  25.588  0.00  0.00    +0.045 A 
ATOM     11  C   UNL     1       6.822  -5.577  26.079  0.00  0.00    +0.020 A 
ATOM     12  C   UNL     1       5.635  -5.684  25.371  0.00  0.00    +0.036 A 
ATOM     13 BR   UNL     1       4.201  -6.696  26.053  0.00  0.00    -0.049 Br
ATOM     14  C   UNL     1       5.521  -5.004  24.167  0.00  0.00    +0.128 A 
ATOM     15  N   UNL     1       6.492  -4.210  23.649  0.00  0.00    -0.239 NA
ATOM     16  O   UNL     1       8.771  -2.099  26.046  0.00  0.00    -0.252 OA
ENDBRANCH   1   4
BRANCH   2  17
ATOM     17  C   UNL     1       8.678   1.694  23.779  0.00  0.00    +0.035 A 
ATOM     18  C   UNL     1       7.387   1.990  24.262  0.00  0.00    +0.134 A 
ATOM     19  C   UNL     1       6.313   2.273  23.389  0.00  0.00    +0.059 A 
ATOM     20  C   UNL     1       6.543   2.338  22.014  0.00  0.00    +0.018 A 
ATOM     21  C   UNL     1       7.816   2.094  21.515  0.00  0.00    +0.039 A 
ATOM     22  C   UNL     1       8.856   1.776  22.389  0.00  0.00    +0.130 A 
ATOM     23  F   UNL     1      10.066   1.559  21.853  0.00  0.00    -0.205 F 
BRANCH  18  24
ATOM     24  O   UNL     1       7.221   2.008  25.628  0.00  0.00    -0.506 OA
ATOM     25  H   UNL     1       7.583   1.173  26.002  0.00  0.00    +0.292 HD
ENDBRANCH  18  24
BRANCH  19  26
ATOM     26  C   UNL     1       4.945   2.496  23.936  0.00  0.00    +0.166 C 
ATOM     27  O   UNL     1       4.496   1.691  24.751  0.00  0.00    -0.292 OA
BRANCH  26  28
ATOM     28  C   UNL     1       4.165   3.705  23.442  0.00  0.00    +0.076 C 
ATOM     29  C   UNL     1       3.036   3.325  22.501  0.00  0.00    +0.012 C 
ENDBRANCH  26  28
ENDBRANCH  19  26
ENDBRANCH   2  17
TORSDOF 5
ENDMDL
MODEL 8
REMARK VINA RESULT:      -6.2      4.186      6.768
REMARK  Name = 
REMARK  6 active torsions:
REMARK  status: ('A' for Active; 'I' for Inactive)
REMARK    1  A    between atoms: C_2  and  N_18
REMARK    2  A    between atoms: C_4  and  C_6
REMARK    3  A    between atoms: C_11  and  C_12
REMARK    4  A    between atoms: C_12  and  C_14
REMARK    5  A    between atoms: C_14  and  C_15
REMARK    6  A    between atoms: C_16  and  O_17
REMARK                            x       y       z     vdW  Elec       q    Type
REMARK                         _______ _______ _______ _____ _____    ______ ____
ROOT
ATOM      1  C   UNL     1       9.417  -2.290  23.436  0.00  0.00    +0.083 C 
ATOM      2  C   UNL     1       9.644  -0.810  23.676  0.00  0.00    +0.047 C 
ATOM      3  C   UNL     1      10.498  -1.572  22.690  0.00  0.00    +0.033 C 
ENDROOT
BRANCH   1   4
ATOM      4  N   UNL     1       8.269  -2.804  22.741  0.00  0.00    -0.296 N 
ATOM      5  H   UNL     1       8.290  -2.812  21.731  0.00  0.00    +0.151 HD
ATOM      6  C   UNL     1       7.434  -3.727  23.338  0.00  0.00    +0.305 C 
ATOM      7  N   UNL     1       6.337  -4.016  22.553  0.00  0.00    -0.254 N 
ATOM      8  H   UNL     1       5.966  -3.225  22.047  0.00  0.00    +0.158 HD
ATOM      9  C   UNL     1       5.324  -4.855  23.034  0.00  0.00    +0.126 A 
ATOM     10  C   UNL     1       5.617  -6.040  23.704  0.00  0.00    +0.045 A 
ATOM     11  C   UNL     1       4.582  -6.740  24.317  0.00  0.00    +0.020 A 
ATOM     12  C   UNL     1       3.294  -6.234  24.237  0.00  0.00    +0.036 A 
ATOM     13 BR   UNL     1       1.877  -7.069  25.155  0.00  0.00    -0.049 Br
ATOM     14  C   UNL     1       3.083  -5.085  23.489  0.00  0.00    +0.128 A 
ATOM     15  N   UNL     1       4.067  -4.401  22.854  0.00  0.00    -0.239 NA
ATOM     16  O   UNL     1       7.642  -4.189  24.456  0.00  0.00    -0.252 OA
ENDBRANCH   1   4
BRANCH   2  17
ATOM     17  C   UNL     1       8.623   0.226  23.242  0.00  0.00    +0.035 A 
ATOM     18  C   UNL     1       7.500   0.530  24.038  0.00  0.00    +0.134 A 
ATOM     19  C   UNL     1       6.535   1.479  23.632  0.00  0.00    +0.059 A 
ATOM     20  C   UNL     1       6.729   2.196  22.449  0.00  0.00    +0.018 A 
ATOM     21  C   UNL     1       7.850   1.947  21.669  0.00  0.00    +0.039 A 
ATOM     22  C   UNL     1       8.772   0.977  22.065  0.00  0.00    +0.130 A 
ATOM     23  F   UNL     1       9.840   0.785  21.278  0.00  0.00    -0.205 F 
BRANCH  18  24
ATOM     24  O   UNL     1       7.391  -0.128  25.241  0.00  0.00    -0.506 OA
ATOM     25  H   UNL     1       6.440  -0.317  25.414  0.00  0.00    +0.292 HD
ENDBRANCH  18  24
BRANCH  19  26
ATOM     26  C   UNL     1       5.318   1.709  24.461  0.00  0.00    +0.166 C 
ATOM     27  O   UNL     1       4.839   0.762  25.083  0.00  0.00    -0.292 OA
BRANCH  26  28
ATOM     28  C   UNL     1       4.718   3.107  24.480  0.00  0.00    +0.076 C 
ATOM     29  C   UNL     1       3.539   3.248  23.535  0.00  0.00    +0.012 C 
ENDBRANCH  26  28
ENDBRANCH  19  26
ENDBRANCH   2  17
TORSDOF 5
ENDMDL
MODEL 9
REMARK VINA RESULT:      -6.2      3.038      3.970
REMARK  Name = 
REMARK  6 active torsions:
REMARK  status: ('A' for Active; 'I' for Inactive)
REMARK    1  A    between atoms: C_2  and  N_18
REMARK    2  A    between atoms: C_4  and  C_6
REMARK    3  A    between atoms: C_11  and  C_12
REMARK    4  A    between atoms: C_12  and  C_14
REMARK    5  A    between atoms: C_14  and  C_15
REMARK    6  A    between atoms: C_16  and  O_17
REMARK                            x       y       z     vdW  Elec       q    Type
REMARK                         _______ _______ _______ _____ _____    ______ ____
ROOT
ATOM      1  C   UNL     1       9.339  -3.741  24.694  0.00  0.00    +0.083 C 
ATOM      2  C   UNL     1       8.524  -5.013  24.567  0.00  0.00    +0.047 C 
ATOM      3  C   UNL     1       9.730  -4.956  25.475  0.00  0.00    +0.033 C 
ENDROOT
BRANCH   1   4
ATOM      4  N   UNL     1       8.857  -2.566  25.368  0.00  0.00    -0.296 N 
ATOM      5  H   UNL     1       8.771  -2.597  26.375  0.00  0.00    +0.151 HD
ATOM      6  C   UNL     1       9.019  -1.314  24.811  0.00  0.00    +0.305 C 
ATOM      7  N   UNL     1       8.400  -0.331  25.557  0.00  0.00    -0.254 N 
ATOM      8  H   UNL     1       7.521  -0.611  25.967  0.00  0.00    +0.158 HD
ATOM      9  C   UNL     1       8.368   0.991  25.097  0.00  0.00    +0.126 A 
ATOM     10  C   UNL     1       9.496   1.601  24.556  0.00  0.00    +0.045 A 
ATOM     11  C   UNL     1       9.363   2.848  23.951  0.00  0.00    +0.020 A 
ATOM     12  C   UNL     1       8.111   3.441  23.913  0.00  0.00    +0.036 A 
ATOM     13 BR   UNL     1       7.846   5.065  22.996  0.00  0.00    -0.049 Br
ATOM     14  C   UNL     1       7.056   2.795  24.540  0.00  0.00    +0.128 A 
ATOM     15  N   UNL     1       7.164   1.595  25.165  0.00  0.00    -0.239 NA
ATOM     16  O   UNL     1       9.613  -1.126  23.754  0.00  0.00    -0.252 OA
ENDBRANCH   1   4
BRANCH   2  17
ATOM     17  C   UNL     1       7.104  -5.099  25.099  0.00  0.00    +0.035 A 
ATOM     18  C   UNL     1       6.829  -5.627  26.377  0.00  0.00    +0.134 A 
ATOM     19  C   UNL     1       5.509  -5.729  26.872  0.00  0.00    +0.059 A 
ATOM     20  C   UNL     1       4.450  -5.225  26.114  0.00  0.00    +0.018 A 
ATOM     21  C   UNL     1       4.699  -4.659  24.871  0.00  0.00    +0.039 A 
ATOM     22  C   UNL     1       6.005  -4.605  24.380  0.00  0.00    +0.130 A 
ATOM     23  F   UNL     1       6.188  -4.039  23.179  0.00  0.00    -0.205 F 
BRANCH  18  24
ATOM     24  O   UNL     1       7.907  -6.027  27.133  0.00  0.00    -0.506 OA
ATOM     25  H   UNL     1       8.529  -6.528  26.557  0.00  0.00    +0.292 HD
ENDBRANCH  18  24
BRANCH  19  26
ATOM     26  C   UNL     1       5.253  -6.372  28.191  0.00  0.00    +0.166 C 
ATOM     27  O   UNL     1       5.704  -7.498  28.397  0.00  0.00    -0.292 OA
BRANCH  26  28
ATOM     28  C   UNL     1       4.429  -5.605  29.213  0.00  0.00    +0.076 C 
ATOM     29  C   UNL     1       5.204  -5.312  30.485  0.00  0.00    +0.012 C 
ENDBRANCH  26  28
ENDBRANCH  19  26
ENDBRANCH   2  17
TORSDOF 5
ENDMDL
