MODEL 1
REMARK VINA RESULT:      -6.8      0.000      0.000
REMARK  Name = 
REMARK  4 active torsions:
REMARK  status: ('A' for Active; 'I' for Inactive)
REMARK    1  A    between atoms: C_5  and  C_6
REMARK    2  A    between atoms: C_6  and  N_7
REMARK    3  A    between atoms: C_11  and  C_24
REMARK    4  A    between atoms: N_16  and  C_17
REMARK                            x       y       z     vdW  Elec       q    Type
REMARK                         _______ _______ _______ _____ _____    ______ ____
ROOT
ATOM      1  N   UNL     1       9.941  -0.177  24.184  0.00  0.00    -0.309 N 
ATOM      2  H   UNL     1      10.127  -0.788  23.400  0.00  0.00    +0.149 HD
ATOM      3  C   UNL     1       8.781  -0.442  24.841  0.00  0.00    +0.220 A 
ATOM      4  N   UNL     1       8.055  -1.459  24.278  0.00  0.00    -0.181 NA
ATOM      5  C   UNL     1       6.905  -1.816  24.771  0.00  0.00    +0.225 A 
ATOM      6  N   UNL     1       6.086  -2.815  24.269  0.00  0.00    -0.283 N 
ATOM      7  H   UNL     1       5.221  -2.971  24.783  0.00  0.00    +0.155 HD
ATOM      8  N   UNL     1       6.478  -1.145  25.926  0.00  0.00    -0.182 N 
ATOM      9  C   UNL     1       7.247  -0.166  26.497  0.00  0.00    +0.180 A 
ATOM     10  C   UNL     1       6.589   0.175  27.659  0.00  0.00    +0.116 A 
ATOM     11  C   UNL     1       5.430  -0.634  27.677  0.00  0.00    +0.156 A 
ATOM     12  N   UNL     1       5.341  -1.441  26.607  0.00  0.00    -0.169 NA
ATOM     13  N   UNL     1       8.408   0.217  25.904  0.00  0.00    -0.194 NA
ENDROOT
BRANCH   6  14
ATOM     14  C   UNL     1       6.444  -3.815  23.344  0.00  0.00    +0.034 A 
ATOM     15  C   UNL     1       7.314  -4.873  23.646  0.00  0.00    +0.023 A 
ATOM     16  C   UNL     1       7.554  -5.910  22.740  0.00  0.00    +0.002 A 
ATOM     17  C   UNL     1       6.935  -5.901  21.498  0.00  0.00    +0.000 A 
ATOM     18  C   UNL     1       6.092  -4.848  21.159  0.00  0.00    +0.002 A 
ATOM     19  C   UNL     1       5.853  -3.811  22.071  0.00  0.00    +0.023 A 
ENDBRANCH   6  14
BRANCH  10  20
ATOM     20  C   UNL     1       7.012   1.115  28.639  0.00  0.00    +0.104 C 
ATOM     21  N   UNL     1       7.321   1.898  29.439  0.00  0.00    -0.191 NA
ENDBRANCH  10  20
BRANCH   1  22
ATOM     22  C   UNL     1      10.596   1.103  24.165  0.00  0.00    +0.139 C 
BRANCH  22  27
ATOM     23 CL   UNL     1       6.631   5.255  22.278  0.00  0.00    -0.084 Cl
ATOM     24  C   UNL     1       7.810   4.103  22.774  0.00  0.00    +0.041 A 
ATOM     25  C   UNL     1       8.549   4.325  23.934  0.00  0.00    +0.020 A 
ATOM     26  C   UNL     1       9.480   3.372  24.360  0.00  0.00    +0.006 A 
ATOM     27  C   UNL     1       9.675   2.185  23.634  0.00  0.00    -0.030 A 
ATOM     28  C   UNL     1       8.939   1.991  22.454  0.00  0.00    +0.006 A 
ATOM     29  C   UNL     1       8.009   2.946  22.026  0.00  0.00    +0.020 A 
ENDBRANCH  22  27
ENDBRANCH   1  22
TORSDOF 4
ENDMDL
MODEL 2
REMARK VINA RESULT:      -6.8      3.774      7.681
REMARK  Name = 
REMARK  4 active torsions:
REMARK  status: ('A' for Active; 'I' for Inactive)
REMARK    1  A    between atoms: C_5  and  C_6
REMARK    2  A    between atoms: C_6  and  N_7
REMARK    3  A    between atoms: C_11  and  C_24
REMARK    4  A    between atoms: N_16  and  C_17
REMARK                            x       y       z     vdW  Elec       q    Type
REMARK                         _______ _______ _______ _____ _____    ______ ____
ROOT
ATOM      1  N   UNL     1       9.531   0.796  24.378  0.00  0.00    -0.309 N 
ATOM      2  H   UNL     1       8.763   0.382  24.889  0.00  0.00    +0.149 HD
ATOM      3  C   UNL     1       9.545   2.154  24.383  0.00  0.00    +0.220 A 
ATOM      4  N   UNL     1       8.477   2.708  25.041  0.00  0.00    -0.181 NA
ATOM      5  C   UNL     1       8.328   3.999  25.111  0.00  0.00    +0.225 A 
ATOM      6  N   UNL     1       7.279   4.657  25.733  0.00  0.00    -0.283 N 
ATOM      7  H   UNL     1       7.321   5.674  25.702  0.00  0.00    +0.155 HD
ATOM      8  N   UNL     1       9.333   4.783  24.529  0.00  0.00    -0.182 N 
ATOM      9  C   UNL     1      10.416   4.204  23.921  0.00  0.00    +0.180 A 
ATOM     10  C   UNL     1      11.241   5.254  23.582  0.00  0.00    +0.116 A 
ATOM     11  C   UNL     1      10.554   6.414  24.003  0.00  0.00    +0.156 A 
ATOM     12  N   UNL     1       9.369   6.139  24.574  0.00  0.00    -0.169 NA
ATOM     13  N   UNL     1      10.490   2.851  23.814  0.00  0.00    -0.194 NA
ENDROOT
BRANCH   6  14
ATOM     14  C   UNL     1       6.354   4.106  26.640  0.00  0.00    +0.034 A 
ATOM     15  C   UNL     1       5.052   3.726  26.282  0.00  0.00    +0.023 A 
ATOM     16  C   UNL     1       4.202   3.074  27.181  0.00  0.00    +0.002 A 
ATOM     17  C   UNL     1       4.637   2.801  28.471  0.00  0.00    +0.000 A 
ATOM     18  C   UNL     1       5.912   3.196  28.864  0.00  0.00    +0.002 A 
ATOM     19  C   UNL     1       6.761   3.846  27.958  0.00  0.00    +0.023 A 
ENDBRANCH   6  14
BRANCH  10  20
ATOM     20  C   UNL     1      12.524   5.173  22.972  0.00  0.00    +0.104 C 
ATOM     21  N   UNL     1      13.565   5.144  22.459  0.00  0.00    -0.191 NA
ENDBRANCH  10  20
BRANCH   1  22
ATOM     22  C   UNL     1      10.136  -0.024  23.362  0.00  0.00    +0.139 C 
BRANCH  22  27
ATOM     23 CL   UNL     1       7.160  -5.282  23.254  0.00  0.00    -0.084 Cl
ATOM     24  C   UNL     1       8.058  -3.813  23.244  0.00  0.00    +0.041 A 
ATOM     25  C   UNL     1       7.766  -2.831  22.300  0.00  0.00    +0.020 A 
ATOM     26  C   UNL     1       8.469  -1.621  22.315  0.00  0.00    +0.006 A 
ATOM     27  C   UNL     1       9.464  -1.381  23.276  0.00  0.00    -0.030 A 
ATOM     28  C   UNL     1       9.761  -2.394  24.202  0.00  0.00    +0.006 A 
ATOM     29  C   UNL     1       9.061  -3.605  24.187  0.00  0.00    +0.020 A 
ENDBRANCH  22  27
ENDBRANCH   1  22
TORSDOF 4
ENDMDL
MODEL 3
REMARK VINA RESULT:      -6.6      2.866      4.502
REMARK  Name = 
REMARK  4 active torsions:
REMARK  status: ('A' for Active; 'I' for Inactive)
REMARK    1  A    between atoms: C_5  and  C_6
REMARK    2  A    between atoms: C_6  and  N_7
REMARK    3  A    between atoms: C_11  and  C_24
REMARK    4  A    between atoms: N_16  and  C_17
REMARK                            x       y       z     vdW  Elec       q    Type
REMARK                         _______ _______ _______ _____ _____    ______ ____
ROOT
ATOM      1  N   UNL     1       5.532  -0.091  25.216  0.00  0.00    -0.309 N 
ATOM      2  H   UNL     1       4.857  -0.748  25.584  0.00  0.00    +0.149 HD
ATOM      3  C   UNL     1       6.640  -0.665  24.678  0.00  0.00    +0.220 A 
ATOM      4  N   UNL     1       6.653  -2.032  24.787  0.00  0.00    -0.181 NA
ATOM      5  C   UNL     1       7.659  -2.731  24.346  0.00  0.00    +0.225 A 
ATOM      6  N   UNL     1       7.780  -4.109  24.423  0.00  0.00    -0.283 N 
ATOM      7  H   UNL     1       8.631  -4.497  24.021  0.00  0.00    +0.155 HD
ATOM      8  N   UNL     1       8.692  -2.022  23.717  0.00  0.00    -0.182 N 
ATOM      9  C   UNL     1       8.630  -0.660  23.577  0.00  0.00    +0.180 A 
ATOM     10  C   UNL     1       9.730  -0.328  22.817  0.00  0.00    +0.116 A 
ATOM     11  C   UNL     1      10.396  -1.550  22.578  0.00  0.00    +0.156 A 
ATOM     12  N   UNL     1       9.776  -2.600  23.140  0.00  0.00    -0.169 NA
ATOM     13  N   UNL     1       7.590   0.030  24.116  0.00  0.00    -0.194 NA
ENDROOT
BRANCH   6  14
ATOM     14  C   UNL     1       6.755  -5.032  24.707  0.00  0.00    +0.034 A 
ATOM     15  C   UNL     1       6.433  -5.456  26.004  0.00  0.00    +0.023 A 
ATOM     16  C   UNL     1       5.334  -6.283  26.257  0.00  0.00    +0.002 A 
ATOM     17  C   UNL     1       4.539  -6.718  25.206  0.00  0.00    +0.000 A 
ATOM     18  C   UNL     1       4.854  -6.340  23.905  0.00  0.00    +0.002 A 
ATOM     19  C   UNL     1       5.955  -5.509  23.657  0.00  0.00    +0.023 A 
ENDBRANCH   6  14
BRANCH  10  20
ATOM     20  C   UNL     1      10.088   0.968  22.350  0.00  0.00    +0.104 C 
ATOM     21  N   UNL     1      10.354   2.040  21.993  0.00  0.00    -0.191 NA
ENDBRANCH  10  20
BRANCH   1  22
ATOM     22  C   UNL     1       5.480   1.244  25.749  0.00  0.00    +0.139 C 
BRANCH  22  27
ATOM     23 CL   UNL     1       2.392   4.667  21.841  0.00  0.00    -0.084 Cl
ATOM     24  C   UNL     1       3.303   3.751  22.980  0.00  0.00    +0.041 A 
ATOM     25  C   UNL     1       2.750   3.443  24.221  0.00  0.00    +0.020 A 
ATOM     26  C   UNL     1       3.473   2.666  25.132  0.00  0.00    +0.006 A 
ATOM     27  C   UNL     1       4.752   2.185  24.807  0.00  0.00    -0.030 A 
ATOM     28  C   UNL     1       5.302   2.528  23.561  0.00  0.00    +0.006 A 
ATOM     29  C   UNL     1       4.580   3.307  22.650  0.00  0.00    +0.020 A 
ENDBRANCH  22  27
ENDBRANCH   1  22
TORSDOF 4
ENDMDL
MODEL 4
REMARK VINA RESULT:      -6.5      3.147      6.476
REMARK  Name = 
REMARK  4 active torsions:
REMARK  status: ('A' for Active; 'I' for Inactive)
REMARK    1  A    between atoms: C_5  and  C_6
REMARK    2  A    between atoms: C_6  and  N_7
REMARK    3  A    between atoms: C_11  and  C_24
REMARK    4  A    between atoms: N_16  and  C_17
REMARK                            x       y       z     vdW  Elec       q    Type
REMARK                         _______ _______ _______ _____ _____    ______ ____
ROOT
ATOM      1  N   UNL     1       5.649  -0.569  26.330  0.00  0.00    -0.309 N 
ATOM      2  H   UNL     1       5.816   0.325  25.888  0.00  0.00    +0.149 HD
ATOM      3  C   UNL     1       6.569  -1.524  26.034  0.00  0.00    +0.220 A 
ATOM      4  N   UNL     1       7.524  -1.104  25.145  0.00  0.00    -0.181 NA
ATOM      5  C   UNL     1       8.461  -1.910  24.736  0.00  0.00    +0.225 A 
ATOM      6  N   UNL     1       9.459  -1.593  23.829  0.00  0.00    -0.283 N 
ATOM      7  H   UNL     1      10.119  -2.341  23.624  0.00  0.00    +0.155 HD
ATOM      8  N   UNL     1       8.470  -3.199  25.287  0.00  0.00    -0.182 N 
ATOM      9  C   UNL     1       7.532  -3.577  26.213  0.00  0.00    +0.180 A 
ATOM     10  C   UNL     1       7.916  -4.836  26.618  0.00  0.00    +0.116 A 
ATOM     11  C   UNL     1       9.071  -5.131  25.861  0.00  0.00    +0.156 A 
ATOM     12  N   UNL     1       9.415  -4.138  25.025  0.00  0.00    -0.169 NA
ATOM     13  N   UNL     1       6.534  -2.720  26.554  0.00  0.00    -0.194 NA
ENDROOT
BRANCH   6  14
ATOM     14  C   UNL     1       9.837  -0.305  23.405  0.00  0.00    +0.034 A 
ATOM     15  C   UNL     1       9.521   0.219  22.143  0.00  0.00    +0.023 A 
ATOM     16  C   UNL     1       9.812   1.543  21.800  0.00  0.00    +0.002 A 
ATOM     17  C   UNL     1      10.444   2.372  22.717  0.00  0.00    +0.000 A 
ATOM     18  C   UNL     1      10.798   1.870  23.966  0.00  0.00    +0.002 A 
ATOM     19  C   UNL     1      10.503   0.543  24.304  0.00  0.00    +0.023 A 
ENDBRANCH   6  14
BRANCH  10  20
ATOM     20  C   UNL     1       7.294  -5.643  27.611  0.00  0.00    +0.104 C 
ATOM     21  N   UNL     1       6.822  -6.316  28.431  0.00  0.00    -0.191 NA
ENDBRANCH  10  20
BRANCH   1  22
ATOM     22  C   UNL     1       4.296  -0.835  26.738  0.00  0.00    +0.139 C 
BRANCH  22  27
ATOM     23 CL   UNL     1       2.396   3.676  30.281  0.00  0.00    -0.084 Cl
ATOM     24  C   UNL     1       2.915   2.345  29.321  0.00  0.00    +0.041 A 
ATOM     25  C   UNL     1       2.060   1.808  28.362  0.00  0.00    +0.020 A 
ATOM     26  C   UNL     1       2.494   0.751  27.555  0.00  0.00    +0.006 A 
ATOM     27  C   UNL     1       3.790   0.227  27.695  0.00  0.00    -0.030 A 
ATOM     28  C   UNL     1       4.628   0.765  28.685  0.00  0.00    +0.006 A 
ATOM     29  C   UNL     1       4.193   1.820  29.495  0.00  0.00    +0.020 A 
ENDBRANCH  22  27
ENDBRANCH   1  22
TORSDOF 4
ENDMDL
MODEL 5
REMARK VINA RESULT:      -6.5      4.083      7.479
REMARK  Name = 
REMARK  4 active torsions:
REMARK  status: ('A' for Active; 'I' for Inactive)
REMARK    1  A    between atoms: C_5  and  C_6
REMARK    2  A    between atoms: C_6  and  N_7
REMARK    3  A    between atoms: C_11  and  C_24
REMARK    4  A    between atoms: N_16  and  C_17
REMARK                            x       y       z     vdW  Elec       q    Type
REMARK                         _______ _______ _______ _____ _____    ______ ____
ROOT
ATOM      1  N   UNL     1       8.698   0.819  24.523  0.00  0.00    -0.309 N 
ATOM      2  H   UNL     1       7.788   0.461  24.782  0.00  0.00    +0.149 HD
ATOM      3  C   UNL     1       8.729   2.154  24.275  0.00  0.00    +0.220 A 
ATOM      4  N   UNL     1       7.501   2.755  24.374  0.00  0.00    -0.181 NA
ATOM      5  C   UNL     1       7.355   4.027  24.139  0.00  0.00    +0.225 A 
ATOM      6  N   UNL     1       6.160   4.726  24.192  0.00  0.00    -0.283 N 
ATOM      7  H   UNL     1       6.225   5.721  23.986  0.00  0.00    +0.155 HD
ATOM      8  N   UNL     1       8.517   4.749  23.831  0.00  0.00    -0.182 N 
ATOM      9  C   UNL     1       9.740   4.132  23.788  0.00  0.00    +0.180 A 
ATOM     10  C   UNL     1      10.647   5.149  23.585  0.00  0.00    +0.116 A 
ATOM     11  C   UNL     1       9.869   6.325  23.495  0.00  0.00    +0.156 A 
ATOM     12  N   UNL     1       8.553   6.091  23.628  0.00  0.00    -0.169 NA
ATOM     13  N   UNL     1       9.828   2.789  23.974  0.00  0.00    -0.194 NA
ENDROOT
BRANCH   6  14
ATOM     14  C   UNL     1       4.955   4.296  24.780  0.00  0.00    +0.034 A 
ATOM     15  C   UNL     1       4.668   4.436  26.146  0.00  0.00    +0.023 A 
ATOM     16  C   UNL     1       3.416   4.104  26.673  0.00  0.00    +0.002 A 
ATOM     17  C   UNL     1       2.424   3.605  25.840  0.00  0.00    +0.000 A 
ATOM     18  C   UNL     1       2.692   3.425  24.486  0.00  0.00    +0.002 A 
ATOM     19  C   UNL     1       3.947   3.762  23.963  0.00  0.00    +0.023 A 
ENDBRANCH   6  14
BRANCH  10  20
ATOM     20  C   UNL     1      12.063   5.033  23.519  0.00  0.00    +0.104 C 
ATOM     21  N   UNL     1      13.218   4.947  23.426  0.00  0.00    -0.191 NA
ENDBRANCH  10  20
BRANCH   1  22
ATOM     22  C   UNL     1       9.626  -0.136  23.977  0.00  0.00    +0.139 C 
BRANCH  22  27
ATOM     23 CL   UNL     1       7.247  -5.523  22.622  0.00  0.00    -0.084 Cl
ATOM     24  C   UNL     1       7.867  -3.974  23.049  0.00  0.00    +0.041 A 
ATOM     25  C   UNL     1       8.731  -3.850  24.134  0.00  0.00    +0.020 A 
ATOM     26  C   UNL     1       9.267  -2.599  24.458  0.00  0.00    +0.006 A 
ATOM     27  C   UNL     1       8.949  -1.464  23.696  0.00  0.00    -0.030 A 
ATOM     28  C   UNL     1       8.056  -1.604  22.621  0.00  0.00    +0.006 A 
ATOM     29  C   UNL     1       7.518  -2.855  22.298  0.00  0.00    +0.020 A 
ENDBRANCH  22  27
ENDBRANCH   1  22
TORSDOF 4
ENDMDL
MODEL 6
REMARK VINA RESULT:      -6.5      3.854      7.810
REMARK  Name = 
REMARK  4 active torsions:
REMARK  status: ('A' for Active; 'I' for Inactive)
REMARK    1  A    between atoms: C_5  and  C_6
REMARK    2  A    between atoms: C_6  and  N_7
REMARK    3  A    between atoms: C_11  and  C_24
REMARK    4  A    between atoms: N_16  and  C_17
REMARK                            x       y       z     vdW  Elec       q    Type
REMARK                         _______ _______ _______ _____ _____    ______ ____
ROOT
ATOM      1  N   UNL     1       5.325  -1.652  25.888  0.00  0.00    -0.309 N 
ATOM      2  H   UNL     1       5.806  -0.764  25.944  0.00  0.00    +0.149 HD
ATOM      3  C   UNL     1       5.753  -2.462  24.885  0.00  0.00    +0.220 A 
ATOM      4  N   UNL     1       6.725  -1.894  24.103  0.00  0.00    -0.181 NA
ATOM      5  C   UNL     1       7.221  -2.529  23.081  0.00  0.00    +0.225 A 
ATOM      6  N   UNL     1       8.189  -2.040  22.219  0.00  0.00    -0.283 N 
ATOM      7  H   UNL     1       8.471  -2.673  21.473  0.00  0.00    +0.155 HD
ATOM      8  N   UNL     1       6.749  -3.830  22.857  0.00  0.00    -0.182 N 
ATOM      9  C   UNL     1       5.812  -4.393  23.684  0.00  0.00    +0.180 A 
ATOM     10  C   UNL     1       5.682  -5.692  23.246  0.00  0.00    +0.116 A 
ATOM     11  C   UNL     1       6.558  -5.799  22.143  0.00  0.00    +0.156 A 
ATOM     12  N   UNL     1       7.210  -4.654  21.882  0.00  0.00    -0.169 NA
ATOM     13  N   UNL     1       5.276  -3.662  24.697  0.00  0.00    -0.194 NA
ENDROOT
BRANCH   6  14
ATOM     14  C   UNL     1       9.024  -0.926  22.430  0.00  0.00    +0.034 A 
ATOM     15  C   UNL     1       9.064   0.184  21.574  0.00  0.00    +0.023 A 
ATOM     16  C   UNL     1       9.818   1.322  21.878  0.00  0.00    +0.002 A 
ATOM     17  C   UNL     1      10.564   1.366  23.047  0.00  0.00    +0.000 A 
ATOM     18  C   UNL     1      10.568   0.267  23.900  0.00  0.00    +0.002 A 
ATOM     19  C   UNL     1       9.809  -0.870  23.592  0.00  0.00    +0.023 A 
ENDBRANCH   6  14
BRANCH  10  20
ATOM     20  C   UNL     1       4.865  -6.709  23.813  0.00  0.00    +0.104 C 
ATOM     21  N   UNL     1       4.193  -7.517  24.308  0.00  0.00    -0.191 NA
ENDBRANCH  10  20
BRANCH   1  22
ATOM     22  C   UNL     1       4.015  -1.707  26.481  0.00  0.00    +0.139 C 
BRANCH  22  27
ATOM     23 CL   UNL     1       3.562  -6.876  29.578  0.00  0.00    -0.084 Cl
ATOM     24  C   UNL     1       3.651  -5.372  28.746  0.00  0.00    +0.041 A 
ATOM     25  C   UNL     1       4.727  -4.517  28.974  0.00  0.00    +0.020 A 
ATOM     26  C   UNL     1       4.821  -3.312  28.270  0.00  0.00    +0.006 A 
ATOM     27  C   UNL     1       3.845  -2.955  27.326  0.00  0.00    -0.030 A 
ATOM     28  C   UNL     1       2.754  -3.817  27.129  0.00  0.00    +0.006 A 
ATOM     29  C   UNL     1       2.658  -5.022  27.835  0.00  0.00    +0.020 A 
ENDBRANCH  22  27
ENDBRANCH   1  22
TORSDOF 4
ENDMDL
MODEL 7
REMARK VINA RESULT:      -6.5      4.764      7.451
REMARK  Name = 
REMARK  4 active torsions:
REMARK  status: ('A' for Active; 'I' for Inactive)
REMARK    1  A    between atoms: C_5  and  C_6
REMARK    2  A    between atoms: C_6  and  N_7
REMARK    3  A    between atoms: C_11  and  C_24
REMARK    4  A    between atoms: N_16  and  C_17
REMARK                            x       y       z     vdW  Elec       q    Type
REMARK                         _______ _______ _______ _____ _____    ______ ____
ROOT
ATOM      1  N   UNL     1       7.447   1.278  22.537  0.00  0.00    -0.309 N 
ATOM      2  H   UNL     1       6.584   0.778  22.371  0.00  0.00    +0.149 HD
ATOM      3  C   UNL     1       7.307   2.626  22.628  0.00  0.00    +0.220 A 
ATOM      4  N   UNL     1       6.021   3.056  22.423  0.00  0.00    -0.181 NA
ATOM      5  C   UNL     1       5.725   4.323  22.448  0.00  0.00    +0.225 A 
ATOM      6  N   UNL     1       4.466   4.862  22.235  0.00  0.00    -0.283 N 
ATOM      7  H   UNL     1       4.408   5.877  22.298  0.00  0.00    +0.155 HD
ATOM      8  N   UNL     1       6.770   5.210  22.742  0.00  0.00    -0.182 N 
ATOM      9  C   UNL     1       8.036   4.750  22.992  0.00  0.00    +0.180 A 
ATOM     10  C   UNL     1       8.757   5.865  23.360  0.00  0.00    +0.116 A 
ATOM     11  C   UNL     1       7.844   6.939  23.272  0.00  0.00    +0.156 A 
ATOM     12  N   UNL     1       6.620   6.553  22.877  0.00  0.00    -0.169 NA
ATOM     13  N   UNL     1       8.308   3.422  22.886  0.00  0.00    -0.194 NA
ENDROOT
BRANCH   6  14
ATOM     14  C   UNL     1       3.239   4.172  22.247  0.00  0.00    +0.034 A 
ATOM     15  C   UNL     1       2.655   3.611  21.101  0.00  0.00    +0.023 A 
ATOM     16  C   UNL     1       1.496   2.833  21.171  0.00  0.00    +0.002 A 
ATOM     17  C   UNL     1       0.883   2.612  22.397  0.00  0.00    +0.000 A 
ATOM     18  C   UNL     1       1.422   3.182  23.546  0.00  0.00    +0.002 A 
ATOM     19  C   UNL     1       2.586   3.959  23.471  0.00  0.00    +0.023 A 
ENDBRANCH   6  14
BRANCH  10  20
ATOM     20  C   UNL     1      10.118   5.908  23.771  0.00  0.00    +0.104 C 
ATOM     21  N   UNL     1      11.227   5.983  24.106  0.00  0.00    -0.191 NA
ENDBRANCH  10  20
BRANCH   1  22
ATOM     22  C   UNL     1       8.659   0.606  22.151  0.00  0.00    +0.139 C 
BRANCH  22  27
ATOM     23 CL   UNL     1       8.611  -4.952  24.520  0.00  0.00    -0.084 Cl
ATOM     24  C   UNL     1       8.648  -3.397  23.784  0.00  0.00    +0.041 A 
ATOM     25  C   UNL     1       7.502  -2.891  23.175  0.00  0.00    +0.020 A 
ATOM     26  C   UNL     1       7.520  -1.612  22.610  0.00  0.00    +0.006 A 
ATOM     27  C   UNL     1       8.681  -0.824  22.656  0.00  0.00    -0.030 A 
ATOM     28  C   UNL     1       9.834  -1.361  23.252  0.00  0.00    +0.006 A 
ATOM     29  C   UNL     1       9.818  -2.642  23.815  0.00  0.00    +0.020 A 
ENDBRANCH  22  27
ENDBRANCH   1  22
TORSDOF 4
ENDMDL
MODEL 8
REMARK VINA RESULT:      -6.4      3.113      4.767
REMARK  Name = 
REMARK  4 active torsions:
REMARK  status: ('A' for Active; 'I' for Inactive)
REMARK    1  A    between atoms: C_5  and  C_6
REMARK    2  A    between atoms: C_6  and  N_7
REMARK    3  A    between atoms: C_11  and  C_24
REMARK    4  A    between atoms: N_16  and  C_17
REMARK                            x       y       z     vdW  Elec       q    Type
REMARK                         _______ _______ _______ _____ _____    ______ ____
ROOT
ATOM      1  N   UNL     1       5.269   1.528  24.041  0.00  0.00    -0.309 N 
ATOM      2  H   UNL     1       4.803   0.633  23.971  0.00  0.00    +0.149 HD
ATOM      3  C   UNL     1       6.625   1.461  24.008  0.00  0.00    +0.220 A 
ATOM      4  N   UNL     1       7.106   0.179  23.938  0.00  0.00    -0.181 NA
ATOM      5  C   UNL     1       8.386  -0.058  23.928  0.00  0.00    +0.225 A 
ATOM      6  N   UNL     1       8.974  -1.312  23.879  0.00  0.00    -0.283 N 
ATOM      7  H   UNL     1       9.992  -1.318  23.870  0.00  0.00    +0.155 HD
ATOM      8  N   UNL     1       9.235   1.057  23.942  0.00  0.00    -0.182 N 
ATOM      9  C   UNL     1       8.727   2.330  23.962  0.00  0.00    +0.180 A 
ATOM     10  C   UNL     1       9.823   3.155  23.844  0.00  0.00    +0.116 A 
ATOM     11  C   UNL     1      10.935   2.286  23.788  0.00  0.00    +0.156 A 
ATOM     12  N   UNL     1      10.588   0.991  23.864  0.00  0.00    -0.169 NA
ATOM     13  N   UNL     1       7.383   2.522  24.041  0.00  0.00    -0.194 NA
ENDROOT
BRANCH   6  14
ATOM     14  C   UNL     1       8.347  -2.526  23.538  0.00  0.00    +0.034 A 
ATOM     15  C   UNL     1       7.568  -2.698  22.385  0.00  0.00    +0.023 A 
ATOM     16  C   UNL     1       7.058  -3.947  22.020  0.00  0.00    +0.002 A 
ATOM     17  C   UNL     1       7.307  -5.056  22.816  0.00  0.00    +0.000 A 
ATOM     18  C   UNL     1       8.050  -4.910  23.984  0.00  0.00    +0.002 A 
ATOM     19  C   UNL     1       8.561  -3.655  24.344  0.00  0.00    +0.023 A 
ENDBRANCH   6  14
BRANCH  10  20
ATOM     20  C   UNL     1       9.821   4.576  23.762  0.00  0.00    +0.104 C 
ATOM     21  N   UNL     1       9.789   5.733  23.671  0.00  0.00    -0.191 NA
ENDBRANCH  10  20
BRANCH   1  22
ATOM     22  C   UNL     1       4.517   2.592  24.653  0.00  0.00    +0.139 C 
BRANCH  22  27
ATOM     23 CL   UNL     1       2.182   6.618  20.799  0.00  0.00    -0.084 Cl
ATOM     24  C   UNL     1       2.886   5.444  21.843  0.00  0.00    +0.041 A 
ATOM     25  C   UNL     1       4.026   5.765  22.577  0.00  0.00    +0.020 A 
ATOM     26  C   UNL     1       4.576   4.826  23.455  0.00  0.00    +0.006 A 
ATOM     27  C   UNL     1       3.988   3.560  23.612  0.00  0.00    -0.030 A 
ATOM     28  C   UNL     1       2.855   3.246  22.845  0.00  0.00    +0.006 A 
ATOM     29  C   UNL     1       2.305   4.185  21.964  0.00  0.00    +0.020 A 
ENDBRANCH  22  27
ENDBRANCH   1  22
TORSDOF 4
ENDMDL
MODEL 9
REMARK VINA RESULT:      -6.4      3.158      7.892
REMARK  Name = 
REMARK  4 active torsions:
REMARK  status: ('A' for Active; 'I' for Inactive)
REMARK    1  A    between atoms: C_5  and  C_6
REMARK    2  A    between atoms: C_6  and  N_7
REMARK    3  A    between atoms: C_11  and  C_24
REMARK    4  A    between atoms: N_16  and  C_17
REMARK                            x       y       z     vdW  Elec       q    Type
REMARK                         _______ _______ _______ _____ _____    ______ ____
ROOT
ATOM      1  N   UNL     1       7.931   1.194  26.552  0.00  0.00    -0.309 N 
ATOM      2  H   UNL     1       8.200   2.053  27.012  0.00  0.00    +0.149 HD
ATOM      3  C   UNL     1       8.299   1.114  25.247  0.00  0.00    +0.220 A 
ATOM      4  N   UNL     1       8.922   2.245  24.786  0.00  0.00    -0.181 NA
ATOM      5  C   UNL     1       9.311   2.340  23.547  0.00  0.00    +0.225 A 
ATOM      6  N   UNL     1       9.930   3.440  22.978  0.00  0.00    -0.283 N 
ATOM      7  H   UNL     1      10.176   3.344  21.995  0.00  0.00    +0.155 HD
ATOM      8  N   UNL     1       9.105   1.217  22.734  0.00  0.00    -0.182 N 
ATOM      9  C   UNL     1       8.525   0.080  23.233  0.00  0.00    +0.180 A 
ATOM     10  C   UNL     1       8.597  -0.839  22.210  0.00  0.00    +0.116 A 
ATOM     11  C   UNL     1       9.209  -0.151  21.139  0.00  0.00    +0.156 A 
ATOM     12  N   UNL     1       9.513   1.122  21.442  0.00  0.00    -0.169 NA
ATOM     13  N   UNL     1       8.074   0.057  24.516  0.00  0.00    -0.194 NA
ENDROOT
BRANCH   6  14
ATOM     14  C   UNL     1      10.518   4.524  23.658  0.00  0.00    +0.034 A 
ATOM     15  C   UNL     1      11.876   4.860  23.551  0.00  0.00    +0.023 A 
ATOM     16  C   UNL     1      12.399   6.011  24.148  0.00  0.00    +0.002 A 
ATOM     17  C   UNL     1      11.570   6.848  24.882  0.00  0.00    +0.000 A 
ATOM     18  C   UNL     1      10.225   6.522  25.033  0.00  0.00    +0.002 A 
ATOM     19  C   UNL     1       9.706   5.369  24.430  0.00  0.00    +0.023 A 
ENDBRANCH   6  14
BRANCH  10  20
ATOM     20  C   UNL     1       8.174  -2.197  22.247  0.00  0.00    +0.104 C 
ATOM     21  N   UNL     1       7.801  -3.295  22.302  0.00  0.00    -0.191 NA
ENDBRANCH  10  20
BRANCH   1  22
ATOM     22  C   UNL     1       6.830   0.475  27.137  0.00  0.00    +0.139 C 
BRANCH  22  27
ATOM     23 CL   UNL     1       7.170  -5.288  25.353  0.00  0.00    -0.084 Cl
ATOM     24  C   UNL     1       7.051  -3.669  25.925  0.00  0.00    +0.041 A 
ATOM     25  C   UNL     1       8.172  -3.042  26.465  0.00  0.00    +0.020 A 
ATOM     26  C   UNL     1       8.087  -1.714  26.895  0.00  0.00    +0.006 A 
ATOM     27  C   UNL     1       6.884  -0.999  26.782  0.00  0.00    -0.030 A 
ATOM     28  C   UNL     1       5.758  -1.656  26.259  0.00  0.00    +0.006 A 
ATOM     29  C   UNL     1       5.842  -2.986  25.831  0.00  0.00    +0.020 A 
ENDBRANCH  22  27
ENDBRANCH   1  22
TORSDOF 4
ENDMDL
