MODEL 1
REMARK VINA RESULT:      -7.1      0.000      0.000
REMARK  Name = 
REMARK  13 active torsions:
REMARK  status: ('A' for Active; 'I' for Inactive)
REMARK    1  A    between atoms: C_1  and  C_2
REMARK    2  A    between atoms: C_2  and  O_3
REMARK    3  A    between atoms: O_3  and  C_4
REMARK    4  A    between atoms: C_4  and  C_6
REMARK    5  A    between atoms: C_6  and  N_7
REMARK    6  A    between atoms: N_7  and  C_8
REMARK    7  A    between atoms: C_8  and  C_10
REMARK    8  A    between atoms: C_8  and  C_31
REMARK    9  A    between atoms: C_15  and  C_17
REMARK   10  A    between atoms: N_19  and  C_20
REMARK   11  A    between atoms: C_20  and  C_21
REMARK   12  A    between atoms: C_24  and  C_27
REMARK   13  A    between atoms: N_29  and  O_30
REMARK                            x       y       z     vdW  Elec       q    Type
REMARK                         _______ _______ _______ _____ _____    ______ ____
ROOT
ATOM      1  C   UNL     1       5.385  -5.748  23.763  0.00  0.00    +0.233 C 
ATOM      2  N   UNL     1       5.669  -4.438  23.514  0.00  0.00    -0.289 N 
ATOM      3  C   UNL     1       6.589  -3.878  22.521  0.00  0.00    +0.163 C 
ATOM      4  C   UNL     1       5.667  -2.641  22.554  0.00  0.00    +0.051 C 
ATOM      5  C   UNL     1       5.087  -3.170  23.873  0.00  0.00    +0.111 C 
ATOM      6  O   UNL     1       5.973  -6.650  23.160  0.00  0.00    -0.274 OA
ENDROOT
BRANCH   3   7
ATOM      7  C   UNL     1       8.076  -3.688  23.003  0.00  0.00    +0.234 C 
ATOM      8  N   UNL     1       8.633  -2.477  22.622  0.00  0.00    -0.310 N 
ATOM      9  H   UNL     1       8.074  -1.811  22.109  0.00  0.00    +0.149 HD
ATOM     10  O   UNL     1       8.717  -4.500  23.673  0.00  0.00    -0.274 OA
BRANCH   8  11
ATOM     11  C   UNL     1       9.975  -2.087  22.994  0.00  0.00    +0.139 C 
BRANCH  11  12
ATOM     12  C   UNL     1      10.091  -0.585  23.095  0.00  0.00    -0.030 A 
ATOM     13  C   UNL     1      10.444   0.031  24.302  0.00  0.00    +0.006 A 
ATOM     14  C   UNL     1      10.577   1.422  24.377  0.00  0.00    +0.016 A 
ATOM     15  C   UNL     1      10.361   2.221  23.247  0.00  0.00    +0.069 A 
ATOM     16  C   UNL     1       9.987   1.609  22.045  0.00  0.00    +0.016 A 
ATOM     17  C   UNL     1       9.866   0.217  21.968  0.00  0.00    +0.006 A 
BRANCH  15  18
ATOM     18  C   UNL     1      10.546   3.710  23.339  0.00  0.00    +0.362 C 
ATOM     19  N   UNL     1      11.759   4.189  23.376  0.00  0.00    +0.151 NA
ATOM     20  N   UNL     1       9.449   4.541  23.362  0.00  0.00    -0.243 N 
ATOM     21  H   UNL     1       9.761   5.503  23.245  0.00  0.00    +0.289 HD
ATOM     22  H   UNL     1       8.708   4.308  22.715  0.00  0.00    +0.289 HD
BRANCH  19  23
ATOM     23  O   UNL     1      11.748   5.595  23.411  0.00  0.00    -0.311 OA
ATOM     24  H   UNL     1      11.005   5.805  22.815  0.00  0.00    +0.361 HD
ENDBRANCH  19  23
ENDBRANCH  15  18
ENDBRANCH  11  12
ENDBRANCH   8  11
ENDBRANCH   3   7
BRANCH   1  25
ATOM     25  C   UNL     1       4.251  -6.102  24.771  0.00  0.00    +0.144 C 
BRANCH  25  26
ATOM     26  C   UNL     1       3.130  -7.025  24.204  0.00  0.00    +0.015 C 
ATOM     27  C   UNL     1       2.405  -6.468  22.960  0.00  0.00    +0.005 C 
ATOM     28  C   UNL     1       1.425  -5.335  23.256  0.00  0.00    +0.000 C 
ATOM     29  C   UNL     1       0.454  -5.650  24.390  0.00  0.00    +0.000 C 
ATOM     30  C   UNL     1       1.154  -6.206  25.624  0.00  0.00    +0.000 C 
ATOM     31  C   UNL     1       2.055  -7.387  25.261  0.00  0.00    +0.005 C 
ENDBRANCH  25  26
BRANCH  25  32
ATOM     32  N   UNL     1       4.829  -6.726  25.986  0.00  0.00    -0.296 NA
ATOM     33  H   UNL     1       4.180  -7.413  26.371  0.00  0.00    +0.123 HD
BRANCH  32  34
ATOM     34  C   UNL     1       5.126  -5.765  27.064  0.00  0.00    +0.203 C 
BRANCH  34  35
ATOM     35  C   UNL     1       6.603  -5.368  26.995  0.00  0.00    +0.321 C 
ATOM     36  O   UNL     1       7.502  -6.070  26.544  0.00  0.00    -0.249 OA
BRANCH  35  37
ATOM     37  O   UNL     1       6.783  -4.176  27.633  0.00  0.00    -0.464 OA
BRANCH  37  39
ATOM     38  C   UNL     1       8.094  -2.518  26.507  0.00  0.00    +0.048 C 
ATOM     39  C   UNL     1       6.689  -3.021  26.787  0.00  0.00    +0.229 C 
ENDBRANCH  37  39
ENDBRANCH  35  37
ENDBRANCH  34  35
ENDBRANCH  32  34
ENDBRANCH  25  32
ENDBRANCH   1  25
TORSDOF 12
ENDMDL
MODEL 2
REMARK VINA RESULT:      -7.1      1.856      3.610
REMARK  Name = 
REMARK  13 active torsions:
REMARK  status: ('A' for Active; 'I' for Inactive)
REMARK    1  A    between atoms: C_1  and  C_2
REMARK    2  A    between atoms: C_2  and  O_3
REMARK    3  A    between atoms: O_3  and  C_4
REMARK    4  A    between atoms: C_4  and  C_6
REMARK    5  A    between atoms: C_6  and  N_7
REMARK    6  A    between atoms: N_7  and  C_8
REMARK    7  A    between atoms: C_8  and  C_10
REMARK    8  A    between atoms: C_8  and  C_31
REMARK    9  A    between atoms: C_15  and  C_17
REMARK   10  A    between atoms: N_19  and  C_20
REMARK   11  A    between atoms: C_20  and  C_21
REMARK   12  A    between atoms: C_24  and  C_27
REMARK   13  A    between atoms: N_29  and  O_30
REMARK                            x       y       z     vdW  Elec       q    Type
REMARK                         _______ _______ _______ _____ _____    ______ ____
ROOT
ATOM      1  C   UNL     1       5.829  -3.404  25.789  0.00  0.00    +0.233 C 
ATOM      2  N   UNL     1       6.963  -4.156  25.882  0.00  0.00    -0.289 N 
ATOM      3  C   UNL     1       8.342  -3.704  26.084  0.00  0.00    +0.163 C 
ATOM      4  C   UNL     1       8.563  -5.086  26.733  0.00  0.00    +0.051 C 
ATOM      5  C   UNL     1       7.262  -5.553  26.067  0.00  0.00    +0.111 C 
ATOM      6  O   UNL     1       5.882  -2.172  25.811  0.00  0.00    -0.274 OA
ENDROOT
BRANCH   3   7
ATOM      7  C   UNL     1       9.150  -3.381  24.771  0.00  0.00    +0.234 C 
ATOM      8  N   UNL     1       8.684  -2.265  24.093  0.00  0.00    -0.310 N 
ATOM      9  H   UNL     1       7.913  -1.737  24.473  0.00  0.00    +0.149 HD
ATOM     10  O   UNL     1      10.122  -4.017  24.359  0.00  0.00    -0.274 OA
BRANCH   8  11
ATOM     11  C   UNL     1       9.309  -1.774  22.885  0.00  0.00    +0.139 C 
BRANCH  11  12
ATOM     12  C   UNL     1       9.661  -0.312  23.016  0.00  0.00    -0.030 A 
ATOM     13  C   UNL     1       9.985   0.243  24.260  0.00  0.00    +0.006 A 
ATOM     14  C   UNL     1      10.336   1.593  24.367  0.00  0.00    +0.016 A 
ATOM     15  C   UNL     1      10.372   2.412  23.231  0.00  0.00    +0.069 A 
ATOM     16  C   UNL     1      10.028   1.865  21.989  0.00  0.00    +0.016 A 
ATOM     17  C   UNL     1       9.688   0.512  21.882  0.00  0.00    +0.006 A 
BRANCH  15  18
ATOM     18  C   UNL     1      10.790   3.850  23.361  0.00  0.00    +0.362 C 
ATOM     19  N   UNL     1      12.061   4.140  23.312  0.00  0.00    +0.151 NA
ATOM     20  N   UNL     1       9.838   4.834  23.506  0.00  0.00    -0.243 N 
ATOM     21  H   UNL     1      10.283   5.743  23.397  0.00  0.00    +0.289 HD
ATOM     22  H   UNL     1       9.022   4.746  22.915  0.00  0.00    +0.289 HD
BRANCH  19  23
ATOM     23  O   UNL     1      12.268   5.528  23.398  0.00  0.00    -0.311 OA
ATOM     24  H   UNL     1      13.014   5.582  24.024  0.00  0.00    +0.361 HD
ENDBRANCH  19  23
ENDBRANCH  15  18
ENDBRANCH  11  12
ENDBRANCH   8  11
ENDBRANCH   3   7
BRANCH   1  25
ATOM     25  C   UNL     1       4.446  -4.118  25.728  0.00  0.00    +0.144 C 
BRANCH  25  26
ATOM     26  C   UNL     1       3.504  -3.835  26.938  0.00  0.00    +0.015 C 
ATOM     27  C   UNL     1       4.127  -4.126  28.320  0.00  0.00    +0.005 C 
ATOM     28  C   UNL     1       4.241  -5.610  28.661  0.00  0.00    +0.000 C 
ATOM     29  C   UNL     1       2.946  -6.386  28.443  0.00  0.00    +0.000 C 
ATOM     30  C   UNL     1       2.316  -6.106  27.084  0.00  0.00    +0.000 C 
ATOM     31  C   UNL     1       2.161  -4.603  26.848  0.00  0.00    +0.005 C 
ENDBRANCH  25  26
BRANCH  25  32
ATOM     32  N   UNL     1       3.746  -3.761  24.470  0.00  0.00    -0.296 NA
ATOM     33  H   UNL     1       2.765  -3.552  24.661  0.00  0.00    +0.123 HD
BRANCH  32  34
ATOM     34  C   UNL     1       3.767  -4.828  23.453  0.00  0.00    +0.203 C 
BRANCH  34  35
ATOM     35  C   UNL     1       4.831  -4.504  22.402  0.00  0.00    +0.321 C 
ATOM     36  O   UNL     1       5.205  -3.375  22.100  0.00  0.00    -0.249 OA
BRANCH  35  37
ATOM     37  O   UNL     1       5.200  -5.649  21.760  0.00  0.00    -0.464 OA
BRANCH  37  39
ATOM     38  C   UNL     1       7.486  -5.912  22.422  0.00  0.00    +0.048 C 
ATOM     39  C   UNL     1       6.545  -5.652  21.259  0.00  0.00    +0.229 C 
ENDBRANCH  37  39
ENDBRANCH  35  37
ENDBRANCH  34  35
ENDBRANCH  32  34
ENDBRANCH  25  32
ENDBRANCH   1  25
TORSDOF 12
ENDMDL
MODEL 3
REMARK VINA RESULT:      -7.1      3.002      4.595
REMARK  Name = 
REMARK  13 active torsions:
REMARK  status: ('A' for Active; 'I' for Inactive)
REMARK    1  A    between atoms: C_1  and  C_2
REMARK    2  A    between atoms: C_2  and  O_3
REMARK    3  A    between atoms: O_3  and  C_4
REMARK    4  A    between atoms: C_4  and  C_6
REMARK    5  A    between atoms: C_6  and  N_7
REMARK    6  A    between atoms: N_7  and  C_8
REMARK    7  A    between atoms: C_8  and  C_10
REMARK    8  A    between atoms: C_8  and  C_31
REMARK    9  A    between atoms: C_15  and  C_17
REMARK   10  A    between atoms: N_19  and  C_20
REMARK   11  A    between atoms: C_20  and  C_21
REMARK   12  A    between atoms: C_24  and  C_27
REMARK   13  A    between atoms: N_29  and  O_30
REMARK                            x       y       z     vdW  Elec       q    Type
REMARK                         _______ _______ _______ _____ _____    ______ ____
ROOT
ATOM      1  C   UNL     1       8.280  -3.116  24.581  0.00  0.00    +0.233 C 
ATOM      2  N   UNL     1       8.659  -2.213  23.632  0.00  0.00    -0.289 N 
ATOM      3  C   UNL     1       9.970  -1.587  23.442  0.00  0.00    +0.163 C 
ATOM      4  C   UNL     1       9.560  -1.479  21.958  0.00  0.00    +0.051 C 
ATOM      5  C   UNL     1       8.109  -1.727  22.393  0.00  0.00    +0.111 C 
ATOM      6  O   UNL     1       9.060  -3.465  25.471  0.00  0.00    -0.274 OA
ENDROOT
BRANCH   3   7
ATOM      7  C   UNL     1      10.201  -0.243  24.230  0.00  0.00    +0.234 C 
ATOM      8  N   UNL     1      10.523   0.831  23.414  0.00  0.00    -0.310 N 
ATOM      9  H   UNL     1      10.562   0.703  22.414  0.00  0.00    +0.149 HD
ATOM     10  O   UNL     1      10.097  -0.107  25.451  0.00  0.00    -0.274 OA
BRANCH   8  11
ATOM     11  C   UNL     1      10.738   2.163  23.933  0.00  0.00    +0.139 C 
BRANCH  11  12
ATOM     12  C   UNL     1       9.632   3.095  23.501  0.00  0.00    -0.030 A 
ATOM     13  C   UNL     1       9.595   4.424  23.940  0.00  0.00    +0.006 A 
ATOM     14  C   UNL     1       8.581   5.287  23.512  0.00  0.00    +0.016 A 
ATOM     15  C   UNL     1       7.586   4.837  22.634  0.00  0.00    +0.069 A 
ATOM     16  C   UNL     1       7.608   3.503  22.210  0.00  0.00    +0.016 A 
ATOM     17  C   UNL     1       8.630   2.644  22.630  0.00  0.00    +0.006 A 
BRANCH  15  18
ATOM     18  C   UNL     1       6.527   5.790  22.154  0.00  0.00    +0.362 C 
ATOM     19  N   UNL     1       5.298   5.615  22.557  0.00  0.00    +0.151 NA
ATOM     20  N   UNL     1       6.865   6.835  21.324  0.00  0.00    -0.243 N 
ATOM     21  H   UNL     1       6.071   7.468  21.251  0.00  0.00    +0.289 HD
ATOM     22  H   UNL     1       7.714   7.328  21.563  0.00  0.00    +0.289 HD
BRANCH  19  23
ATOM     23  O   UNL     1       4.453   6.620  22.056  0.00  0.00    -0.311 OA
ATOM     24  H   UNL     1       3.672   6.534  22.634  0.00  0.00    +0.361 HD
ENDBRANCH  19  23
ENDBRANCH  15  18
ENDBRANCH  11  12
ENDBRANCH   8  11
ENDBRANCH   3   7
BRANCH   1  25
ATOM     25  C   UNL     1       6.866  -3.763  24.492  0.00  0.00    +0.144 C 
BRANCH  25  26
ATOM     26  C   UNL     1       6.862  -5.305  24.264  0.00  0.00    +0.015 C 
ATOM     27  C   UNL     1       7.784  -5.790  23.125  0.00  0.00    +0.005 C 
ATOM     28  C   UNL     1       7.256  -5.506  21.721  0.00  0.00    +0.000 C 
ATOM     29  C   UNL     1       5.810  -5.948  21.513  0.00  0.00    +0.000 C 
ATOM     30  C   UNL     1       4.887  -5.482  22.632  0.00  0.00    +0.000 C 
ATOM     31  C   UNL     1       5.442  -5.871  24.002  0.00  0.00    +0.005 C 
ENDBRANCH  25  26
BRANCH  25  32
ATOM     32  N   UNL     1       6.087  -3.449  25.715  0.00  0.00    -0.296 NA
ATOM     33  H   UNL     1       5.091  -3.600  25.546  0.00  0.00    +0.123 HD
BRANCH  32  34
ATOM     34  C   UNL     1       6.236  -2.055  26.173  0.00  0.00    +0.203 C 
BRANCH  34  35
ATOM     35  C   UNL     1       4.979  -1.264  25.805  0.00  0.00    +0.321 C 
ATOM     36  O   UNL     1       3.834  -1.573  26.116  0.00  0.00    -0.249 OA
BRANCH  35  37
ATOM     37  O   UNL     1       5.315  -0.242  24.967  0.00  0.00    -0.464 OA
BRANCH  37  39
ATOM     38  C   UNL     1       6.495   1.756  25.555  0.00  0.00    +0.048 C 
ATOM     39  C   UNL     1       6.630   0.295  25.169  0.00  0.00    +0.229 C 
ENDBRANCH  37  39
ENDBRANCH  35  37
ENDBRANCH  34  35
ENDBRANCH  32  34
ENDBRANCH  25  32
ENDBRANCH   1  25
TORSDOF 12
ENDMDL
MODEL 4
REMARK VINA RESULT:      -7.0      3.015      8.888
REMARK  Name = 
REMARK  13 active torsions:
REMARK  status: ('A' for Active; 'I' for Inactive)
REMARK    1  A    between atoms: C_1  and  C_2
REMARK    2  A    between atoms: C_2  and  O_3
REMARK    3  A    between atoms: O_3  and  C_4
REMARK    4  A    between atoms: C_4  and  C_6
REMARK    5  A    between atoms: C_6  and  N_7
REMARK    6  A    between atoms: N_7  and  C_8
REMARK    7  A    between atoms: C_8  and  C_10
REMARK    8  A    between atoms: C_8  and  C_31
REMARK    9  A    between atoms: C_15  and  C_17
REMARK   10  A    between atoms: N_19  and  C_20
REMARK   11  A    between atoms: C_20  and  C_21
REMARK   12  A    between atoms: C_24  and  C_27
REMARK   13  A    between atoms: N_29  and  O_30
REMARK                            x       y       z     vdW  Elec       q    Type
REMARK                         _______ _______ _______ _____ _____    ______ ____
ROOT
ATOM      1  C   UNL     1       7.228  -0.947  23.405  0.00  0.00    +0.233 C 
ATOM      2  N   UNL     1       8.504  -1.348  23.670  0.00  0.00    -0.289 N 
ATOM      3  C   UNL     1       9.148  -2.620  23.334  0.00  0.00    +0.163 C 
ATOM      4  C   UNL     1      10.461  -1.808  23.338  0.00  0.00    +0.051 C 
ATOM      5  C   UNL     1       9.718  -0.704  24.104  0.00  0.00    +0.111 C 
ATOM      6  O   UNL     1       6.424  -1.710  22.864  0.00  0.00    -0.274 OA
ENDROOT
BRANCH   3   7
ATOM      7  C   UNL     1       8.998  -3.762  24.408  0.00  0.00    +0.234 C 
ATOM      8  N   UNL     1       7.717  -3.870  24.928  0.00  0.00    -0.310 N 
ATOM      9  H   UNL     1       6.988  -3.262  24.587  0.00  0.00    +0.149 HD
ATOM     10  O   UNL     1       9.898  -4.524  24.767  0.00  0.00    -0.274 OA
BRANCH   8  11
ATOM     11  C   UNL     1       7.356  -4.880  25.899  0.00  0.00    +0.139 C 
BRANCH  11  12
ATOM     12  C   UNL     1       6.123  -5.633  25.460  0.00  0.00    -0.030 A 
ATOM     13  C   UNL     1       5.721  -5.638  24.118  0.00  0.00    +0.006 A 
ATOM     14  C   UNL     1       4.593  -6.362  23.718  0.00  0.00    +0.016 A 
ATOM     15  C   UNL     1       3.848  -7.095  24.650  0.00  0.00    +0.069 A 
ATOM     16  C   UNL     1       4.236  -7.074  25.995  0.00  0.00    +0.016 A 
ATOM     17  C   UNL     1       5.371  -6.359  26.393  0.00  0.00    +0.006 A 
BRANCH  15  18
ATOM     18  C   UNL     1       2.662  -7.897  24.193  0.00  0.00    +0.362 C 
ATOM     19  N   UNL     1       2.256  -8.893  24.933  0.00  0.00    +0.151 NA
ATOM     20  N   UNL     1       2.012  -7.564  23.026  0.00  0.00    -0.243 N 
ATOM     21  H   UNL     1       1.143  -8.089  22.971  0.00  0.00    +0.289 HD
ATOM     22  H   UNL     1       1.861  -6.576  22.875  0.00  0.00    +0.289 HD
BRANCH  19  23
ATOM     23  O   UNL     1       1.112  -9.498  24.385  0.00  0.00    -0.311 OA
ATOM     24  H   UNL     1       1.477  -9.945  23.599  0.00  0.00    +0.361 HD
ENDBRANCH  19  23
ENDBRANCH  15  18
ENDBRANCH  11  12
ENDBRANCH   8  11
ENDBRANCH   3   7
BRANCH   1  25
ATOM     25  C   UNL     1       6.810   0.519  23.725  0.00  0.00    +0.144 C 
BRANCH  25  26
ATOM     26  C   UNL     1       6.785   1.480  22.497  0.00  0.00    +0.015 C 
ATOM     27  C   UNL     1       8.165   1.741  21.857  0.00  0.00    +0.005 C 
ATOM     28  C   UNL     1       9.069   2.672  22.661  0.00  0.00    +0.000 C 
ATOM     29  C   UNL     1       8.383   3.966  23.089  0.00  0.00    +0.000 C 
ATOM     30  C   UNL     1       7.017   3.726  23.719  0.00  0.00    +0.000 C 
ATOM     31  C   UNL     1       6.142   2.853  22.821  0.00  0.00    +0.005 C 
ENDBRANCH  25  26
BRANCH  25  32
ATOM     32  N   UNL     1       5.481   0.535  24.384  0.00  0.00    -0.296 NA
ATOM     33  H   UNL     1       4.987   1.400  24.159  0.00  0.00    +0.123 HD
BRANCH  32  34
ATOM     34  C   UNL     1       5.544   0.446  25.854  0.00  0.00    +0.203 C 
BRANCH  34  35
ATOM     35  C   UNL     1       5.326  -1.007  26.283  0.00  0.00    +0.321 C 
ATOM     36  O   UNL     1       6.191  -1.744  26.746  0.00  0.00    -0.249 OA
BRANCH  35  37
ATOM     37  O   UNL     1       4.064  -1.396  25.946  0.00  0.00    -0.464 OA
BRANCH  37  39
ATOM     38  C   UNL     1       2.995  -3.492  26.392  0.00  0.00    +0.048 C 
ATOM     39  C   UNL     1       3.954  -2.749  25.480  0.00  0.00    +0.229 C 
ENDBRANCH  37  39
ENDBRANCH  35  37
ENDBRANCH  34  35
ENDBRANCH  32  34
ENDBRANCH  25  32
ENDBRANCH   1  25
TORSDOF 12
ENDMDL
MODEL 5
REMARK VINA RESULT:      -7.0      3.575      8.266
REMARK  Name = 
REMARK  13 active torsions:
REMARK  status: ('A' for Active; 'I' for Inactive)
REMARK    1  A    between atoms: C_1  and  C_2
REMARK    2  A    between atoms: C_2  and  O_3
REMARK    3  A    between atoms: O_3  and  C_4
REMARK    4  A    between atoms: C_4  and  C_6
REMARK    5  A    between atoms: C_6  and  N_7
REMARK    6  A    between atoms: N_7  and  C_8
REMARK    7  A    between atoms: C_8  and  C_10
REMARK    8  A    between atoms: C_8  and  C_31
REMARK    9  A    between atoms: C_15  and  C_17
REMARK   10  A    between atoms: N_19  and  C_20
REMARK   11  A    between atoms: C_20  and  C_21
REMARK   12  A    between atoms: C_24  and  C_27
REMARK   13  A    between atoms: N_29  and  O_30
REMARK                            x       y       z     vdW  Elec       q    Type
REMARK                         _______ _______ _______ _____ _____    ______ ____
ROOT
ATOM      1  C   UNL     1       7.124   1.879  23.268  0.00  0.00    +0.233 C 
ATOM      2  N   UNL     1       8.366   2.265  23.681  0.00  0.00    -0.289 N 
ATOM      3  C   UNL     1       9.669   1.872  23.141  0.00  0.00    +0.163 C 
ATOM      4  C   UNL     1      10.156   3.237  23.672  0.00  0.00    +0.051 C 
ATOM      5  C   UNL     1       8.892   3.294  24.541  0.00  0.00    +0.111 C 
ATOM      6  O   UNL     1       6.988   1.050  22.365  0.00  0.00    -0.274 OA
ENDROOT
BRANCH   3   7
ATOM      7  C   UNL     1      10.306   0.578  23.775  0.00  0.00    +0.234 C 
ATOM      8  N   UNL     1       9.630  -0.588  23.450  0.00  0.00    -0.310 N 
ATOM      9  H   UNL     1       8.829  -0.547  22.838  0.00  0.00    +0.149 HD
ATOM     10  O   UNL     1      11.317   0.554  24.479  0.00  0.00    -0.274 OA
BRANCH   8  11
ATOM     11  C   UNL     1      10.071  -1.891  23.897  0.00  0.00    +0.139 C 
BRANCH  11  12
ATOM     12  C   UNL     1       9.015  -2.937  23.634  0.00  0.00    -0.030 A 
ATOM     13  C   UNL     1       8.963  -4.115  24.389  0.00  0.00    +0.006 A 
ATOM     14  C   UNL     1       7.964  -5.065  24.156  0.00  0.00    +0.016 A 
ATOM     15  C   UNL     1       6.996  -4.854  23.164  0.00  0.00    +0.069 A 
ATOM     16  C   UNL     1       7.059  -3.687  22.394  0.00  0.00    +0.016 A 
ATOM     17  C   UNL     1       8.053  -2.732  22.636  0.00  0.00    +0.006 A 
BRANCH  15  18
ATOM     18  C   UNL     1       5.907  -5.869  22.955  0.00  0.00    +0.362 C 
ATOM     19  N   UNL     1       5.263  -6.320  23.997  0.00  0.00    +0.151 NA
ATOM     20  N   UNL     1       5.592  -6.290  21.683  0.00  0.00    -0.243 N 
ATOM     21  H   UNL     1       4.729  -6.828  21.718  0.00  0.00    +0.289 HD
ATOM     22  H   UNL     1       5.551  -5.565  20.979  0.00  0.00    +0.289 HD
BRANCH  19  23
ATOM     23  O   UNL     1       4.251  -7.219  23.617  0.00  0.00    -0.311 OA
ATOM     24  H   UNL     1       3.475  -6.632  23.553  0.00  0.00    +0.361 HD
ENDBRANCH  19  23
ENDBRANCH  15  18
ENDBRANCH  11  12
ENDBRANCH   8  11
ENDBRANCH   3   7
BRANCH   1  25
ATOM     25  C   UNL     1       5.870   2.551  23.900  0.00  0.00    +0.144 C 
BRANCH  25  26
ATOM     26  C   UNL     1       5.138   3.575  22.980  0.00  0.00    +0.015 C 
ATOM     27  C   UNL     1       6.020   4.742  22.488  0.00  0.00    +0.005 C 
ATOM     28  C   UNL     1       6.322   5.798  23.549  0.00  0.00    +0.000 C 
ATOM     29  C   UNL     1       5.081   6.291  24.287  0.00  0.00    +0.000 C 
ATOM     30  C   UNL     1       4.197   5.151  24.776  0.00  0.00    +0.000 C 
ATOM     31  C   UNL     1       3.872   4.180  23.641  0.00  0.00    +0.005 C 
ENDBRANCH  25  26
BRANCH  25  32
ATOM     32  N   UNL     1       4.905   1.512  24.338  0.00  0.00    -0.296 NA
ATOM     33  H   UNL     1       3.992   1.933  24.517  0.00  0.00    +0.123 HD
BRANCH  32  34
ATOM     34  C   UNL     1       5.304   0.812  25.573  0.00  0.00    +0.203 C 
BRANCH  34  35
ATOM     35  C   UNL     1       5.726  -0.618  25.229  0.00  0.00    +0.321 C 
ATOM     36  O   UNL     1       4.959  -1.533  24.949  0.00  0.00    -0.249 OA
BRANCH  35  37
ATOM     37  O   UNL     1       7.070  -0.752  25.415  0.00  0.00    -0.464 OA
BRANCH  37  39
ATOM     38  C   UNL     1       8.817  -0.773  27.053  0.00  0.00    +0.048 C 
ATOM     39  C   UNL     1       7.450  -1.316  26.679  0.00  0.00    +0.229 C 
ENDBRANCH  37  39
ENDBRANCH  35  37
ENDBRANCH  34  35
ENDBRANCH  32  34
ENDBRANCH  25  32
ENDBRANCH   1  25
TORSDOF 12
ENDMDL
MODEL 6
REMARK VINA RESULT:      -6.9      3.205      8.461
REMARK  Name = 
REMARK  13 active torsions:
REMARK  status: ('A' for Active; 'I' for Inactive)
REMARK    1  A    between atoms: C_1  and  C_2
REMARK    2  A    between atoms: C_2  and  O_3
REMARK    3  A    between atoms: O_3  and  C_4
REMARK    4  A    between atoms: C_4  and  C_6
REMARK    5  A    between atoms: C_6  and  N_7
REMARK    6  A    between atoms: N_7  and  C_8
REMARK    7  A    between atoms: C_8  and  C_10
REMARK    8  A    between atoms: C_8  and  C_31
REMARK    9  A    between atoms: C_15  and  C_17
REMARK   10  A    between atoms: N_19  and  C_20
REMARK   11  A    between atoms: C_20  and  C_21
REMARK   12  A    between atoms: C_24  and  C_27
REMARK   13  A    between atoms: N_29  and  O_30
REMARK                            x       y       z     vdW  Elec       q    Type
REMARK                         _______ _______ _______ _____ _____    ______ ____
ROOT
ATOM      1  C   UNL     1       7.940   1.879  22.624  0.00  0.00    +0.233 C 
ATOM      2  N   UNL     1       8.809   1.182  23.410  0.00  0.00    -0.289 N 
ATOM      3  C   UNL     1      10.035   0.483  23.016  0.00  0.00    +0.163 C 
ATOM      4  C   UNL     1      10.502   0.758  24.461  0.00  0.00    +0.051 C 
ATOM      5  C   UNL     1       9.039   1.049  24.826  0.00  0.00    +0.111 C 
ATOM      6  O   UNL     1       8.097   1.936  21.402  0.00  0.00    -0.274 OA
ENDROOT
BRANCH   3   7
ATOM      7  C   UNL     1       9.852  -1.020  22.586  0.00  0.00    +0.234 C 
ATOM      8  N   UNL     1       8.530  -1.437  22.571  0.00  0.00    -0.310 N 
ATOM      9  H   UNL     1       7.798  -0.781  22.799  0.00  0.00    +0.149 HD
ATOM     10  O   UNL     1      10.764  -1.785  22.263  0.00  0.00    -0.274 OA
BRANCH   8  11
ATOM     11  C   UNL     1       8.140  -2.770  22.168  0.00  0.00    +0.139 C 
BRANCH  11  12
ATOM     12  C   UNL     1       7.754  -3.604  23.366  0.00  0.00    -0.030 A 
ATOM     13  C   UNL     1       8.567  -3.649  24.505  0.00  0.00    +0.006 A 
ATOM     14  C   UNL     1       8.186  -4.403  25.621  0.00  0.00    +0.016 A 
ATOM     15  C   UNL     1       6.984  -5.123  25.618  0.00  0.00    +0.069 A 
ATOM     16  C   UNL     1       6.181  -5.096  24.473  0.00  0.00    +0.016 A 
ATOM     17  C   UNL     1       6.557  -4.333  23.362  0.00  0.00    +0.006 A 
BRANCH  15  18
ATOM     18  C   UNL     1       6.575  -5.896  26.841  0.00  0.00    +0.362 C 
ATOM     19  N   UNL     1       7.314  -5.809  27.913  0.00  0.00    +0.151 NA
ATOM     20  N   UNL     1       5.429  -6.658  26.823  0.00  0.00    -0.243 N 
ATOM     21  H   UNL     1       5.216  -6.956  27.773  0.00  0.00    +0.289 HD
ATOM     22  H   UNL     1       4.627  -6.234  26.377  0.00  0.00    +0.289 HD
BRANCH  19  23
ATOM     23  O   UNL     1       6.760  -6.551  28.971  0.00  0.00    -0.311 OA
ATOM     24  H   UNL     1       6.652  -7.431  28.566  0.00  0.00    +0.361 HD
ENDBRANCH  19  23
ENDBRANCH  15  18
ENDBRANCH  11  12
ENDBRANCH   8  11
ENDBRANCH   3   7
BRANCH   1  25
ATOM     25  C   UNL     1       6.778   2.672  23.293  0.00  0.00    +0.144 C 
BRANCH  25  26
ATOM     26  C   UNL     1       6.319   3.946  22.520  0.00  0.00    +0.015 C 
ATOM     27  C   UNL     1       7.355   5.090  22.495  0.00  0.00    +0.005 C 
ATOM     28  C   UNL     1       7.492   5.849  23.813  0.00  0.00    +0.000 C 
ATOM     29  C   UNL     1       6.157   6.299  24.397  0.00  0.00    +0.000 C 
ATOM     30  C   UNL     1       5.121   5.182  24.425  0.00  0.00    +0.000 C 
ATOM     31  C   UNL     1       4.983   4.524  23.053  0.00  0.00    +0.005 C 
ENDBRANCH  25  26
BRANCH  25  32
ATOM     32  N   UNL     1       5.610   1.781  23.501  0.00  0.00    -0.296 NA
ATOM     33  H   UNL     1       4.756   2.238  23.178  0.00  0.00    +0.123 HD
BRANCH  32  34
ATOM     34  C   UNL     1       5.390   1.408  24.911  0.00  0.00    +0.203 C 
BRANCH  34  35
ATOM     35  C   UNL     1       5.635  -0.093  25.081  0.00  0.00    +0.321 C 
ATOM     36  O   UNL     1       5.988  -0.856  24.189  0.00  0.00    -0.249 OA
BRANCH  35  37
ATOM     37  O   UNL     1       5.271  -0.473  26.339  0.00  0.00    -0.464 OA
BRANCH  37  39
ATOM     38  C   UNL     1       4.807  -2.631  27.267  0.00  0.00    +0.048 C 
ATOM     39  C   UNL     1       5.895  -1.676  26.809  0.00  0.00    +0.229 C 
ENDBRANCH  37  39
ENDBRANCH  35  37
ENDBRANCH  34  35
ENDBRANCH  32  34
ENDBRANCH  25  32
ENDBRANCH   1  25
TORSDOF 12
ENDMDL
MODEL 7
REMARK VINA RESULT:      -6.9      2.241      2.859
REMARK  Name = 
REMARK  13 active torsions:
REMARK  status: ('A' for Active; 'I' for Inactive)
REMARK    1  A    between atoms: C_1  and  C_2
REMARK    2  A    between atoms: C_2  and  O_3
REMARK    3  A    between atoms: O_3  and  C_4
REMARK    4  A    between atoms: C_4  and  C_6
REMARK    5  A    between atoms: C_6  and  N_7
REMARK    6  A    between atoms: N_7  and  C_8
REMARK    7  A    between atoms: C_8  and  C_10
REMARK    8  A    between atoms: C_8  and  C_31
REMARK    9  A    between atoms: C_15  and  C_17
REMARK   10  A    between atoms: N_19  and  C_20
REMARK   11  A    between atoms: C_20  and  C_21
REMARK   12  A    between atoms: C_24  and  C_27
REMARK   13  A    between atoms: N_29  and  O_30
REMARK                            x       y       z     vdW  Elec       q    Type
REMARK                         _______ _______ _______ _____ _____    ______ ____
ROOT
ATOM      1  C   UNL     1       6.241  -4.567  25.171  0.00  0.00    +0.233 C 
ATOM      2  N   UNL     1       6.563  -3.907  24.021  0.00  0.00    -0.289 N 
ATOM      3  C   UNL     1       7.829  -3.924  23.285  0.00  0.00    +0.163 C 
ATOM      4  C   UNL     1       6.964  -3.616  22.046  0.00  0.00    +0.051 C 
ATOM      5  C   UNL     1       5.834  -3.202  22.998  0.00  0.00    +0.111 C 
ATOM      6  O   UNL     1       7.081  -5.244  25.769  0.00  0.00    -0.274 OA
ENDROOT
BRANCH   3   7
ATOM      7  C   UNL     1       8.884  -2.840  23.723  0.00  0.00    +0.234 C 
ATOM      8  N   UNL     1       9.505  -2.208  22.656  0.00  0.00    -0.310 N 
ATOM      9  H   UNL     1       9.241  -2.447  21.712  0.00  0.00    +0.149 HD
ATOM     10  O   UNL     1       9.150  -2.533  24.887  0.00  0.00    -0.274 OA
BRANCH   8  11
ATOM     11  C   UNL     1      10.479  -1.153  22.838  0.00  0.00    +0.139 C 
BRANCH  11  12
ATOM     12  C   UNL     1       9.826   0.205  22.744  0.00  0.00    -0.030 A 
ATOM     13  C   UNL     1       8.985   0.527  21.672  0.00  0.00    +0.006 A 
ATOM     14  C   UNL     1       8.363   1.778  21.608  0.00  0.00    +0.016 A 
ATOM     15  C   UNL     1       8.569   2.730  22.616  0.00  0.00    +0.069 A 
ATOM     16  C   UNL     1       9.426   2.417  23.678  0.00  0.00    +0.016 A 
ATOM     17  C   UNL     1      10.038   1.161  23.747  0.00  0.00    +0.006 A 
BRANCH  15  18
ATOM     18  C   UNL     1       7.861   4.054  22.549  0.00  0.00    +0.362 C 
ATOM     19  N   UNL     1       6.606   4.076  22.191  0.00  0.00    +0.151 NA
ATOM     20  N   UNL     1       8.529   5.210  22.883  0.00  0.00    -0.243 N 
ATOM     21  H   UNL     1       7.856   5.971  22.954  0.00  0.00    +0.289 HD
ATOM     22  H   UNL     1       9.118   5.156  23.703  0.00  0.00    +0.289 HD
BRANCH  19  23
ATOM     23  O   UNL     1       6.091   5.383  22.231  0.00  0.00    -0.311 OA
ATOM     24  H   UNL     1       6.317   5.716  21.343  0.00  0.00    +0.361 HD
ENDBRANCH  19  23
ENDBRANCH  15  18
ENDBRANCH  11  12
ENDBRANCH   8  11
ENDBRANCH   3   7
BRANCH   1  25
ATOM     25  C   UNL     1       4.773  -4.517  25.690  0.00  0.00    +0.144 C 
BRANCH  25  26
ATOM     26  C   UNL     1       3.994  -5.864  25.591  0.00  0.00    +0.015 C 
ATOM     27  C   UNL     1       4.174  -6.614  24.254  0.00  0.00    +0.005 C 
ATOM     28  C   UNL     1       3.414  -6.003  23.080  0.00  0.00    +0.000 C 
ATOM     29  C   UNL     1       1.946  -5.722  23.385  0.00  0.00    +0.000 C 
ATOM     30  C   UNL     1       1.751  -4.986  24.704  0.00  0.00    +0.000 C 
ATOM     31  C   UNL     1       2.474  -5.700  25.846  0.00  0.00    +0.005 C 
ENDBRANCH  25  26
BRANCH  25  32
ATOM     32  N   UNL     1       4.748  -4.041  27.094  0.00  0.00    -0.296 NA
ATOM     33  H   UNL     1       3.835  -4.225  27.512  0.00  0.00    +0.123 HD
BRANCH  32  34
ATOM     34  C   UNL     1       5.000  -2.595  27.237  0.00  0.00    +0.203 C 
BRANCH  34  35
ATOM     35  C   UNL     1       3.980  -1.819  26.399  0.00  0.00    +0.321 C 
ATOM     36  O   UNL     1       2.764  -1.972  26.448  0.00  0.00    -0.249 OA
BRANCH  35  37
ATOM     37  O   UNL     1       4.635  -1.034  25.498  0.00  0.00    -0.464 OA
BRANCH  37  39
ATOM     38  C   UNL     1       6.619   0.031  24.682  0.00  0.00    +0.048 C 
ATOM     39  C   UNL     1       6.003  -0.752  25.828  0.00  0.00    +0.229 C 
ENDBRANCH  37  39
ENDBRANCH  35  37
ENDBRANCH  34  35
ENDBRANCH  32  34
ENDBRANCH  25  32
ENDBRANCH   1  25
TORSDOF 12
ENDMDL
MODEL 8
REMARK VINA RESULT:      -6.8      2.742      4.852
REMARK  Name = 
REMARK  13 active torsions:
REMARK  status: ('A' for Active; 'I' for Inactive)
REMARK    1  A    between atoms: C_1  and  C_2
REMARK    2  A    between atoms: C_2  and  O_3
REMARK    3  A    between atoms: O_3  and  C_4
REMARK    4  A    between atoms: C_4  and  C_6
REMARK    5  A    between atoms: C_6  and  N_7
REMARK    6  A    between atoms: N_7  and  C_8
REMARK    7  A    between atoms: C_8  and  C_10
REMARK    8  A    between atoms: C_8  and  C_31
REMARK    9  A    between atoms: C_15  and  C_17
REMARK   10  A    between atoms: N_19  and  C_20
REMARK   11  A    between atoms: C_20  and  C_21
REMARK   12  A    between atoms: C_24  and  C_27
REMARK   13  A    between atoms: N_29  and  O_30
REMARK                            x       y       z     vdW  Elec       q    Type
REMARK                         _______ _______ _______ _____ _____    ______ ____
ROOT
ATOM      1  C   UNL     1       7.641  -2.184  26.114  0.00  0.00    +0.233 C 
ATOM      2  N   UNL     1       7.847  -2.686  24.863  0.00  0.00    -0.289 N 
ATOM      3  C   UNL     1       9.106  -3.108  24.245  0.00  0.00    +0.163 C 
ATOM      4  C   UNL     1       8.227  -4.054  23.402  0.00  0.00    +0.051 C 
ATOM      5  C   UNL     1       7.012  -3.212  23.813  0.00  0.00    +0.111 C 
ATOM      6  O   UNL     1       8.589  -1.970  26.874  0.00  0.00    -0.274 OA
ENDROOT
BRANCH   3   7
ATOM      7  C   UNL     1       9.899  -1.981  23.482  0.00  0.00    +0.234 C 
ATOM      8  N   UNL     1      10.023  -0.804  24.203  0.00  0.00    -0.310 N 
ATOM      9  H   UNL     1       9.643  -0.748  25.136  0.00  0.00    +0.149 HD
ATOM     10  O   UNL     1      10.398  -2.096  22.361  0.00  0.00    -0.274 OA
BRANCH   8  11
ATOM     11  C   UNL     1      10.748   0.343  23.700  0.00  0.00    +0.139 C 
BRANCH  11  12
ATOM     12  C   UNL     1       9.800   1.454  23.319  0.00  0.00    -0.030 A 
ATOM     13  C   UNL     1       8.929   1.318  22.232  0.00  0.00    +0.006 A 
ATOM     14  C   UNL     1       8.035   2.343  21.904  0.00  0.00    +0.016 A 
ATOM     15  C   UNL     1       7.995   3.523  22.659  0.00  0.00    +0.069 A 
ATOM     16  C   UNL     1       8.880   3.670  23.733  0.00  0.00    +0.016 A 
ATOM     17  C   UNL     1       9.765   2.639  24.068  0.00  0.00    +0.006 A 
BRANCH  15  18
ATOM     18  C   UNL     1       7.001   4.596  22.314  0.00  0.00    +0.362 C 
ATOM     19  N   UNL     1       5.758   4.438  22.678  0.00  0.00    +0.151 NA
ATOM     20  N   UNL     1       7.412   5.727  21.646  0.00  0.00    -0.243 N 
ATOM     21  H   UNL     1       6.658   6.410  21.659  0.00  0.00    +0.289 HD
ATOM     22  H   UNL     1       8.284   6.130  21.960  0.00  0.00    +0.289 HD
BRANCH  19  23
ATOM     23  O   UNL     1       4.980   5.554  22.320  0.00  0.00    -0.311 OA
ATOM     24  H   UNL     1       4.265   5.143  21.800  0.00  0.00    +0.361 HD
ENDBRANCH  19  23
ENDBRANCH  15  18
ENDBRANCH  11  12
ENDBRANCH   8  11
ENDBRANCH   3   7
BRANCH   1  25
ATOM     25  C   UNL     1       6.183  -1.948  26.608  0.00  0.00    +0.144 C 
BRANCH  25  26
ATOM     26  C   UNL     1       5.386  -0.868  25.816  0.00  0.00    +0.015 C 
ATOM     27  C   UNL     1       6.262   0.189  25.111  0.00  0.00    +0.005 C 
ATOM     28  C   UNL     1       6.879   1.225  26.047  0.00  0.00    +0.000 C 
ATOM     29  C   UNL     1       5.872   1.861  27.000  0.00  0.00    +0.000 C 
ATOM     30  C   UNL     1       4.996   0.831  27.701  0.00  0.00    +0.000 C 
ATOM     31  C   UNL     1       4.350  -0.120  26.694  0.00  0.00    +0.005 C 
ENDBRANCH  25  26
BRANCH  25  32
ATOM     32  N   UNL     1       5.428  -3.225  26.587  0.00  0.00    -0.296 NA
ATOM     33  H   UNL     1       4.425  -3.040  26.556  0.00  0.00    +0.123 HD
BRANCH  32  34
ATOM     34  C   UNL     1       5.671  -4.079  27.764  0.00  0.00    +0.203 C 
BRANCH  34  35
ATOM     35  C   UNL     1       6.396  -5.353  27.324  0.00  0.00    +0.321 C 
ATOM     36  O   UNL     1       7.291  -5.908  27.952  0.00  0.00    -0.249 OA
BRANCH  35  37
ATOM     37  O   UNL     1       5.989  -5.697  26.069  0.00  0.00    -0.464 OA
BRANCH  37  39
ATOM     38  C   UNL     1       4.530  -6.875  24.579  0.00  0.00    +0.048 C 
ATOM     39  C   UNL     1       4.967  -6.704  26.023  0.00  0.00    +0.229 C 
ENDBRANCH  37  39
ENDBRANCH  35  37
ENDBRANCH  34  35
ENDBRANCH  32  34
ENDBRANCH  25  32
ENDBRANCH   1  25
TORSDOF 12
ENDMDL
MODEL 9
REMARK VINA RESULT:      -6.7      3.175      6.518
REMARK  Name = 
REMARK  13 active torsions:
REMARK  status: ('A' for Active; 'I' for Inactive)
REMARK    1  A    between atoms: C_1  and  C_2
REMARK    2  A    between atoms: C_2  and  O_3
REMARK    3  A    between atoms: O_3  and  C_4
REMARK    4  A    between atoms: C_4  and  C_6
REMARK    5  A    between atoms: C_6  and  N_7
REMARK    6  A    between atoms: N_7  and  C_8
REMARK    7  A    between atoms: C_8  and  C_10
REMARK    8  A    between atoms: C_8  and  C_31
REMARK    9  A    between atoms: C_15  and  C_17
REMARK   10  A    between atoms: N_19  and  C_20
REMARK   11  A    between atoms: C_20  and  C_21
REMARK   12  A    between atoms: C_24  and  C_27
REMARK   13  A    between atoms: N_29  and  O_30
REMARK                            x       y       z     vdW  Elec       q    Type
REMARK                         _______ _______ _______ _____ _____    ______ ____
ROOT
ATOM      1  C   UNL     1       6.762  -0.170  24.998  0.00  0.00    +0.233 C 
ATOM      2  N   UNL     1       6.868   0.393  26.236  0.00  0.00    -0.289 N 
ATOM      3  C   UNL     1       6.003   1.397  26.858  0.00  0.00    +0.163 C 
ATOM      4  C   UNL     1       6.454   0.771  28.194  0.00  0.00    +0.051 C 
ATOM      5  C   UNL     1       7.613   0.109  27.436  0.00  0.00    +0.111 C 
ATOM      6  O   UNL     1       5.886   0.196  24.210  0.00  0.00    -0.274 OA
ENDROOT
BRANCH   3   7
ATOM      7  C   UNL     1       6.401   2.897  26.589  0.00  0.00    +0.234 C 
ATOM      8  N   UNL     1       6.165   3.308  25.286  0.00  0.00    -0.310 N 
ATOM      9  H   UNL     1       5.750   2.666  24.628  0.00  0.00    +0.149 HD
ATOM     10  O   UNL     1       6.859   3.674  27.429  0.00  0.00    -0.274 OA
BRANCH   8  11
ATOM     11  C   UNL     1       6.425   4.659  24.839  0.00  0.00    +0.139 C 
BRANCH  11  12
ATOM     12  C   UNL     1       7.904   4.887  24.643  0.00  0.00    -0.030 A 
ATOM     13  C   UNL     1       8.701   3.935  23.996  0.00  0.00    +0.006 A 
ATOM     14  C   UNL     1      10.065   4.167  23.795  0.00  0.00    +0.016 A 
ATOM     15  C   UNL     1      10.658   5.359  24.235  0.00  0.00    +0.069 A 
ATOM     16  C   UNL     1       9.868   6.303  24.900  0.00  0.00    +0.016 A 
ATOM     17  C   UNL     1       8.500   6.074  25.091  0.00  0.00    +0.006 A 
BRANCH  15  18
ATOM     18  C   UNL     1      12.117   5.607  23.975  0.00  0.00    +0.362 C 
ATOM     19  N   UNL     1      12.760   4.792  23.183  0.00  0.00    +0.151 NA
ATOM     20  N   UNL     1      12.746   6.689  24.548  0.00  0.00    -0.243 N 
ATOM     21  H   UNL     1      13.664   6.800  24.125  0.00  0.00    +0.289 HD
ATOM     22  H   UNL     1      12.224   7.555  24.539  0.00  0.00    +0.289 HD
BRANCH  19  23
ATOM     23  O   UNL     1      14.095   5.199  23.012  0.00  0.00    -0.311 OA
ATOM     24  H   UNL     1      14.434   5.169  23.926  0.00  0.00    +0.361 HD
ENDBRANCH  19  23
ENDBRANCH  15  18
ENDBRANCH  11  12
ENDBRANCH   8  11
ENDBRANCH   3   7
BRANCH   1  25
ATOM     25  C   UNL     1       7.715  -1.338  24.609  0.00  0.00    +0.144 C 
BRANCH  25  26
ATOM     26  C   UNL     1       9.219  -0.945  24.480  0.00  0.00    +0.015 C 
ATOM     27  C   UNL     1       9.466   0.496  23.984  0.00  0.00    +0.005 C 
ATOM     28  C   UNL     1       9.207   0.705  22.494  0.00  0.00    +0.000 C 
ATOM     29  C   UNL     1       9.890  -0.331  21.606  0.00  0.00    +0.000 C 
ATOM     30  C   UNL     1       9.659  -1.759  22.085  0.00  0.00    +0.000 C 
ATOM     31  C   UNL     1      10.016  -1.909  23.563  0.00  0.00    +0.005 C 
ENDBRANCH  25  26
BRANCH  25  32
ATOM     32  N   UNL     1       7.583  -2.446  25.586  0.00  0.00    -0.296 NA
ATOM     33  H   UNL     1       8.505  -2.809  25.833  0.00  0.00    +0.123 HD
BRANCH  32  34
ATOM     34  C   UNL     1       6.793  -3.587  25.087  0.00  0.00    +0.203 C 
BRANCH  34  35
ATOM     35  C   UNL     1       7.692  -4.494  24.243  0.00  0.00    +0.321 C 
ATOM     36  O   UNL     1       8.671  -5.104  24.660  0.00  0.00    -0.249 OA
BRANCH  35  37
ATOM     37  O   UNL     1       7.318  -4.413  22.934  0.00  0.00    -0.464 OA
BRANCH  37  39
ATOM     38  C   UNL     1       6.044  -5.736  21.397  0.00  0.00    +0.048 C 
ATOM     39  C   UNL     1       7.310  -5.664  22.232  0.00  0.00    +0.229 C 
ENDBRANCH  37  39
ENDBRANCH  35  37
ENDBRANCH  34  35
ENDBRANCH  32  34
ENDBRANCH  25  32
ENDBRANCH   1  25
TORSDOF 12
ENDMDL
