MODEL 1
REMARK VINA RESULT:      -6.0      0.000      0.000
REMARK  Name = 
REMARK  3 active torsions:
REMARK  status: ('A' for Active; 'I' for Inactive)
REMARK    1  A    between atoms: S_1  and  C_2
REMARK    2  A    between atoms: C_2  and  C_3
REMARK    3  A    between atoms: C_3  and  C_4
REMARK                            x       y       z     vdW  Elec       q    Type
REMARK                         _______ _______ _______ _____ _____    ______ ____
ROOT
ATOM      1  C   UNL     1       7.128  -3.915  25.930  0.00  0.00    +0.217 C 
ATOM      2  N   UNL     1       8.332  -3.256  25.752  0.00  0.00    -0.295 N 
ATOM      3  C   UNL     1       8.565  -2.022  26.516  0.00  0.00    +0.161 C 
ATOM      4  C   UNL     1       8.966  -0.973  25.541  0.00  0.00    +0.038 A 
ATOM      5  N   UNL     1       8.895   0.372  25.768  0.00  0.00    -0.356 N 
ATOM      6  H   UNL     1       8.564   0.811  26.616  0.00  0.00    +0.166 HD
ATOM      7  C   UNL     1       9.295   1.057  24.640  0.00  0.00    +0.047 A 
ATOM      8  C   UNL     1       9.354   2.436  24.402  0.00  0.00    +0.026 A 
ATOM      9  C   UNL     1       9.777   2.858  23.139  0.00  0.00    +0.002 A 
ATOM     10  C   UNL     1      10.131   1.938  22.156  0.00  0.00    +0.001 A 
ATOM     11  C   UNL     1      10.072   0.561  22.411  0.00  0.00    +0.010 A 
ATOM     12  C   UNL     1       9.646   0.109  23.675  0.00  0.00    +0.003 A 
ATOM     13  C   UNL     1       9.443  -1.172  24.260  0.00  0.00    -0.016 A 
ATOM     14  C   UNL     1       9.594  -2.545  23.692  0.00  0.00    +0.056 C 
ATOM     15  C   UNL     1       9.406  -3.616  24.796  0.00  0.00    +0.113 C 
ATOM     16  O   UNL     1       6.280  -3.520  26.730  0.00  0.00    -0.276 OA
ENDROOT
BRANCH   1  17
ATOM     17  C   UNL     1       6.892  -5.190  25.140  0.00  0.00    +0.106 C 
BRANCH  17  18
ATOM     18  C   UNL     1       6.103  -4.897  23.869  0.00  0.00    +0.075 C 
BRANCH  18  19
ATOM     19  S   UNL     1       7.031  -5.457  22.408  0.00  0.00    -0.178 S 
ATOM     20  H   UNL     1       6.069  -5.195  21.511  0.00  0.00    +0.102 HD
ENDBRANCH  18  19
ENDBRANCH  17  18
ENDBRANCH   1  17
TORSDOF 3
ENDMDL
MODEL 2
REMARK VINA RESULT:      -5.8      3.682      6.595
REMARK  Name = 
REMARK  3 active torsions:
REMARK  status: ('A' for Active; 'I' for Inactive)
REMARK    1  A    between atoms: S_1  and  C_2
REMARK    2  A    between atoms: C_2  and  C_3
REMARK    3  A    between atoms: C_3  and  C_4
REMARK                            x       y       z     vdW  Elec       q    Type
REMARK                         _______ _______ _______ _____ _____    ______ ____
ROOT
ATOM      1  C   UNL     1       9.156   2.650  23.111  0.00  0.00    +0.217 C 
ATOM      2  N   UNL     1       9.824   1.438  23.093  0.00  0.00    -0.295 N 
ATOM      3  C   UNL     1       9.549   0.512  21.985  0.00  0.00    +0.161 C 
ATOM      4  C   UNL     1       9.200  -0.802  22.588  0.00  0.00    +0.038 A 
ATOM      5  N   UNL     1       8.516  -1.797  21.951  0.00  0.00    -0.356 N 
ATOM      6  H   UNL     1       8.168  -1.761  21.003  0.00  0.00    +0.166 HD
ATOM      7  C   UNL     1       8.318  -2.854  22.814  0.00  0.00    +0.047 A 
ATOM      8  C   UNL     1       7.646  -4.066  22.610  0.00  0.00    +0.026 A 
ATOM      9  C   UNL     1       7.573  -4.957  23.684  0.00  0.00    +0.002 A 
ATOM     10  C   UNL     1       8.155  -4.649  24.911  0.00  0.00    +0.001 A 
ATOM     11  C   UNL     1       8.830  -3.435  25.099  0.00  0.00    +0.010 A 
ATOM     12  C   UNL     1       8.914  -2.519  24.033  0.00  0.00    +0.003 A 
ATOM     13  C   UNL     1       9.478  -1.221  23.875  0.00  0.00    -0.016 A 
ATOM     14  C   UNL     1      10.182  -0.333  24.847  0.00  0.00    +0.056 C 
ATOM     15  C   UNL     1      10.746   0.920  24.130  0.00  0.00    +0.113 C 
ATOM     16  O   UNL     1       8.380   2.981  22.213  0.00  0.00    -0.276 OA
ENDROOT
BRANCH   1  17
ATOM     17  C   UNL     1       9.444   3.604  24.256  0.00  0.00    +0.106 C 
BRANCH  17  18
ATOM     18  C   UNL     1      10.062   4.897  23.735  0.00  0.00    +0.075 C 
BRANCH  18  19
ATOM     19  S   UNL     1      11.825   4.647  23.360  0.00  0.00    -0.178 S 
ATOM     20  H   UNL     1      11.960   3.500  24.042  0.00  0.00    +0.102 HD
ENDBRANCH  18  19
ENDBRANCH  17  18
ENDBRANCH   1  17
TORSDOF 3
ENDMDL
MODEL 3
REMARK VINA RESULT:      -5.8      1.830      2.147
REMARK  Name = 
REMARK  3 active torsions:
REMARK  status: ('A' for Active; 'I' for Inactive)
REMARK    1  A    between atoms: S_1  and  C_2
REMARK    2  A    between atoms: C_2  and  C_3
REMARK    3  A    between atoms: C_3  and  C_4
REMARK                            x       y       z     vdW  Elec       q    Type
REMARK                         _______ _______ _______ _____ _____    ______ ____
ROOT
ATOM      1  C   UNL     1       7.128  -4.667  25.198  0.00  0.00    +0.217 C 
ATOM      2  N   UNL     1       7.948  -4.178  24.197  0.00  0.00    -0.295 N 
ATOM      3  C   UNL     1       9.247  -3.608  24.584  0.00  0.00    +0.161 C 
ATOM      4  C   UNL     1       9.333  -2.256  23.968  0.00  0.00    +0.038 A 
ATOM      5  N   UNL     1      10.170  -1.261  24.383  0.00  0.00    -0.356 N 
ATOM      6  H   UNL     1      10.825  -1.322  25.150  0.00  0.00    +0.166 HD
ATOM      7  C   UNL     1       9.955  -0.126  23.629  0.00  0.00    +0.047 A 
ATOM      8  C   UNL     1      10.555   1.136  23.716  0.00  0.00    +0.026 A 
ATOM      9  C   UNL     1      10.119   2.125  22.830  0.00  0.00    +0.002 A 
ATOM     10  C   UNL     1       9.126   1.858  21.891  0.00  0.00    +0.001 A 
ATOM     11  C   UNL     1       8.539   0.588  21.811  0.00  0.00    +0.010 A 
ATOM     12  C   UNL     1       8.959  -0.424  22.696  0.00  0.00    +0.003 A 
ATOM     13  C   UNL     1       8.579  -1.779  22.913  0.00  0.00    -0.016 A 
ATOM     14  C   UNL     1       7.531  -2.620  22.264  0.00  0.00    +0.056 C 
ATOM     15  C   UNL     1       7.627  -4.087  22.754  0.00  0.00    +0.113 C 
ATOM     16  O   UNL     1       7.471  -4.672  26.381  0.00  0.00    -0.276 OA
ENDROOT
BRANCH   1  17
ATOM     17  C   UNL     1       5.788  -5.258  24.794  0.00  0.00    +0.106 C 
BRANCH  17  18
ATOM     18  C   UNL     1       5.272  -6.206  25.870  0.00  0.00    +0.075 C 
BRANCH  18  19
ATOM     19  S   UNL     1       3.840  -7.142  25.251  0.00  0.00    -0.178 S 
ATOM     20  H   UNL     1       3.805  -8.037  26.249  0.00  0.00    +0.102 HD
ENDBRANCH  18  19
ENDBRANCH  17  18
ENDBRANCH   1  17
TORSDOF 3
ENDMDL
MODEL 4
REMARK VINA RESULT:      -5.7      2.168      3.256
REMARK  Name = 
REMARK  3 active torsions:
REMARK  status: ('A' for Active; 'I' for Inactive)
REMARK    1  A    between atoms: S_1  and  C_2
REMARK    2  A    between atoms: C_2  and  C_3
REMARK    3  A    between atoms: C_3  and  C_4
REMARK                            x       y       z     vdW  Elec       q    Type
REMARK                         _______ _______ _______ _____ _____    ______ ____
ROOT
ATOM      1  C   UNL     1       7.690  -1.257  23.394  0.00  0.00    +0.217 C 
ATOM      2  N   UNL     1       8.491  -0.472  24.206  0.00  0.00    -0.295 N 
ATOM      3  C   UNL     1       7.869   0.664  24.900  0.00  0.00    +0.161 C 
ATOM      4  C   UNL     1       8.687   1.867  24.592  0.00  0.00    +0.038 A 
ATOM      5  N   UNL     1       8.255   3.157  24.708  0.00  0.00    -0.356 N 
ATOM      6  H   UNL     1       7.336   3.446  25.014  0.00  0.00    +0.166 HD
ATOM      7  C   UNL     1       9.246   4.021  24.293  0.00  0.00    +0.047 A 
ATOM      8  C   UNL     1       9.240   5.419  24.207  0.00  0.00    +0.026 A 
ATOM      9  C   UNL     1      10.390   6.043  23.717  0.00  0.00    +0.002 A 
ATOM     10  C   UNL     1      11.503   5.299  23.333  0.00  0.00    +0.001 A 
ATOM     11  C   UNL     1      11.496   3.901  23.430  0.00  0.00    +0.010 A 
ATOM     12  C   UNL     1      10.348   3.247  23.918  0.00  0.00    +0.003 A 
ATOM     13  C   UNL     1       9.986   1.885  24.121  0.00  0.00    -0.016 A 
ATOM     14  C   UNL     1      10.730   0.621  23.843  0.00  0.00    +0.056 C 
ATOM     15  C   UNL     1       9.954  -0.601  24.397  0.00  0.00    +0.113 C 
ATOM     16  O   UNL     1       6.482  -1.052  23.274  0.00  0.00    -0.276 OA
ENDROOT
BRANCH   1  17
ATOM     17  C   UNL     1       8.336  -2.431  22.680  0.00  0.00    +0.106 C 
BRANCH  17  18
ATOM     18  C   UNL     1       7.770  -3.750  23.194  0.00  0.00    +0.075 C 
BRANCH  18  19
ATOM     19  S   UNL     1       6.575  -4.429  22.002  0.00  0.00    -0.178 S 
ATOM     20  H   UNL     1       7.356  -4.300  20.919  0.00  0.00    +0.102 HD
ENDBRANCH  18  19
ENDBRANCH  17  18
ENDBRANCH   1  17
TORSDOF 3
ENDMDL
MODEL 5
REMARK VINA RESULT:      -5.7      2.707      4.202
REMARK  Name = 
REMARK  3 active torsions:
REMARK  status: ('A' for Active; 'I' for Inactive)
REMARK    1  A    between atoms: S_1  and  C_2
REMARK    2  A    between atoms: C_2  and  C_3
REMARK    3  A    between atoms: C_3  and  C_4
REMARK                            x       y       z     vdW  Elec       q    Type
REMARK                         _______ _______ _______ _____ _____    ______ ____
ROOT
ATOM      1  C   UNL     1       9.463  -1.518  22.813  0.00  0.00    +0.217 C 
ATOM      2  N   UNL     1       8.854  -0.306  22.535  0.00  0.00    -0.295 N 
ATOM      3  C   UNL     1       9.641   0.719  21.835  0.00  0.00    +0.161 C 
ATOM      4  C   UNL     1       9.545   1.968  22.638  0.00  0.00    +0.038 A 
ATOM      5  N   UNL     1      10.418   3.016  22.559  0.00  0.00    -0.356 N 
ATOM      6  H   UNL     1      11.224   3.068  21.953  0.00  0.00    +0.166 HD
ATOM      7  C   UNL     1      10.066   3.985  23.475  0.00  0.00    +0.047 A 
ATOM      8  C   UNL     1      10.684   5.207  23.770  0.00  0.00    +0.026 A 
ATOM      9  C   UNL     1      10.121   5.991  24.780  0.00  0.00    +0.002 A 
ATOM     10  C   UNL     1       8.982   5.571  25.464  0.00  0.00    +0.001 A 
ATOM     11  C   UNL     1       8.372   4.349  25.154  0.00  0.00    +0.010 A 
ATOM     12  C   UNL     1       8.922   3.538  24.142  0.00  0.00    +0.003 A 
ATOM     13  C   UNL     1       8.596   2.264  23.596  0.00  0.00    -0.016 A 
ATOM     14  C   UNL     1       7.520   1.292  23.951  0.00  0.00    +0.056 C 
ATOM     15  C   UNL     1       7.494   0.115  22.943  0.00  0.00    +0.113 C 
ATOM     16  O   UNL     1      10.616  -1.766  22.457  0.00  0.00    -0.276 OA
ENDROOT
BRANCH   1  17
ATOM     17  C   UNL     1       8.646  -2.575  23.534  0.00  0.00    +0.106 C 
BRANCH  17  18
ATOM     18  C   UNL     1       7.859  -3.419  22.537  0.00  0.00    +0.075 C 
BRANCH  18  19
ATOM     19  S   UNL     1       6.923  -4.713  23.407  0.00  0.00    -0.178 S 
ATOM     20  H   UNL     1       6.610  -3.973  24.481  0.00  0.00    +0.102 HD
ENDBRANCH  18  19
ENDBRANCH  17  18
ENDBRANCH   1  17
TORSDOF 3
ENDMDL
MODEL 6
REMARK VINA RESULT:      -5.7      2.245      2.886
REMARK  Name = 
REMARK  3 active torsions:
REMARK  status: ('A' for Active; 'I' for Inactive)
REMARK    1  A    between atoms: S_1  and  C_2
REMARK    2  A    between atoms: C_2  and  C_3
REMARK    3  A    between atoms: C_3  and  C_4
REMARK                            x       y       z     vdW  Elec       q    Type
REMARK                         _______ _______ _______ _____ _____    ______ ____
ROOT
ATOM      1  C   UNL     1       8.720  -3.694  24.043  0.00  0.00    +0.217 C 
ATOM      2  N   UNL     1       8.607  -2.659  23.131  0.00  0.00    -0.295 N 
ATOM      3  C   UNL     1       9.833  -1.954  22.729  0.00  0.00    +0.161 C 
ATOM      4  C   UNL     1       9.590  -0.501  22.931  0.00  0.00    +0.038 A 
ATOM      5  N   UNL     1      10.567   0.445  23.052  0.00  0.00    -0.356 N 
ATOM      6  H   UNL     1      11.562   0.273  23.019  0.00  0.00    +0.166 HD
ATOM      7  C   UNL     1       9.996   1.679  23.280  0.00  0.00    +0.047 A 
ATOM      8  C   UNL     1      10.603   2.923  23.497  0.00  0.00    +0.026 A 
ATOM      9  C   UNL     1       9.769   4.019  23.734  0.00  0.00    +0.002 A 
ATOM     10  C   UNL     1       8.384   3.877  23.749  0.00  0.00    +0.001 A 
ATOM     11  C   UNL     1       7.791   2.627  23.525  0.00  0.00    +0.010 A 
ATOM     12  C   UNL     1       8.609   1.506  23.287  0.00  0.00    +0.003 A 
ATOM     13  C   UNL     1       8.364   0.123  23.055  0.00  0.00    -0.016 A 
ATOM     14  C   UNL     1       7.089  -0.654  23.013  0.00  0.00    +0.056 C 
ATOM     15  C   UNL     1       7.354  -2.112  22.562  0.00  0.00    +0.113 C 
ATOM     16  O   UNL     1       9.809  -4.058  24.486  0.00  0.00    -0.276 OA
ENDROOT
BRANCH   1  17
ATOM     17  C   UNL     1       7.452  -4.420  24.453  0.00  0.00    +0.106 C 
BRANCH  17  18
ATOM     18  C   UNL     1       7.005  -3.978  25.843  0.00  0.00    +0.075 C 
BRANCH  18  19
ATOM     19  S   UNL     1       7.394  -5.265  27.069  0.00  0.00    -0.178 S 
ATOM     20  H   UNL     1       6.219  -5.216  27.713  0.00  0.00    +0.102 HD
ENDBRANCH  18  19
ENDBRANCH  17  18
ENDBRANCH   1  17
TORSDOF 3
ENDMDL
MODEL 7
REMARK VINA RESULT:      -5.6      1.579      1.902
REMARK  Name = 
REMARK  3 active torsions:
REMARK  status: ('A' for Active; 'I' for Inactive)
REMARK    1  A    between atoms: S_1  and  C_2
REMARK    2  A    between atoms: C_2  and  C_3
REMARK    3  A    between atoms: C_3  and  C_4
REMARK                            x       y       z     vdW  Elec       q    Type
REMARK                         _______ _______ _______ _____ _____    ______ ____
ROOT
ATOM      1  C   UNL     1       6.429  -4.676  26.294  0.00  0.00    +0.217 C 
ATOM      2  N   UNL     1       7.588  -4.461  25.569  0.00  0.00    -0.295 N 
ATOM      3  C   UNL     1       8.578  -3.519  26.110  0.00  0.00    +0.161 C 
ATOM      4  C   UNL     1       8.886  -2.540  25.034  0.00  0.00    +0.038 A 
ATOM      5  N   UNL     1       9.438  -1.307  25.234  0.00  0.00    -0.356 N 
ATOM      6  H   UNL     1       9.700  -0.916  26.128  0.00  0.00    +0.166 HD
ATOM      7  C   UNL     1       9.540  -0.641  24.031  0.00  0.00    +0.047 A 
ATOM      8  C   UNL     1      10.011   0.649  23.757  0.00  0.00    +0.026 A 
ATOM      9  C   UNL     1       9.973   1.085  22.430  0.00  0.00    +0.002 A 
ATOM     10  C   UNL     1       9.488   0.261  21.418  0.00  0.00    +0.001 A 
ATOM     11  C   UNL     1       9.025  -1.030  21.706  0.00  0.00    +0.010 A 
ATOM     12  C   UNL     1       9.050  -1.492  23.037  0.00  0.00    +0.003 A 
ATOM     13  C   UNL     1       8.648  -2.695  23.682  0.00  0.00    -0.016 A 
ATOM     14  C   UNL     1       8.003  -3.929  23.143  0.00  0.00    +0.056 C 
ATOM     15  C   UNL     1       7.917  -5.022  24.238  0.00  0.00    +0.113 C 
ATOM     16  O   UNL     1       6.230  -4.137  27.383  0.00  0.00    -0.276 OA
ENDROOT
BRANCH   1  17
ATOM     17  C   UNL     1       5.410  -5.651  25.732  0.00  0.00    +0.106 C 
BRANCH  17  18
ATOM     18  C   UNL     1       4.181  -4.908  25.218  0.00  0.00    +0.075 C 
BRANCH  18  19
ATOM     19  S   UNL     1       4.175  -4.884  23.399  0.00  0.00    -0.178 S 
ATOM     20  H   UNL     1       2.882  -5.209  23.250  0.00  0.00    +0.102 HD
ENDBRANCH  18  19
ENDBRANCH  17  18
ENDBRANCH   1  17
TORSDOF 3
ENDMDL
MODEL 8
REMARK VINA RESULT:      -5.6      2.576      2.926
REMARK  Name = 
REMARK  3 active torsions:
REMARK  status: ('A' for Active; 'I' for Inactive)
REMARK    1  A    between atoms: S_1  and  C_2
REMARK    2  A    between atoms: C_2  and  C_3
REMARK    3  A    between atoms: C_3  and  C_4
REMARK                            x       y       z     vdW  Elec       q    Type
REMARK                         _______ _______ _______ _____ _____    ______ ____
ROOT
ATOM      1  C   UNL     1       4.833  -4.678  23.576  0.00  0.00    +0.217 C 
ATOM      2  N   UNL     1       5.715  -3.792  24.171  0.00  0.00    -0.295 N 
ATOM      3  C   UNL     1       5.291  -2.394  24.328  0.00  0.00    +0.161 C 
ATOM      4  C   UNL     1       6.361  -1.543  23.742  0.00  0.00    +0.038 A 
ATOM      5  N   UNL     1       6.197  -0.249  23.338  0.00  0.00    -0.356 N 
ATOM      6  H   UNL     1       5.338   0.280  23.387  0.00  0.00    +0.166 HD
ATOM      7  C   UNL     1       7.374   0.223  22.796  0.00  0.00    +0.047 A 
ATOM      8  C   UNL     1       7.663   1.471  22.229  0.00  0.00    +0.026 A 
ATOM      9  C   UNL     1       8.951   1.671  21.724  0.00  0.00    +0.002 A 
ATOM     10  C   UNL     1       9.911   0.664  21.789  0.00  0.00    +0.001 A 
ATOM     11  C   UNL     1       9.608  -0.577  22.364  0.00  0.00    +0.010 A 
ATOM     12  C   UNL     1       8.317  -0.805  22.877  0.00  0.00    +0.003 A 
ATOM     13  C   UNL     1       7.667  -1.915  23.488  0.00  0.00    -0.016 A 
ATOM     14  C   UNL     1       8.152  -3.297  23.778  0.00  0.00    +0.056 C 
ATOM     15  C   UNL     1       7.102  -4.081  24.605  0.00  0.00    +0.113 C 
ATOM     16  O   UNL     1       3.706  -4.335  23.219  0.00  0.00    -0.276 OA
ENDROOT
BRANCH   1  17
ATOM     17  C   UNL     1       5.274  -6.122  23.418  0.00  0.00    +0.106 C 
BRANCH  17  18
ATOM     18  C   UNL     1       4.396  -7.047  24.253  0.00  0.00    +0.075 C 
BRANCH  18  19
ATOM     19  S   UNL     1       4.699  -6.773  26.026  0.00  0.00    -0.178 S 
ATOM     20  H   UNL     1       3.613  -7.427  26.464  0.00  0.00    +0.102 HD
ENDBRANCH  18  19
ENDBRANCH  17  18
ENDBRANCH   1  17
TORSDOF 3
ENDMDL
MODEL 9
REMARK VINA RESULT:      -5.5      3.076      6.072
REMARK  Name = 
REMARK  3 active torsions:
REMARK  status: ('A' for Active; 'I' for Inactive)
REMARK    1  A    between atoms: S_1  and  C_2
REMARK    2  A    between atoms: C_2  and  C_3
REMARK    3  A    between atoms: C_3  and  C_4
REMARK                            x       y       z     vdW  Elec       q    Type
REMARK                         _______ _______ _______ _____ _____    ______ ____
ROOT
ATOM      1  C   UNL     1       8.825   1.619  22.272  0.00  0.00    +0.217 C 
ATOM      2  N   UNL     1       9.382   0.973  23.362  0.00  0.00    -0.295 N 
ATOM      3  C   UNL     1      10.225  -0.205  23.112  0.00  0.00    +0.161 C 
ATOM      4  C   UNL     1       9.702  -1.307  23.964  0.00  0.00    +0.038 A 
ATOM      5  N   UNL     1       9.936  -2.636  23.754  0.00  0.00    -0.356 N 
ATOM      6  H   UNL     1      10.487  -3.026  23.002  0.00  0.00    +0.166 HD
ATOM      7  C   UNL     1       9.262  -3.383  24.696  0.00  0.00    +0.047 A 
ATOM      8  C   UNL     1       9.183  -4.773  24.850  0.00  0.00    +0.026 A 
ATOM      9  C   UNL     1       8.392  -5.266  25.891  0.00  0.00    +0.002 A 
ATOM     10  C   UNL     1       7.712  -4.403  26.746  0.00  0.00    +0.001 A 
ATOM     11  C   UNL     1       7.804  -3.014  26.582  0.00  0.00    +0.010 A 
ATOM     12  C   UNL     1       8.592  -2.492  25.538  0.00  0.00    +0.003 A 
ATOM     13  C   UNL     1       8.887  -1.180  25.071  0.00  0.00    -0.016 A 
ATOM     14  C   UNL     1       8.410   0.157  25.536  0.00  0.00    +0.056 C 
ATOM     15  C   UNL     1       9.157   1.292  24.791  0.00  0.00    +0.113 C 
ATOM     16  O   UNL     1       9.048   1.259  21.116  0.00  0.00    -0.276 OA
ENDROOT
BRANCH   1  17
ATOM     17  C   UNL     1       7.958   2.837  22.535  0.00  0.00    +0.106 C 
BRANCH  17  18
ATOM     18  C   UNL     1       6.488   2.514  22.286  0.00  0.00    +0.075 C 
BRANCH  18  19
ATOM     19  S   UNL     1       5.582   2.445  23.861  0.00  0.00    -0.178 S 
ATOM     20  H   UNL     1       6.613   2.025  24.608  0.00  0.00    +0.102 HD
ENDBRANCH  18  19
ENDBRANCH  17  18
ENDBRANCH   1  17
TORSDOF 3
ENDMDL
