MODEL 1
REMARK VINA RESULT:      -7.1      0.000      0.000
REMARK  Name = 
REMARK  5 active torsions:
REMARK  status: ('A' for Active; 'I' for Inactive)
REMARK    1  A    between atoms: O_1  and  C_2
REMARK    2  A    between atoms: C_5  and  C_8
REMARK    3  A    between atoms: C_9  and  O_10
REMARK    4  A    between atoms: C_17  and  O_18
REMARK    5  A    between atoms: C_20  and  O_21
REMARK                            x       y       z     vdW  Elec       q    Type
REMARK                         _______ _______ _______ _____ _____    ______ ____
ROOT
ATOM      1  C   UNL     1       6.866  -2.659  23.204  0.00  0.00    +0.181 A 
ATOM      2  O   UNL     1       7.259  -3.019  24.491  0.00  0.00    -0.451 OA
ATOM      3  C   UNL     1       6.687  -4.115  25.089  0.00  0.00    +0.147 A 
ATOM      4  C   UNL     1       7.187  -4.467  26.349  0.00  0.00    +0.092 A 
ATOM      5  C   UNL     1       6.649  -5.563  27.016  0.00  0.00    +0.124 A 
ATOM      6  C   UNL     1       5.619  -6.307  26.456  0.00  0.00    +0.091 A 
ATOM      7  C   UNL     1       5.125  -5.956  25.199  0.00  0.00    +0.135 A 
ATOM      8  C   UNL     1       5.659  -4.861  24.508  0.00  0.00    +0.109 A 
ATOM      9  C   UNL     1       5.198  -4.460  23.161  0.00  0.00    +0.238 A 
ATOM     10  O   UNL     1       4.285  -5.027  22.574  0.00  0.00    -0.283 OA
ATOM     11  C   UNL     1       5.923  -3.331  22.510  0.00  0.00    +0.208 A 
ENDROOT
BRANCH   1  15
ATOM     12  C   UNL     1       9.007   0.820  21.814  0.00  0.00    +0.117 A 
ATOM     13  C   UNL     1       9.511  -0.451  21.578  0.00  0.00    +0.046 A 
ATOM     14  C   UNL     1       8.799  -1.577  22.010  0.00  0.00    +0.015 A 
ATOM     15  C   UNL     1       7.578  -1.449  22.693  0.00  0.00    +0.021 A 
ATOM     16  C   UNL     1       7.105  -0.144  22.931  0.00  0.00    +0.015 A 
ATOM     17  C   UNL     1       7.801   0.984  22.478  0.00  0.00    +0.046 A 
BRANCH  12  18
ATOM     18  O   UNL     1       9.740   1.890  21.393  0.00  0.00    -0.507 OA
ATOM     19  H   UNL     1       9.940   1.779  20.449  0.00  0.00    +0.292 HD
ENDBRANCH  12  18
ENDBRANCH   1  15
BRANCH   7  20
ATOM     20  O   UNL     1       4.120  -6.708  24.661  0.00  0.00    -0.506 OA
ATOM     21  H   UNL     1       4.468  -7.302  23.981  0.00  0.00    +0.292 HD
ENDBRANCH   7  20
BRANCH   5  22
ATOM     22  O   UNL     1       7.102  -5.954  28.241  0.00  0.00    -0.507 OA
ATOM     23  H   UNL     1       6.614  -6.747  28.526  0.00  0.00    +0.292 HD
ENDBRANCH   5  22
BRANCH  11  24
ATOM     24  O   UNL     1       5.559  -3.055  21.203  0.00  0.00    -0.501 OA
ATOM     25  H   UNL     1       6.369  -2.813  20.720  0.00  0.00    +0.292 HD
ENDBRANCH  11  24
TORSDOF 5
ENDMDL
MODEL 2
REMARK VINA RESULT:      -6.8      1.245      2.993
REMARK  Name = 
REMARK  5 active torsions:
REMARK  status: ('A' for Active; 'I' for Inactive)
REMARK    1  A    between atoms: O_1  and  C_2
REMARK    2  A    between atoms: C_5  and  C_8
REMARK    3  A    between atoms: C_9  and  O_10
REMARK    4  A    between atoms: C_17  and  O_18
REMARK    5  A    between atoms: C_20  and  O_21
REMARK                            x       y       z     vdW  Elec       q    Type
REMARK                         _______ _______ _______ _____ _____    ______ ____
ROOT
ATOM      1  C   UNL     1       7.568  -2.377  24.070  0.00  0.00    +0.181 A 
ATOM      2  O   UNL     1       6.660  -3.120  23.320  0.00  0.00    -0.451 OA
ATOM      3  C   UNL     1       6.074  -4.231  23.875  0.00  0.00    +0.147 A 
ATOM      4  C   UNL     1       5.112  -4.883  23.094  0.00  0.00    +0.092 A 
ATOM      5  C   UNL     1       4.482  -6.019  23.591  0.00  0.00    +0.124 A 
ATOM      6  C   UNL     1       4.799  -6.521  24.847  0.00  0.00    +0.091 A 
ATOM      7  C   UNL     1       5.756  -5.868  25.624  0.00  0.00    +0.135 A 
ATOM      8  C   UNL     1       6.395  -4.718  25.144  0.00  0.00    +0.109 A 
ATOM      9  C   UNL     1       7.394  -3.966  25.935  0.00  0.00    +0.238 A 
ATOM     10  O   UNL     1       7.768  -4.321  27.045  0.00  0.00    -0.283 OA
ATOM     11  C   UNL     1       7.922  -2.709  25.331  0.00  0.00    +0.208 A 
ENDROOT
BRANCH   1  15
ATOM     12  C   UNL     1       9.251   1.012  21.997  0.00  0.00    +0.117 A 
ATOM     13  C   UNL     1       9.786  -0.255  21.813  0.00  0.00    +0.046 A 
ATOM     14  C   UNL     1       9.219  -1.355  22.471  0.00  0.00    +0.015 A 
ATOM     15  C   UNL     1       8.117  -1.203  23.328  0.00  0.00    +0.021 A 
ATOM     16  C   UNL     1       7.611   0.100  23.504  0.00  0.00    +0.015 A 
ATOM     17  C   UNL     1       8.157   1.198  22.829  0.00  0.00    +0.046 A 
BRANCH  12  18
ATOM     18  O   UNL     1       9.843   2.057  21.353  0.00  0.00    -0.507 OA
ATOM     19  H   UNL     1       9.819   2.836  21.934  0.00  0.00    +0.292 HD
ENDBRANCH  12  18
ENDBRANCH   1  15
BRANCH   7  20
ATOM     20  O   UNL     1       6.044  -6.371  26.860  0.00  0.00    -0.506 OA
ATOM     21  H   UNL     1       5.562  -7.196  27.013  0.00  0.00    +0.292 HD
ENDBRANCH   7  20
BRANCH   5  22
ATOM     22  O   UNL     1       3.533  -6.688  22.877  0.00  0.00    -0.507 OA
ATOM     23  H   UNL     1       2.835  -6.998  23.481  0.00  0.00    +0.292 HD
ENDBRANCH   5  22
BRANCH  11  24
ATOM     24  O   UNL     1       8.758  -1.957  26.138  0.00  0.00    -0.501 OA
ATOM     25  H   UNL     1       9.674  -2.189  25.905  0.00  0.00    +0.292 HD
ENDBRANCH  11  24
TORSDOF 5
ENDMDL
MODEL 3
REMARK VINA RESULT:      -6.6      2.552      3.156
REMARK  Name = 
REMARK  5 active torsions:
REMARK  status: ('A' for Active; 'I' for Inactive)
REMARK    1  A    between atoms: O_1  and  C_2
REMARK    2  A    between atoms: C_5  and  C_8
REMARK    3  A    between atoms: C_9  and  O_10
REMARK    4  A    between atoms: C_17  and  O_18
REMARK    5  A    between atoms: C_20  and  O_21
REMARK                            x       y       z     vdW  Elec       q    Type
REMARK                         _______ _______ _______ _____ _____    ______ ____
ROOT
ATOM      1  C   UNL     1       8.569  -1.986  24.655  0.00  0.00    +0.181 A 
ATOM      2  O   UNL     1       7.414  -1.655  25.360  0.00  0.00    -0.451 OA
ATOM      3  C   UNL     1       6.831  -2.591  26.180  0.00  0.00    +0.147 A 
ATOM      4  C   UNL     1       5.721  -2.165  26.919  0.00  0.00    +0.092 A 
ATOM      5  C   UNL     1       5.078  -3.062  27.765  0.00  0.00    +0.124 A 
ATOM      6  C   UNL     1       5.514  -4.376  27.880  0.00  0.00    +0.091 A 
ATOM      7  C   UNL     1       6.622  -4.797  27.145  0.00  0.00    +0.135 A 
ATOM      8  C   UNL     1       7.288  -3.905  26.294  0.00  0.00    +0.109 A 
ATOM      9  C   UNL     1       8.486  -4.285  25.514  0.00  0.00    +0.238 A 
ATOM     10  O   UNL     1       8.953  -5.417  25.519  0.00  0.00    -0.283 OA
ATOM     11  C   UNL     1       9.144  -3.205  24.723  0.00  0.00    +0.208 A 
ENDROOT
BRANCH   1  15
ATOM     12  C   UNL     1       9.957   1.325  22.262  0.00  0.00    +0.117 A 
ATOM     13  C   UNL     1      10.180   1.311  23.631  0.00  0.00    +0.046 A 
ATOM     14  C   UNL     1       9.748   0.221  24.399  0.00  0.00    +0.015 A 
ATOM     15  C   UNL     1       9.079  -0.865  23.811  0.00  0.00    +0.021 A 
ATOM     16  C   UNL     1       8.854  -0.809  22.421  0.00  0.00    +0.015 A 
ATOM     17  C   UNL     1       9.307   0.266  21.646  0.00  0.00    +0.046 A 
BRANCH  12  18
ATOM     18  O   UNL     1      10.376   2.412  21.554  0.00  0.00    -0.507 OA
ATOM     19  H   UNL     1      10.158   3.214  22.056  0.00  0.00    +0.292 HD
ENDBRANCH  12  18
ENDBRANCH   1  15
BRANCH   7  20
ATOM     20  O   UNL     1       7.042  -6.088  27.281  0.00  0.00    -0.506 OA
ATOM     21  H   UNL     1       6.828  -6.601  26.489  0.00  0.00    +0.292 HD
ENDBRANCH   7  20
BRANCH   5  22
ATOM     22  O   UNL     1       3.998  -2.700  28.513  0.00  0.00    -0.507 OA
ATOM     23  H   UNL     1       4.292  -2.143  29.256  0.00  0.00    +0.292 HD
ENDBRANCH   5  22
BRANCH  11  24
ATOM     24  O   UNL     1      10.333  -3.552  24.102  0.00  0.00    -0.501 OA
ATOM     25  H   UNL     1      10.892  -3.989  24.768  0.00  0.00    +0.292 HD
ENDBRANCH  11  24
TORSDOF 5
ENDMDL
MODEL 4
REMARK VINA RESULT:      -6.6      2.367      4.006
REMARK  Name = 
REMARK  5 active torsions:
REMARK  status: ('A' for Active; 'I' for Inactive)
REMARK    1  A    between atoms: O_1  and  C_2
REMARK    2  A    between atoms: C_5  and  C_8
REMARK    3  A    between atoms: C_9  and  O_10
REMARK    4  A    between atoms: C_17  and  O_18
REMARK    5  A    between atoms: C_20  and  O_21
REMARK                            x       y       z     vdW  Elec       q    Type
REMARK                         _______ _______ _______ _____ _____    ______ ____
ROOT
ATOM      1  C   UNL     1       8.193  -0.550  23.409  0.00  0.00    +0.181 A 
ATOM      2  O   UNL     1       6.985  -1.144  23.050  0.00  0.00    -0.451 OA
ATOM      3  C   UNL     1       6.854  -2.509  23.128  0.00  0.00    +0.147 A 
ATOM      4  C   UNL     1       5.589  -3.030  22.830  0.00  0.00    +0.092 A 
ATOM      5  C   UNL     1       5.386  -4.405  22.884  0.00  0.00    +0.124 A 
ATOM      6  C   UNL     1       6.420  -5.269  23.220  0.00  0.00    +0.091 A 
ATOM      7  C   UNL     1       7.679  -4.747  23.520  0.00  0.00    +0.135 A 
ATOM      8  C   UNL     1       7.900  -3.364  23.479  0.00  0.00    +0.109 A 
ATOM      9  C   UNL     1       9.203  -2.751  23.817  0.00  0.00    +0.238 A 
ATOM     10  O   UNL     1      10.193  -3.409  24.110  0.00  0.00    -0.283 OA
ATOM     11  C   UNL     1       9.265  -1.260  23.820  0.00  0.00    +0.208 A 
ENDROOT
BRANCH   1  15
ATOM     12  C   UNL     1       8.249   3.739  22.940  0.00  0.00    +0.117 A 
ATOM     13  C   UNL     1       7.943   2.922  21.860  0.00  0.00    +0.046 A 
ATOM     14  C   UNL     1       7.903   1.531  22.026  0.00  0.00    +0.015 A 
ATOM     15  C   UNL     1       8.177   0.937  23.269  0.00  0.00    +0.021 A 
ATOM     16  C   UNL     1       8.500   1.795  24.338  0.00  0.00    +0.015 A 
ATOM     17  C   UNL     1       8.516   3.187  24.183  0.00  0.00    +0.046 A 
BRANCH  12  18
ATOM     18  O   UNL     1       8.295   5.085  22.732  0.00  0.00    -0.507 OA
ATOM     19  H   UNL     1       7.534   5.496  23.175  0.00  0.00    +0.292 HD
ENDBRANCH  12  18
ENDBRANCH   1  15
BRANCH   7  20
ATOM     20  O   UNL     1       8.679  -5.611  23.860  0.00  0.00    -0.506 OA
ATOM     21  H   UNL     1       9.411  -5.136  24.277  0.00  0.00    +0.292 HD
ENDBRANCH   7  20
BRANCH   5  22
ATOM     22  O   UNL     1       4.174  -4.966  22.610  0.00  0.00    -0.507 OA
ATOM     23  H   UNL     1       3.957  -5.617  23.301  0.00  0.00    +0.292 HD
ENDBRANCH   5  22
BRANCH  11  24
ATOM     24  O   UNL     1      10.455  -0.707  24.260  0.00  0.00    -0.501 OA
ATOM     25  H   UNL     1      10.380  -0.581  25.222  0.00  0.00    +0.292 HD
ENDBRANCH  11  24
TORSDOF 5
ENDMDL
MODEL 5
REMARK VINA RESULT:      -6.5      2.130      7.229
REMARK  Name = 
REMARK  5 active torsions:
REMARK  status: ('A' for Active; 'I' for Inactive)
REMARK    1  A    between atoms: O_1  and  C_2
REMARK    2  A    between atoms: C_5  and  C_8
REMARK    3  A    between atoms: C_9  and  O_10
REMARK    4  A    between atoms: C_17  and  O_18
REMARK    5  A    between atoms: C_20  and  O_21
REMARK                            x       y       z     vdW  Elec       q    Type
REMARK                         _______ _______ _______ _____ _____    ______ ____
ROOT
ATOM      1  C   UNL     1       7.973  -1.861  23.140  0.00  0.00    +0.181 A 
ATOM      2  O   UNL     1       7.113  -0.810  22.828  0.00  0.00    -0.451 OA
ATOM      3  C   UNL     1       7.605   0.471  22.770  0.00  0.00    +0.147 A 
ATOM      4  C   UNL     1       6.703   1.466  22.373  0.00  0.00    +0.092 A 
ATOM      5  C   UNL     1       7.131   2.787  22.299  0.00  0.00    +0.124 A 
ATOM      6  C   UNL     1       8.437   3.135  22.621  0.00  0.00    +0.091 A 
ATOM      7  C   UNL     1       9.334   2.142  23.014  0.00  0.00    +0.135 A 
ATOM      8  C   UNL     1       8.923   0.805  23.087  0.00  0.00    +0.109 A 
ATOM      9  C   UNL     1       9.837  -0.295  23.466  0.00  0.00    +0.238 A 
ATOM     10  O   UNL     1      11.003  -0.111  23.790  0.00  0.00    -0.283 OA
ATOM     11  C   UNL     1       9.283  -1.679  23.411  0.00  0.00    +0.208 A 
ENDROOT
BRANCH   1  15
ATOM     12  C   UNL     1       5.892  -5.640  23.184  0.00  0.00    +0.117 A 
ATOM     13  C   UNL     1       6.097  -4.969  21.986  0.00  0.00    +0.046 A 
ATOM     14  C   UNL     1       6.795  -3.754  21.976  0.00  0.00    +0.015 A 
ATOM     15  C   UNL     1       7.289  -3.188  23.163  0.00  0.00    +0.021 A 
ATOM     16  C   UNL     1       7.049  -3.888  24.361  0.00  0.00    +0.015 A 
ATOM     17  C   UNL     1       6.374  -5.115  24.373  0.00  0.00    +0.046 A 
BRANCH  12  18
ATOM     18  O   UNL     1       5.193  -6.810  23.153  0.00  0.00    -0.507 OA
ATOM     19  H   UNL     1       4.243  -6.607  23.185  0.00  0.00    +0.292 HD
ENDBRANCH  12  18
ENDBRANCH   1  15
BRANCH   7  20
ATOM     20  O   UNL     1      10.615   2.503  23.315  0.00  0.00    -0.506 OA
ATOM     21  H   UNL     1      10.678   3.461  23.441  0.00  0.00    +0.292 HD
ENDBRANCH   7  20
BRANCH   5  22
ATOM     22  O   UNL     1       6.299   3.794  21.911  0.00  0.00    -0.507 OA
ATOM     23  H   UNL     1       5.975   4.266  22.698  0.00  0.00    +0.292 HD
ENDBRANCH   5  22
BRANCH  11  24
ATOM     24  O   UNL     1      10.188  -2.700  23.647  0.00  0.00    -0.501 OA
ATOM     25  H   UNL     1      10.690  -2.841  22.825  0.00  0.00    +0.292 HD
ENDBRANCH  11  24
TORSDOF 5
ENDMDL
MODEL 6
REMARK VINA RESULT:      -6.5      2.004      6.989
REMARK  Name = 
REMARK  5 active torsions:
REMARK  status: ('A' for Active; 'I' for Inactive)
REMARK    1  A    between atoms: O_1  and  C_2
REMARK    2  A    between atoms: C_5  and  C_8
REMARK    3  A    between atoms: C_9  and  O_10
REMARK    4  A    between atoms: C_17  and  O_18
REMARK    5  A    between atoms: C_20  and  O_21
REMARK                            x       y       z     vdW  Elec       q    Type
REMARK                         _______ _______ _______ _____ _____    ______ ____
ROOT
ATOM      1  C   UNL     1       7.504  -3.538  24.903  0.00  0.00    +0.181 A 
ATOM      2  O   UNL     1       6.732  -2.399  24.687  0.00  0.00    -0.451 OA
ATOM      3  C   UNL     1       7.230  -1.382  23.909  0.00  0.00    +0.147 A 
ATOM      4  C   UNL     1       6.369  -0.305  23.668  0.00  0.00    +0.092 A 
ATOM      5  C   UNL     1       6.810   0.763  22.893  0.00  0.00    +0.124 A 
ATOM      6  C   UNL     1       8.094   0.780  22.363  0.00  0.00    +0.091 A 
ATOM      7  C   UNL     1       8.948  -0.296  22.602  0.00  0.00    +0.135 A 
ATOM      8  C   UNL     1       8.519  -1.385  23.373  0.00  0.00    +0.109 A 
ATOM      9  C   UNL     1       9.369  -2.567  23.634  0.00  0.00    +0.238 A 
ATOM     10  O   UNL     1      10.523  -2.659  23.237  0.00  0.00    -0.283 OA
ATOM     11  C   UNL     1       8.745  -3.689  24.394  0.00  0.00    +0.208 A 
ENDROOT
BRANCH   1  15
ATOM     12  C   UNL     1       5.643  -6.523  27.402  0.00  0.00    +0.117 A 
ATOM     13  C   UNL     1       6.598  -5.666  27.931  0.00  0.00    +0.046 A 
ATOM     14  C   UNL     1       7.180  -4.683  27.120  0.00  0.00    +0.015 A 
ATOM     15  C   UNL     1       6.825  -4.549  25.767  0.00  0.00    +0.021 A 
ATOM     16  C   UNL     1       5.865  -5.447  25.261  0.00  0.00    +0.015 A 
ATOM     17  C   UNL     1       5.261  -6.414  26.074  0.00  0.00    +0.046 A 
BRANCH  12  18
ATOM     18  O   UNL     1       5.114  -7.476  28.220  0.00  0.00    -0.507 OA
ATOM     19  H   UNL     1       4.844  -8.237  27.679  0.00  0.00    +0.292 HD
ENDBRANCH  12  18
ENDBRANCH   1  15
BRANCH   7  20
ATOM     20  O   UNL     1      10.202  -0.266  22.062  0.00  0.00    -0.506 OA
ATOM     21  H   UNL     1      10.270  -0.889  21.326  0.00  0.00    +0.292 HD
ENDBRANCH   7  20
BRANCH   5  22
ATOM     22  O   UNL     1       6.012   1.833  22.621  0.00  0.00    -0.507 OA
ATOM     23  H   UNL     1       6.155   2.521  23.295  0.00  0.00    +0.292 HD
ENDBRANCH   5  22
BRANCH  11  24
ATOM     24  O   UNL     1       9.514  -4.834  24.518  0.00  0.00    -0.501 OA
ATOM     25  H   UNL     1       8.918  -5.559  24.772  0.00  0.00    +0.292 HD
ENDBRANCH  11  24
TORSDOF 5
ENDMDL
MODEL 7
REMARK VINA RESULT:      -6.5      2.446      4.373
REMARK  Name = 
REMARK  5 active torsions:
REMARK  status: ('A' for Active; 'I' for Inactive)
REMARK    1  A    between atoms: O_1  and  C_2
REMARK    2  A    between atoms: C_5  and  C_8
REMARK    3  A    between atoms: C_9  and  O_10
REMARK    4  A    between atoms: C_17  and  O_18
REMARK    5  A    between atoms: C_20  and  O_21
REMARK                            x       y       z     vdW  Elec       q    Type
REMARK                         _______ _______ _______ _____ _____    ______ ____
ROOT
ATOM      1  C   UNL     1       8.651  -0.433  24.424  0.00  0.00    +0.181 A 
ATOM      2  O   UNL     1       8.084  -1.011  23.290  0.00  0.00    -0.451 OA
ATOM      3  C   UNL     1       7.625  -2.304  23.348  0.00  0.00    +0.147 A 
ATOM      4  C   UNL     1       6.995  -2.792  22.197  0.00  0.00    +0.092 A 
ATOM      5  C   UNL     1       6.511  -4.097  22.183  0.00  0.00    +0.124 A 
ATOM      6  C   UNL     1       6.651  -4.923  23.290  0.00  0.00    +0.091 A 
ATOM      7  C   UNL     1       7.276  -4.433  24.437  0.00  0.00    +0.135 A 
ATOM      8  C   UNL     1       7.763  -3.120  24.472  0.00  0.00    +0.109 A 
ATOM      9  C   UNL     1       8.406  -2.536  25.669  0.00  0.00    +0.238 A 
ATOM     10  O   UNL     1       8.602  -3.171  26.697  0.00  0.00    -0.283 OA
ATOM     11  C   UNL     1       8.791  -1.097  25.591  0.00  0.00    +0.208 A 
ENDROOT
BRANCH   1  15
ATOM     12  C   UNL     1       9.854   3.647  23.707  0.00  0.00    +0.117 A 
ATOM     13  C   UNL     1       8.756   3.374  24.509  0.00  0.00    +0.046 A 
ATOM     14  C   UNL     1       8.385   2.046  24.758  0.00  0.00    +0.015 A 
ATOM     15  C   UNL     1       9.100   0.973  24.200  0.00  0.00    +0.021 A 
ATOM     16  C   UNL     1      10.199   1.288  23.377  0.00  0.00    +0.015 A 
ATOM     17  C   UNL     1      10.589   2.613  23.147  0.00  0.00    +0.046 A 
BRANCH  12  18
ATOM     18  O   UNL     1      10.171   4.953  23.475  0.00  0.00    -0.507 OA
ATOM     19  H   UNL     1      10.360   5.065  22.529  0.00  0.00    +0.292 HD
ENDBRANCH  12  18
ENDBRANCH   1  15
BRANCH   7  20
ATOM     20  O   UNL     1       7.393  -5.258  25.518  0.00  0.00    -0.506 OA
ATOM     21  H   UNL     1       7.567  -4.745  26.320  0.00  0.00    +0.292 HD
ENDBRANCH   7  20
BRANCH   5  22
ATOM     22  O   UNL     1       5.883  -4.621  21.093  0.00  0.00    -0.507 OA
ATOM     23  H   UNL     1       5.115  -4.066  20.865  0.00  0.00    +0.292 HD
ENDBRANCH   5  22
BRANCH  11  24
ATOM     24  O   UNL     1       9.275  -0.538  26.762  0.00  0.00    -0.501 OA
ATOM     25  H   UNL     1       9.768  -1.232  27.234  0.00  0.00    +0.292 HD
ENDBRANCH  11  24
TORSDOF 5
ENDMDL
MODEL 8
REMARK VINA RESULT:      -6.4      2.043      6.865
REMARK  Name = 
REMARK  5 active torsions:
REMARK  status: ('A' for Active; 'I' for Inactive)
REMARK    1  A    between atoms: O_1  and  C_2
REMARK    2  A    between atoms: C_5  and  C_8
REMARK    3  A    between atoms: C_9  and  O_10
REMARK    4  A    between atoms: C_17  and  O_18
REMARK    5  A    between atoms: C_20  and  O_21
REMARK                            x       y       z     vdW  Elec       q    Type
REMARK                         _______ _______ _______ _____ _____    ______ ____
ROOT
ATOM      1  C   UNL     1       7.085  -2.813  23.957  0.00  0.00    +0.181 A 
ATOM      2  O   UNL     1       7.324  -1.860  22.970  0.00  0.00    -0.451 OA
ATOM      3  C   UNL     1       8.246  -0.867  23.198  0.00  0.00    +0.147 A 
ATOM      4  C   UNL     1       8.494   0.008  22.133  0.00  0.00    +0.092 A 
ATOM      5  C   UNL     1       9.411   1.041  22.296  0.00  0.00    +0.124 A 
ATOM      6  C   UNL     1      10.077   1.223  23.501  0.00  0.00    +0.091 A 
ATOM      7  C   UNL     1       9.830   0.348  24.560  0.00  0.00    +0.135 A 
ATOM      8  C   UNL     1       8.916  -0.704  24.412  0.00  0.00    +0.109 A 
ATOM      9  C   UNL     1       8.637  -1.681  25.487  0.00  0.00    +0.238 A 
ATOM     10  O   UNL     1       9.148  -1.613  26.597  0.00  0.00    -0.283 OA
ATOM     11  C   UNL     1       7.710  -2.801  25.154  0.00  0.00    +0.208 A 
ENDROOT
BRANCH   1  15
ATOM     12  C   UNL     1       4.109  -5.760  22.921  0.00  0.00    +0.117 A 
ATOM     13  C   UNL     1       3.738  -4.591  23.570  0.00  0.00    +0.046 A 
ATOM     14  C   UNL     1       4.706  -3.627  23.882  0.00  0.00    +0.015 A 
ATOM     15  C   UNL     1       6.059  -3.822  23.558  0.00  0.00    +0.021 A 
ATOM     16  C   UNL     1       6.402  -5.028  22.915  0.00  0.00    +0.015 A 
ATOM     17  C   UNL     1       5.434  -5.982  22.579  0.00  0.00    +0.046 A 
BRANCH  12  18
ATOM     18  O   UNL     1       3.140  -6.679  22.652  0.00  0.00    -0.507 OA
ATOM     19  H   UNL     1       3.475  -7.302  21.986  0.00  0.00    +0.292 HD
ENDBRANCH  12  18
ENDBRANCH   1  15
BRANCH   7  20
ATOM     20  O   UNL     1      10.504   0.536  25.732  0.00  0.00    -0.506 OA
ATOM     21  H   UNL     1      11.393   0.157  25.678  0.00  0.00    +0.292 HD
ENDBRANCH   7  20
BRANCH   5  22
ATOM     22  O   UNL     1       9.696   1.916  21.292  0.00  0.00    -0.507 OA
ATOM     23  H   UNL     1       9.729   1.436  20.445  0.00  0.00    +0.292 HD
ENDBRANCH   5  22
BRANCH  11  24
ATOM     24  O   UNL     1       7.561  -3.771  26.131  0.00  0.00    -0.501 OA
ATOM     25  H   UNL     1       6.899  -3.446  26.765  0.00  0.00    +0.292 HD
ENDBRANCH  11  24
TORSDOF 5
ENDMDL
MODEL 9
REMARK VINA RESULT:      -6.4      1.944      7.235
REMARK  Name = 
REMARK  5 active torsions:
REMARK  status: ('A' for Active; 'I' for Inactive)
REMARK    1  A    between atoms: O_1  and  C_2
REMARK    2  A    between atoms: C_5  and  C_8
REMARK    3  A    between atoms: C_9  and  O_10
REMARK    4  A    between atoms: C_17  and  O_18
REMARK    5  A    between atoms: C_20  and  O_21
REMARK                            x       y       z     vdW  Elec       q    Type
REMARK                         _______ _______ _______ _____ _____    ______ ____
ROOT
ATOM      1  C   UNL     1       7.898  -1.867  24.044  0.00  0.00    +0.181 A 
ATOM      2  O   UNL     1       6.960  -0.853  23.867  0.00  0.00    -0.451 OA
ATOM      3  C   UNL     1       7.322   0.295  23.206  0.00  0.00    +0.147 A 
ATOM      4  C   UNL     1       6.308   1.237  22.994  0.00  0.00    +0.092 A 
ATOM      5  C   UNL     1       6.606   2.426  22.336  0.00  0.00    +0.124 A 
ATOM      6  C   UNL     1       7.895   2.696  21.895  0.00  0.00    +0.091 A 
ATOM      7  C   UNL     1       8.903   1.755  22.104  0.00  0.00    +0.135 A 
ATOM      8  C   UNL     1       8.620   0.548  22.758  0.00  0.00    +0.109 A 
ATOM      9  C   UNL     1       9.640  -0.500  22.981  0.00  0.00    +0.238 A 
ATOM     10  O   UNL     1      10.813  -0.369  22.654  0.00  0.00    -0.283 OA
ATOM     11  C   UNL     1       9.172  -1.771  23.607  0.00  0.00    +0.208 A 
ENDROOT
BRANCH   1  15
ATOM     12  C   UNL     1       6.433  -5.316  26.182  0.00  0.00    +0.117 A 
ATOM     13  C   UNL     1       7.113  -4.313  26.857  0.00  0.00    +0.046 A 
ATOM     14  C   UNL     1       7.565  -3.184  26.161  0.00  0.00    +0.015 A 
ATOM     15  C   UNL     1       7.352  -3.046  24.779  0.00  0.00    +0.021 A 
ATOM     16  C   UNL     1       6.673  -4.092  24.123  0.00  0.00    +0.015 A 
ATOM     17  C   UNL     1       6.197  -5.210  24.820  0.00  0.00    +0.046 A 
BRANCH  12  18
ATOM     18  O   UNL     1       6.026  -6.406  26.892  0.00  0.00    -0.507 OA
ATOM     19  H   UNL     1       6.667  -6.573  27.603  0.00  0.00    +0.292 HD
ENDBRANCH  12  18
ENDBRANCH   1  15
BRANCH   7  20
ATOM     20  O   UNL     1      10.160   2.035  21.652  0.00  0.00    -0.506 OA
ATOM     21  H   UNL     1      10.186   2.013  20.685  0.00  0.00    +0.292 HD
ENDBRANCH   7  20
BRANCH   5  22
ATOM     22  O   UNL     1       5.657   3.374  22.096  0.00  0.00    -0.507 OA
ATOM     23  H   UNL     1       4.780   2.952  22.064  0.00  0.00    +0.292 HD
ENDBRANCH   5  22
BRANCH  11  24
ATOM     24  O   UNL     1      10.113  -2.783  23.692  0.00  0.00    -0.501 OA
ATOM     25  H   UNL     1      10.682  -2.589  24.458  0.00  0.00    +0.292 HD
ENDBRANCH  11  24
TORSDOF 5
ENDMDL
