MODEL 1
REMARK VINA RESULT:      -4.6      0.000      0.000
REMARK  Name = 
REMARK  6 active torsions:
REMARK  status: ('A' for Active; 'I' for Inactive)
REMARK    1  A    between atoms: O_1  and  C_2
REMARK    2  A    between atoms: C_2  and  C_3
REMARK    3  A    between atoms: C_6  and  O_7
REMARK    4  A    between atoms: C_8  and  O_10
REMARK    5  A    between atoms: C_11  and  O_13
REMARK    6  A    between atoms: C_14  and  O_16
REMARK                            x       y       z     vdW  Elec       q    Type
REMARK                         _______ _______ _______ _____ _____    ______ ____
ROOT
ATOM      1  C   UNL     1       7.559  -4.578  23.707  0.00  0.00    +0.178 C 
ATOM      2  C   UNL     1       6.585  -4.388  24.891  0.00  0.00    +0.177 C 
ATOM      3  C   UNL     1       7.257  -3.827  26.157  0.00  0.00    +0.179 C 
ATOM      4  C   UNL     1       8.567  -4.561  26.453  0.00  0.00    +0.201 C 
ATOM      5  C   UNL     1       9.455  -4.658  25.199  0.00  0.00    +0.279 C 
ATOM      6  O   UNL     1       8.779  -5.237  24.092  0.00  0.00    -0.341 OA
ENDROOT
BRANCH   2   7
ATOM      7  O   UNL     1       5.975  -5.659  25.187  0.00  0.00    -0.386 OA
ATOM      8  H   UNL     1       5.038  -5.616  24.891  0.00  0.00    +0.210 HD
ENDBRANCH   2   7
BRANCH   3   9
ATOM      9  O   UNL     1       7.458  -2.417  26.090  0.00  0.00    -0.386 OA
ATOM     10  H   UNL     1       6.975  -1.994  26.834  0.00  0.00    +0.210 HD
ENDBRANCH   3   9
BRANCH   4  11
ATOM     11  O   UNL     1       8.266  -5.893  26.919  0.00  0.00    -0.384 OA
ATOM     12  H   UNL     1       8.102  -5.792  27.883  0.00  0.00    +0.210 HD
ENDBRANCH   4  11
BRANCH   5  13
ATOM     13  O   UNL     1      10.528  -5.547  25.494  0.00  0.00    -0.365 OA
ATOM     14  H   UNL     1      10.930  -5.681  24.618  0.00  0.00    +0.213 HD
ENDBRANCH   5  13
BRANCH   1  15
ATOM     15  C   UNL     1       7.827  -3.288  22.907  0.00  0.00    +0.190 C 
BRANCH  15  16
ATOM     16  O   UNL     1       6.815  -2.301  23.096  0.00  0.00    -0.392 OA
ATOM     17  H   UNL     1       6.149  -2.699  23.690  0.00  0.00    +0.210 HD
ENDBRANCH  15  16
ENDBRANCH   1  15
TORSDOF 6
ENDMDL
MODEL 2
REMARK VINA RESULT:      -4.4      5.016      6.229
REMARK  Name = 
REMARK  6 active torsions:
REMARK  status: ('A' for Active; 'I' for Inactive)
REMARK    1  A    between atoms: O_1  and  C_2
REMARK    2  A    between atoms: C_2  and  C_3
REMARK    3  A    between atoms: C_6  and  O_7
REMARK    4  A    between atoms: C_8  and  O_10
REMARK    5  A    between atoms: C_11  and  O_13
REMARK    6  A    between atoms: C_14  and  O_16
REMARK                            x       y       z     vdW  Elec       q    Type
REMARK                         _______ _______ _______ _____ _____    ______ ____
ROOT
ATOM      1  C   UNL     1       8.652  -0.142  22.587  0.00  0.00    +0.178 C 
ATOM      2  C   UNL     1       8.204   1.311  22.312  0.00  0.00    +0.177 C 
ATOM      3  C   UNL     1       9.268   2.362  22.677  0.00  0.00    +0.179 C 
ATOM      4  C   UNL     1       9.871   2.076  24.054  0.00  0.00    +0.201 C 
ATOM      5  C   UNL     1      10.299   0.603  24.187  0.00  0.00    +0.279 C 
ATOM      6  O   UNL     1       9.247  -0.302  23.888  0.00  0.00    -0.341 OA
ENDROOT
BRANCH   2   7
ATOM      7  O   UNL     1       6.996   1.563  23.055  0.00  0.00    -0.386 OA
ATOM      8  H   UNL     1       7.254   1.778  23.979  0.00  0.00    +0.210 HD
ENDBRANCH   2   7
BRANCH   3   9
ATOM      9  O   UNL     1      10.282   2.481  21.682  0.00  0.00    -0.386 OA
ATOM     10  H   UNL     1      11.115   2.097  22.034  0.00  0.00    +0.210 HD
ENDBRANCH   3   9
BRANCH   4  11
ATOM     11  O   UNL     1       8.891   2.374  25.070  0.00  0.00    -0.384 OA
ATOM     12  H   UNL     1       8.154   2.812  24.589  0.00  0.00    +0.210 HD
ENDBRANCH   4  11
BRANCH   5  13
ATOM     13  O   UNL     1      10.625   0.367  25.554  0.00  0.00    -0.365 OA
ATOM     14  H   UNL     1      10.915   1.248  25.850  0.00  0.00    +0.213 HD
ENDBRANCH   5  13
BRANCH   1  15
ATOM     15  C   UNL     1       9.529  -0.746  21.473  0.00  0.00    +0.190 C 
BRANCH  15  16
ATOM     16  O   UNL     1      10.347  -1.819  21.936  0.00  0.00    -0.392 OA
ATOM     17  H   UNL     1       9.746  -2.460  22.364  0.00  0.00    +0.210 HD
ENDBRANCH  15  16
ENDBRANCH   1  15
TORSDOF 6
ENDMDL
MODEL 3
REMARK VINA RESULT:      -4.4      3.554      5.482
REMARK  Name = 
REMARK  6 active torsions:
REMARK  status: ('A' for Active; 'I' for Inactive)
REMARK    1  A    between atoms: O_1  and  C_2
REMARK    2  A    between atoms: C_2  and  C_3
REMARK    3  A    between atoms: C_6  and  O_7
REMARK    4  A    between atoms: C_8  and  O_10
REMARK    5  A    between atoms: C_11  and  O_13
REMARK    6  A    between atoms: C_14  and  O_16
REMARK                            x       y       z     vdW  Elec       q    Type
REMARK                         _______ _______ _______ _____ _____    ______ ____
ROOT
ATOM      1  C   UNL     1       8.963   0.873  23.179  0.00  0.00    +0.178 C 
ATOM      2  C   UNL     1      10.118  -0.122  23.433  0.00  0.00    +0.177 C 
ATOM      3  C   UNL     1       9.881  -1.510  22.811  0.00  0.00    +0.179 C 
ATOM      4  C   UNL     1       8.464  -2.009  23.105  0.00  0.00    +0.201 C 
ATOM      5  C   UNL     1       7.411  -0.933  22.784  0.00  0.00    +0.279 C 
ATOM      6  O   UNL     1       7.669   0.299  23.440  0.00  0.00    -0.341 OA
ENDROOT
BRANCH   2   7
ATOM      7  O   UNL     1      10.301  -0.252  24.856  0.00  0.00    -0.386 OA
ATOM      8  H   UNL     1       9.440  -0.525  25.244  0.00  0.00    +0.210 HD
ENDBRANCH   2   7
BRANCH   3   9
ATOM      9  O   UNL     1      10.160  -1.537  21.413  0.00  0.00    -0.386 OA
ATOM     10  H   UNL     1       9.312  -1.465  20.921  0.00  0.00    +0.210 HD
ENDBRANCH   3   9
BRANCH   4  11
ATOM     11  O   UNL     1       8.368  -2.360  24.500  0.00  0.00    -0.384 OA
ATOM     12  H   UNL     1       7.558  -1.904  24.820  0.00  0.00    +0.210 HD
ENDBRANCH   4  11
BRANCH   5  13
ATOM     13  O   UNL     1       6.161  -1.382  23.300  0.00  0.00    -0.365 OA
ATOM     14  H   UNL     1       5.908  -2.068  22.657  0.00  0.00    +0.213 HD
ENDBRANCH   5  13
BRANCH   1  15
ATOM     15  C   UNL     1       9.023   1.559  21.801  0.00  0.00    +0.190 C 
BRANCH  15  16
ATOM     16  O   UNL     1      10.258   2.238  21.575  0.00  0.00    -0.392 OA
ATOM     17  H   UNL     1      10.786   2.127  22.390  0.00  0.00    +0.210 HD
ENDBRANCH  15  16
ENDBRANCH   1  15
TORSDOF 6
ENDMDL
MODEL 4
REMARK VINA RESULT:      -4.4      3.947      5.364
REMARK  Name = 
REMARK  6 active torsions:
REMARK  status: ('A' for Active; 'I' for Inactive)
REMARK    1  A    between atoms: O_1  and  C_2
REMARK    2  A    between atoms: C_2  and  C_3
REMARK    3  A    between atoms: C_6  and  O_7
REMARK    4  A    between atoms: C_8  and  O_10
REMARK    5  A    between atoms: C_11  and  O_13
REMARK    6  A    between atoms: C_14  and  O_16
REMARK                            x       y       z     vdW  Elec       q    Type
REMARK                         _______ _______ _______ _____ _____    ______ ____
ROOT
ATOM      1  C   UNL     1      10.459   0.617  22.811  0.00  0.00    +0.178 C 
ATOM      2  C   UNL     1       9.622  -0.463  22.089  0.00  0.00    +0.177 C 
ATOM      3  C   UNL     1       8.289  -0.778  22.790  0.00  0.00    +0.179 C 
ATOM      4  C   UNL     1       8.490  -0.955  24.297  0.00  0.00    +0.201 C 
ATOM      5  C   UNL     1       9.314   0.200  24.895  0.00  0.00    +0.279 C 
ATOM      6  O   UNL     1      10.553   0.390  24.229  0.00  0.00    -0.341 OA
ENDROOT
BRANCH   2   7
ATOM      7  O   UNL     1      10.416  -1.661  21.990  0.00  0.00    -0.386 OA
ATOM      8  H   UNL     1       9.847  -2.364  21.605  0.00  0.00    +0.210 HD
ENDBRANCH   2   7
BRANCH   3   9
ATOM      9  O   UNL     1       7.282   0.193  22.512  0.00  0.00    -0.386 OA
ATOM     10  H   UNL     1       7.258   0.352  21.543  0.00  0.00    +0.210 HD
ENDBRANCH   3   9
BRANCH   4  11
ATOM     11  O   UNL     1       9.180  -2.199  24.538  0.00  0.00    -0.384 OA
ATOM     12  H   UNL     1       8.930  -2.777  23.783  0.00  0.00    +0.210 HD
ENDBRANCH   4  11
BRANCH   5  13
ATOM     13  O   UNL     1       9.653  -0.156  26.232  0.00  0.00    -0.365 OA
ATOM     14  H   UNL     1       9.171   0.512  26.750  0.00  0.00    +0.213 HD
ENDBRANCH   5  13
BRANCH   1  15
ATOM     15  C   UNL     1      10.028   2.060  22.485  0.00  0.00    +0.190 C 
BRANCH  15  16
ATOM     16  O   UNL     1       9.245   2.148  21.296  0.00  0.00    -0.392 OA
ATOM     17  H   UNL     1       8.467   2.696  21.518  0.00  0.00    +0.210 HD
ENDBRANCH  15  16
ENDBRANCH   1  15
TORSDOF 6
ENDMDL
MODEL 5
REMARK VINA RESULT:      -4.4      4.296      6.396
REMARK  Name = 
REMARK  6 active torsions:
REMARK  status: ('A' for Active; 'I' for Inactive)
REMARK    1  A    between atoms: O_1  and  C_2
REMARK    2  A    between atoms: C_2  and  C_3
REMARK    3  A    between atoms: C_6  and  O_7
REMARK    4  A    between atoms: C_8  and  O_10
REMARK    5  A    between atoms: C_11  and  O_13
REMARK    6  A    between atoms: C_14  and  O_16
REMARK                            x       y       z     vdW  Elec       q    Type
REMARK                         _______ _______ _______ _____ _____    ______ ____
ROOT
ATOM      1  C   UNL     1       8.571  -0.053  24.097  0.00  0.00    +0.178 C 
ATOM      2  C   UNL     1       8.041  -0.246  22.658  0.00  0.00    +0.177 C 
ATOM      3  C   UNL     1       9.086   0.065  21.571  0.00  0.00    +0.179 C 
ATOM      4  C   UNL     1       9.810   1.380  21.868  0.00  0.00    +0.201 C 
ATOM      5  C   UNL     1      10.310   1.432  23.324  0.00  0.00    +0.279 C 
ATOM      6  O   UNL     1       9.276   1.191  24.266  0.00  0.00    -0.341 OA
ENDROOT
BRANCH   2   7
ATOM      7  O   UNL     1       6.888   0.599  22.481  0.00  0.00    -0.386 OA
ATOM      8  H   UNL     1       6.261   0.403  23.213  0.00  0.00    +0.210 HD
ENDBRANCH   2   7
BRANCH   3   9
ATOM      9  O   UNL     1      10.010  -1.004  21.380  0.00  0.00    -0.386 OA
ATOM     10  H   UNL     1      10.775  -0.870  21.981  0.00  0.00    +0.210 HD
ENDBRANCH   3   9
BRANCH   4  11
ATOM     11  O   UNL     1       8.905   2.479  21.642  0.00  0.00    -0.384 OA
ATOM     12  H   UNL     1       9.265   2.946  20.856  0.00  0.00    +0.210 HD
ENDBRANCH   4  11
BRANCH   5  13
ATOM     13  O   UNL     1      10.755   2.761  23.582  0.00  0.00    -0.365 OA
ATOM     14  H   UNL     1       9.924   3.216  23.804  0.00  0.00    +0.213 HD
ENDBRANCH   5  13
BRANCH   1  15
ATOM     15  C   UNL     1       9.379  -1.251  24.630  0.00  0.00    +0.190 C 
BRANCH  15  16
ATOM     16  O   UNL     1       9.157  -2.445  23.880  0.00  0.00    -0.392 OA
ATOM     17  H   UNL     1       9.829  -2.452  23.170  0.00  0.00    +0.210 HD
ENDBRANCH  15  16
ENDBRANCH   1  15
TORSDOF 6
ENDMDL
MODEL 6
REMARK VINA RESULT:      -4.3      5.005      6.580
REMARK  Name = 
REMARK  6 active torsions:
REMARK  status: ('A' for Active; 'I' for Inactive)
REMARK    1  A    between atoms: O_1  and  C_2
REMARK    2  A    between atoms: C_2  and  C_3
REMARK    3  A    between atoms: C_6  and  O_7
REMARK    4  A    between atoms: C_8  and  O_10
REMARK    5  A    between atoms: C_11  and  O_13
REMARK    6  A    between atoms: C_14  and  O_16
REMARK                            x       y       z     vdW  Elec       q    Type
REMARK                         _______ _______ _______ _____ _____    ______ ____
ROOT
ATOM      1  C   UNL     1       8.961   0.186  21.759  0.00  0.00    +0.178 C 
ATOM      2  C   UNL     1      10.152   1.041  22.247  0.00  0.00    +0.177 C 
ATOM      3  C   UNL     1      10.184   1.236  23.774  0.00  0.00    +0.179 C 
ATOM      4  C   UNL     1       8.799   1.612  24.307  0.00  0.00    +0.201 C 
ATOM      5  C   UNL     1       7.711   0.668  23.767  0.00  0.00    +0.279 C 
ATOM      6  O   UNL     1       7.711   0.586  22.349  0.00  0.00    -0.341 OA
ENDROOT
BRANCH   2   7
ATOM      7  O   UNL     1      10.088   2.324  21.594  0.00  0.00    -0.386 OA
ATOM      8  H   UNL     1      11.000   2.560  21.312  0.00  0.00    +0.210 HD
ENDBRANCH   2   7
BRANCH   3   9
ATOM      9  O   UNL     1      10.711   0.102  24.459  0.00  0.00    -0.386 OA
ATOM     10  H   UNL     1      10.031  -0.233  25.083  0.00  0.00    +0.210 HD
ENDBRANCH   3   9
BRANCH   4  11
ATOM     11  O   UNL     1       8.491   2.963  23.907  0.00  0.00    -0.384 OA
ATOM     12  H   UNL     1       9.358   3.425  23.886  0.00  0.00    +0.210 HD
ENDBRANCH   4  11
BRANCH   5  13
ATOM     13  O   UNL     1       6.444   1.221  24.114  0.00  0.00    -0.365 OA
ATOM     14  H   UNL     1       6.165   1.635  23.278  0.00  0.00    +0.213 HD
ENDBRANCH   5  13
BRANCH   1  15
ATOM     15  C   UNL     1       9.194  -1.333  21.877  0.00  0.00    +0.190 C 
BRANCH  15  16
ATOM     16  O   UNL     1      10.578  -1.677  21.917  0.00  0.00    -0.392 OA
ATOM     17  H   UNL     1      11.065  -0.904  21.570  0.00  0.00    +0.210 HD
ENDBRANCH  15  16
ENDBRANCH   1  15
TORSDOF 6
ENDMDL
MODEL 7
REMARK VINA RESULT:      -4.3      5.288      7.153
REMARK  Name = 
REMARK  6 active torsions:
REMARK  status: ('A' for Active; 'I' for Inactive)
REMARK    1  A    between atoms: O_1  and  C_2
REMARK    2  A    between atoms: C_2  and  C_3
REMARK    3  A    between atoms: C_6  and  O_7
REMARK    4  A    between atoms: C_8  and  O_10
REMARK    5  A    between atoms: C_11  and  O_13
REMARK    6  A    between atoms: C_14  and  O_16
REMARK                            x       y       z     vdW  Elec       q    Type
REMARK                         _______ _______ _______ _____ _____    ______ ____
ROOT
ATOM      1  C   UNL     1       8.841   2.653  24.460  0.00  0.00    +0.178 C 
ATOM      2  C   UNL     1      10.136   1.921  24.041  0.00  0.00    +0.177 C 
ATOM      3  C   UNL     1      10.041   1.243  22.663  0.00  0.00    +0.179 C 
ATOM      4  C   UNL     1       8.732   0.462  22.526  0.00  0.00    +0.201 C 
ATOM      5  C   UNL     1       7.520   1.313  22.948  0.00  0.00    +0.279 C 
ATOM      6  O   UNL     1       7.661   1.856  24.252  0.00  0.00    -0.341 OA
ENDROOT
BRANCH   2   7
ATOM      7  O   UNL     1      10.447   0.938  25.047  0.00  0.00    -0.386 OA
ATOM      8  H   UNL     1      11.391   0.685  24.935  0.00  0.00    +0.210 HD
ENDBRANCH   2   7
BRANCH   3   9
ATOM      9  O   UNL     1      10.209   2.165  21.588  0.00  0.00    -0.386 OA
ATOM     10  H   UNL     1       9.427   2.758  21.557  0.00  0.00    +0.210 HD
ENDBRANCH   3   9
BRANCH   4  11
ATOM     11  O   UNL     1       8.794  -0.713  23.359  0.00  0.00    -0.384 OA
ATOM     12  H   UNL     1       8.063  -0.603  24.007  0.00  0.00    +0.210 HD
ENDBRANCH   4  11
BRANCH   5  13
ATOM     13  O   UNL     1       6.388   0.452  23.016  0.00  0.00    -0.365 OA
ATOM     14  H   UNL     1       6.767  -0.356  23.406  0.00  0.00    +0.213 HD
ENDBRANCH   5  13
BRANCH   1  15
ATOM     15  C   UNL     1       8.699   4.063  23.855  0.00  0.00    +0.190 C 
BRANCH  15  16
ATOM     16  O   UNL     1       9.927   4.566  23.331  0.00  0.00    -0.392 OA
ATOM     17  H   UNL     1      10.292   5.165  24.012  0.00  0.00    +0.210 HD
ENDBRANCH  15  16
ENDBRANCH   1  15
TORSDOF 6
ENDMDL
MODEL 8
REMARK VINA RESULT:      -4.3      4.878      6.796
REMARK  Name = 
REMARK  6 active torsions:
REMARK  status: ('A' for Active; 'I' for Inactive)
REMARK    1  A    between atoms: O_1  and  C_2
REMARK    2  A    between atoms: C_2  and  C_3
REMARK    3  A    between atoms: C_6  and  O_7
REMARK    4  A    between atoms: C_8  and  O_10
REMARK    5  A    between atoms: C_11  and  O_13
REMARK    6  A    between atoms: C_14  and  O_16
REMARK                            x       y       z     vdW  Elec       q    Type
REMARK                         _______ _______ _______ _____ _____    ______ ____
ROOT
ATOM      1  C   UNL     1       9.039  -0.412  23.651  0.00  0.00    +0.178 C 
ATOM      2  C   UNL     1      10.174   0.086  22.728  0.00  0.00    +0.177 C 
ATOM      3  C   UNL     1      10.048   1.572  22.345  0.00  0.00    +0.179 C 
ATOM      4  C   UNL     1       8.617   1.909  21.921  0.00  0.00    +0.201 C 
ATOM      5  C   UNL     1       7.589   1.382  22.939  0.00  0.00    +0.279 C 
ATOM      6  O   UNL     1       7.735  -0.007  23.195  0.00  0.00    -0.341 OA
ENDROOT
BRANCH   2   7
ATOM      7  O   UNL     1      10.180  -0.724  21.537  0.00  0.00    -0.386 OA
ATOM      8  H   UNL     1       9.510  -0.352  20.920  0.00  0.00    +0.210 HD
ENDBRANCH   2   7
BRANCH   3   9
ATOM      9  O   UNL     1      10.501   2.443  23.379  0.00  0.00    -0.386 OA
ATOM     10  H   UNL     1       9.974   2.270  24.189  0.00  0.00    +0.210 HD
ENDBRANCH   3   9
BRANCH   4  11
ATOM     11  O   UNL     1       8.353   1.314  20.634  0.00  0.00    -0.384 OA
ATOM     12  H   UNL     1       7.381   1.393  20.514  0.00  0.00    +0.210 HD
ENDBRANCH   4  11
BRANCH   5  13
ATOM     13  O   UNL     1       6.294   1.526  22.361  0.00  0.00    -0.365 OA
ATOM     14  H   UNL     1       5.737   1.017  22.977  0.00  0.00    +0.213 HD
ENDBRANCH   5  13
BRANCH   1  15
ATOM     15  C   UNL     1       9.257  -0.083  25.140  0.00  0.00    +0.190 C 
BRANCH  15  16
ATOM     16  O   UNL     1      10.578   0.382  25.415  0.00  0.00    -0.392 OA
ATOM     17  H   UNL     1      10.693   0.327  26.384  0.00  0.00    +0.210 HD
ENDBRANCH  15  16
ENDBRANCH   1  15
TORSDOF 6
ENDMDL
MODEL 9
REMARK VINA RESULT:      -4.3      4.546      6.234
REMARK  Name = 
REMARK  6 active torsions:
REMARK  status: ('A' for Active; 'I' for Inactive)
REMARK    1  A    between atoms: O_1  and  C_2
REMARK    2  A    between atoms: C_2  and  C_3
REMARK    3  A    between atoms: C_6  and  O_7
REMARK    4  A    between atoms: C_8  and  O_10
REMARK    5  A    between atoms: C_11  and  O_13
REMARK    6  A    between atoms: C_14  and  O_16
REMARK                            x       y       z     vdW  Elec       q    Type
REMARK                         _______ _______ _______ _____ _____    ______ ____
ROOT
ATOM      1  C   UNL     1       9.777  -0.480  23.675  0.00  0.00    +0.178 C 
ATOM      2  C   UNL     1       8.540  -0.006  24.471  0.00  0.00    +0.177 C 
ATOM      3  C   UNL     1       7.576   0.868  23.649  0.00  0.00    +0.179 C 
ATOM      4  C   UNL     1       8.341   1.936  22.862  0.00  0.00    +0.201 C 
ATOM      5  C   UNL     1       9.529   1.328  22.094  0.00  0.00    +0.279 C 
ATOM      6  O   UNL     1      10.400   0.584  22.933  0.00  0.00    -0.341 OA
ENDROOT
BRANCH   2   7
ATOM      7  O   UNL     1       8.996   0.725  25.625  0.00  0.00    -0.386 OA
ATOM      8  H   UNL     1       8.204   0.971  26.154  0.00  0.00    +0.210 HD
ENDBRANCH   2   7
BRANCH   3   9
ATOM      9  O   UNL     1       6.735   0.098  22.793  0.00  0.00    -0.386 OA
ATOM     10  H   UNL     1       7.291  -0.317  22.096  0.00  0.00    +0.210 HD
ENDBRANCH   3   9
BRANCH   4  11
ATOM     11  O   UNL     1       8.835   2.933  23.779  0.00  0.00    -0.384 OA
ATOM     12  H   UNL     1       8.998   2.448  24.618  0.00  0.00    +0.210 HD
ENDBRANCH   4  11
BRANCH   5  13
ATOM     13  O   UNL     1      10.315   2.403  21.590  0.00  0.00    -0.365 OA
ATOM     14  H   UNL     1       9.643   2.970  21.172  0.00  0.00    +0.213 HD
ENDBRANCH   5  13
BRANCH   1  15
ATOM     15  C   UNL     1       9.515  -1.719  22.796  0.00  0.00    +0.190 C 
BRANCH  15  16
ATOM     16  O   UNL     1      10.329  -1.747  21.625  0.00  0.00    -0.392 OA
ATOM     17  H   UNL     1      10.884  -2.548  21.694  0.00  0.00    +0.210 HD
ENDBRANCH  15  16
ENDBRANCH   1  15
TORSDOF 6
ENDMDL
