MODEL 1
REMARK VINA RESULT:      -6.6      0.000      0.000
REMARK  Name = 
REMARK  3 active torsions:
REMARK  status: ('A' for Active; 'I' for Inactive)
REMARK    1  A    between atoms: C_1  and  O_2
REMARK    2  A    between atoms: O_2  and  C_3
REMARK    3  A    between atoms: C_6  and  C_9
REMARK                            x       y       z     vdW  Elec       q    Type
REMARK                         _______ _______ _______ _____ _____    ______ ____
ROOT
ATOM      1  C   UNL     1       9.231  -2.150  23.967  0.00  0.00    +0.161 C 
ATOM      2  C   UNL     1       8.795  -1.090  24.972  0.00  0.00    +0.179 C 
ATOM      3  O   UNL     1       8.268  -1.259  26.060  0.00  0.00    -0.291 OA
ATOM      4  C   UNL     1       9.130   0.229  24.444  0.00  0.00    +0.029 A 
ATOM      5  C   UNL     1       9.786   0.099  23.232  0.00  0.00    +0.029 A 
ATOM      6  C   UNL     1      10.208   1.201  22.510  0.00  0.00    +0.012 A 
ATOM      7  C   UNL     1       9.948   2.462  23.051  0.00  0.00    +0.001 A 
ATOM      8  C   UNL     1       9.285   2.595  24.287  0.00  0.00    +0.001 A 
ATOM      9  C   UNL     1       8.868   1.467  25.000  0.00  0.00    +0.012 A 
ATOM     10  C   UNL     1       9.924  -1.316  22.893  0.00  0.00    +0.179 C 
ATOM     11  O   UNL     1      10.511  -1.707  21.899  0.00  0.00    -0.291 OA
ENDROOT
BRANCH   1  15
ATOM     12  C   UNL     1       5.845  -4.537  22.671  0.00  0.00    +0.120 A 
ATOM     13  C   UNL     1       5.946  -3.193  22.316  0.00  0.00    +0.046 A 
ATOM     14  C   UNL     1       7.048  -2.436  22.730  0.00  0.00    +0.008 A 
ATOM     15  C   UNL     1       8.081  -3.016  23.486  0.00  0.00    -0.029 A 
ATOM     16  C   UNL     1       7.989  -4.384  23.780  0.00  0.00    +0.008 A 
ATOM     17  C   UNL     1       6.886  -5.137  23.374  0.00  0.00    +0.046 A 
BRANCH  12  19
ATOM     18  C   UNL     1       3.743  -5.369  23.296  0.00  0.00    +0.277 C 
ATOM     19  O   UNL     1       4.712  -5.189  22.265  0.00  0.00    -0.495 OA
ENDBRANCH  12  19
ENDBRANCH   1  15
TORSDOF 2
ENDMDL
MODEL 2
REMARK VINA RESULT:      -6.6      1.988      6.228
REMARK  Name = 
REMARK  3 active torsions:
REMARK  status: ('A' for Active; 'I' for Inactive)
REMARK    1  A    between atoms: C_1  and  O_2
REMARK    2  A    between atoms: O_2  and  C_3
REMARK    3  A    between atoms: C_6  and  C_9
REMARK                            x       y       z     vdW  Elec       q    Type
REMARK                         _______ _______ _______ _____ _____    ______ ____
ROOT
ATOM      1  C   UNL     1       7.889  -3.336  22.508  0.00  0.00    +0.161 C 
ATOM      2  C   UNL     1       6.416  -3.722  22.438  0.00  0.00    +0.179 C 
ATOM      3  O   UNL     1       5.626  -3.509  21.532  0.00  0.00    -0.291 OA
ATOM      4  C   UNL     1       6.057  -4.443  23.656  0.00  0.00    +0.029 A 
ATOM      5  C   UNL     1       7.175  -4.597  24.458  0.00  0.00    +0.029 A 
ATOM      6  C   UNL     1       7.109  -5.240  25.682  0.00  0.00    +0.012 A 
ATOM      7  C   UNL     1       5.865  -5.734  26.083  0.00  0.00    +0.001 A 
ATOM      8  C   UNL     1       4.730  -5.581  25.264  0.00  0.00    +0.001 A 
ATOM      9  C   UNL     1       4.819  -4.929  24.032  0.00  0.00    +0.012 A 
ATOM     10  C   UNL     1       8.336  -3.990  23.813  0.00  0.00    +0.179 C 
ATOM     11  O   UNL     1       9.458  -4.031  24.287  0.00  0.00    -0.291 OA
ENDROOT
BRANCH   1  15
ATOM     12  C   UNL     1       8.658   0.932  22.311  0.00  0.00    +0.120 A 
ATOM     13  C   UNL     1       9.488   0.028  21.652  0.00  0.00    +0.046 A 
ATOM     14  C   UNL     1       9.224  -1.345  21.713  0.00  0.00    +0.008 A 
ATOM     15  C   UNL     1       8.111  -1.837  22.414  0.00  0.00    -0.029 A 
ATOM     16  C   UNL     1       7.254  -0.907  23.019  0.00  0.00    +0.008 A 
ATOM     17  C   UNL     1       7.522   0.463  22.965  0.00  0.00    +0.046 A 
BRANCH  12  19
ATOM     18  C   UNL     1      10.126   2.598  23.065  0.00  0.00    +0.277 C 
ATOM     19  O   UNL     1       9.017   2.251  22.239  0.00  0.00    -0.495 OA
ENDBRANCH  12  19
ENDBRANCH   1  15
TORSDOF 2
ENDMDL
MODEL 3
REMARK VINA RESULT:      -6.6      1.791      6.388
REMARK  Name = 
REMARK  3 active torsions:
REMARK  status: ('A' for Active; 'I' for Inactive)
REMARK    1  A    between atoms: C_1  and  O_2
REMARK    2  A    between atoms: O_2  and  C_3
REMARK    3  A    between atoms: C_6  and  C_9
REMARK                            x       y       z     vdW  Elec       q    Type
REMARK                         _______ _______ _______ _____ _____    ______ ____
ROOT
ATOM      1  C   UNL     1       8.015  -2.244  24.512  0.00  0.00    +0.161 C 
ATOM      2  C   UNL     1       8.603  -3.587  24.096  0.00  0.00    +0.179 C 
ATOM      3  O   UNL     1       9.736  -4.001  24.283  0.00  0.00    -0.291 OA
ATOM      4  C   UNL     1       7.568  -4.371  23.429  0.00  0.00    +0.029 A 
ATOM      5  C   UNL     1       6.372  -3.674  23.435  0.00  0.00    +0.029 A 
ATOM      6  C   UNL     1       5.226  -4.189  22.856  0.00  0.00    +0.012 A 
ATOM      7  C   UNL     1       5.318  -5.449  22.259  0.00  0.00    +0.001 A 
ATOM      8  C   UNL     1       6.533  -6.160  22.257  0.00  0.00    +0.001 A 
ATOM      9  C   UNL     1       7.678  -5.620  22.850  0.00  0.00    +0.012 A 
ATOM     10  C   UNL     1       6.549  -2.391  24.112  0.00  0.00    +0.179 C 
ATOM     11  O   UNL     1       5.636  -1.606  24.298  0.00  0.00    -0.291 OA
ENDROOT
BRANCH   1  15
ATOM     12  C   UNL     1      10.001   1.221  22.811  0.00  0.00    +0.120 A 
ATOM     13  C   UNL     1       9.807   1.116  24.186  0.00  0.00    +0.046 A 
ATOM     14  C   UNL     1       9.176  -0.010  24.725  0.00  0.00    +0.008 A 
ATOM     15  C   UNL     1       8.748  -1.064  23.899  0.00  0.00    -0.029 A 
ATOM     16  C   UNL     1       9.008  -0.966  22.525  0.00  0.00    +0.008 A 
ATOM     17  C   UNL     1       9.631   0.162  21.986  0.00  0.00    +0.046 A 
BRANCH  12  19
ATOM     18  C   UNL     1      10.919   3.297  23.401  0.00  0.00    +0.277 C 
ATOM     19  O   UNL     1      10.582   2.378  22.365  0.00  0.00    -0.495 OA
ENDBRANCH  12  19
ENDBRANCH   1  15
TORSDOF 2
ENDMDL
MODEL 4
REMARK VINA RESULT:      -6.6      1.303      1.401
REMARK  Name = 
REMARK  3 active torsions:
REMARK  status: ('A' for Active; 'I' for Inactive)
REMARK    1  A    between atoms: C_1  and  O_2
REMARK    2  A    between atoms: O_2  and  C_3
REMARK    3  A    between atoms: C_6  and  C_9
REMARK                            x       y       z     vdW  Elec       q    Type
REMARK                         _______ _______ _______ _____ _____    ______ ____
ROOT
ATOM      1  C   UNL     1       9.816  -1.834  24.374  0.00  0.00    +0.161 C 
ATOM      2  C   UNL     1       9.424  -0.605  25.185  0.00  0.00    +0.179 C 
ATOM      3  O   UNL     1       9.168  -0.542  26.377  0.00  0.00    -0.291 OA
ATOM      4  C   UNL     1       9.417   0.561  24.306  0.00  0.00    +0.029 A 
ATOM      5  C   UNL     1       9.822   0.193  23.034  0.00  0.00    +0.029 A 
ATOM      6  C   UNL     1       9.896   1.109  21.999  0.00  0.00    +0.012 A 
ATOM      7  C   UNL     1       9.544   2.431  22.285  0.00  0.00    +0.001 A 
ATOM      8  C   UNL     1       9.138   2.805  23.580  0.00  0.00    +0.001 A 
ATOM      9  C   UNL     1       9.071   1.863  24.610  0.00  0.00    +0.012 A 
ATOM     10  C   UNL     1      10.123  -1.237  23.003  0.00  0.00    +0.179 C 
ATOM     11  O   UNL     1      10.549  -1.806  22.013  0.00  0.00    -0.291 OA
ENDROOT
BRANCH   1  15
ATOM     12  C   UNL     1       6.686  -4.839  24.514  0.00  0.00    +0.120 A 
ATOM     13  C   UNL     1       6.477  -3.623  23.868  0.00  0.00    +0.046 A 
ATOM     14  C   UNL     1       7.496  -2.666  23.818  0.00  0.00    +0.008 A 
ATOM     15  C   UNL     1       8.753  -2.918  24.395  0.00  0.00    -0.029 A 
ATOM     16  C   UNL     1       8.963  -4.172  24.987  0.00  0.00    +0.008 A 
ATOM     17  C   UNL     1       7.942  -5.124  25.042  0.00  0.00    +0.046 A 
BRANCH  12  19
ATOM     18  C   UNL     1       5.321  -6.190  25.861  0.00  0.00    +0.277 C 
ATOM     19  O   UNL     1       5.620  -5.697  24.556  0.00  0.00    -0.495 OA
ENDBRANCH  12  19
ENDBRANCH   1  15
TORSDOF 2
ENDMDL
MODEL 5
REMARK VINA RESULT:      -6.5      2.342      6.132
REMARK  Name = 
REMARK  3 active torsions:
REMARK  status: ('A' for Active; 'I' for Inactive)
REMARK    1  A    between atoms: C_1  and  O_2
REMARK    2  A    between atoms: O_2  and  C_3
REMARK    3  A    between atoms: C_6  and  C_9
REMARK                            x       y       z     vdW  Elec       q    Type
REMARK                         _______ _______ _______ _____ _____    ______ ____
ROOT
ATOM      1  C   UNL     1       8.450  -3.393  23.488  0.00  0.00    +0.161 C 
ATOM      2  C   UNL     1       6.965  -3.322  23.821  0.00  0.00    +0.179 C 
ATOM      3  O   UNL     1       6.072  -2.806  23.167  0.00  0.00    -0.291 OA
ATOM      4  C   UNL     1       6.729  -4.012  25.086  0.00  0.00    +0.029 A 
ATOM      5  C   UNL     1       7.913  -4.560  25.550  0.00  0.00    +0.029 A 
ATOM      6  C   UNL     1       7.972  -5.263  26.741  0.00  0.00    +0.012 A 
ATOM      7  C   UNL     1       6.785  -5.404  27.464  0.00  0.00    +0.001 A 
ATOM      8  C   UNL     1       5.580  -4.851  26.988  0.00  0.00    +0.001 A 
ATOM      9  C   UNL     1       5.544  -4.145  25.782  0.00  0.00    +0.012 A 
ATOM     10  C   UNL     1       8.996  -4.265  24.616  0.00  0.00    +0.179 C 
ATOM     11  O   UNL     1      10.134  -4.676  24.765  0.00  0.00    -0.291 OA
ENDROOT
BRANCH   1  15
ATOM     12  C   UNL     1      10.164   0.582  23.169  0.00  0.00    +0.120 A 
ATOM     13  C   UNL     1      10.034  -0.039  24.409  0.00  0.00    +0.046 A 
ATOM     14  C   UNL     1       9.491  -1.326  24.499  0.00  0.00    +0.008 A 
ATOM     15  C   UNL     1       9.089  -2.024  23.347  0.00  0.00    -0.029 A 
ATOM     16  C   UNL     1       9.285  -1.404  22.104  0.00  0.00    +0.008 A 
ATOM     17  C   UNL     1       9.820  -0.117  22.016  0.00  0.00    +0.046 A 
BRANCH  12  19
ATOM     18  C   UNL     1       9.729   2.841  23.627  0.00  0.00    +0.277 C 
ATOM     19  O   UNL     1      10.659   1.858  23.177  0.00  0.00    -0.495 OA
ENDBRANCH  12  19
ENDBRANCH   1  15
TORSDOF 2
ENDMDL
MODEL 6
REMARK VINA RESULT:      -6.4      2.277      6.166
REMARK  Name = 
REMARK  3 active torsions:
REMARK  status: ('A' for Active; 'I' for Inactive)
REMARK    1  A    between atoms: C_1  and  O_2
REMARK    2  A    between atoms: O_2  and  C_3
REMARK    3  A    between atoms: C_6  and  C_9
REMARK                            x       y       z     vdW  Elec       q    Type
REMARK                         _______ _______ _______ _____ _____    ______ ____
ROOT
ATOM      1  C   UNL     1       8.577  -1.584  23.136  0.00  0.00    +0.161 C 
ATOM      2  C   UNL     1       7.256  -1.652  23.894  0.00  0.00    +0.179 C 
ATOM      3  O   UNL     1       6.235  -1.019  23.681  0.00  0.00    -0.291 OA
ATOM      4  C   UNL     1       7.370  -2.649  24.954  0.00  0.00    +0.029 A 
ATOM      5  C   UNL     1       8.613  -3.254  24.900  0.00  0.00    +0.029 A 
ATOM      6  C   UNL     1       8.986  -4.234  25.803  0.00  0.00    +0.012 A 
ATOM      7  C   UNL     1       8.056  -4.595  26.781  0.00  0.00    +0.001 A 
ATOM      8  C   UNL     1       6.788  -3.983  26.832  0.00  0.00    +0.001 A 
ATOM      9  C   UNL     1       6.433  -2.996  25.909  0.00  0.00    +0.012 A 
ATOM     10  C   UNL     1       9.390  -2.694  23.797  0.00  0.00    +0.179 C 
ATOM     11  O   UNL     1      10.504  -3.089  23.500  0.00  0.00    -0.291 OA
ENDROOT
BRANCH   1  15
ATOM     12  C   UNL     1      10.246   2.420  23.297  0.00  0.00    +0.120 A 
ATOM     13  C   UNL     1       9.981   1.712  24.467  0.00  0.00    +0.046 A 
ATOM     14  C   UNL     1       9.454   0.418  24.403  0.00  0.00    +0.008 A 
ATOM     15  C   UNL     1       9.204  -0.202  23.166  0.00  0.00    -0.029 A 
ATOM     16  C   UNL     1       9.535   0.505  22.001  0.00  0.00    +0.008 A 
ATOM     17  C   UNL     1      10.054   1.800  22.065  0.00  0.00    +0.046 A 
BRANCH  12  19
ATOM     18  C   UNL     1       9.730   4.628  23.897  0.00  0.00    +0.277 C 
ATOM     19  O   UNL     1      10.714   3.697  23.451  0.00  0.00    -0.495 OA
ENDBRANCH  12  19
ENDBRANCH   1  15
TORSDOF 2
ENDMDL
MODEL 7
REMARK VINA RESULT:      -6.4      2.279      2.992
REMARK  Name = 
REMARK  3 active torsions:
REMARK  status: ('A' for Active; 'I' for Inactive)
REMARK    1  A    between atoms: C_1  and  O_2
REMARK    2  A    between atoms: O_2  and  C_3
REMARK    3  A    between atoms: C_6  and  C_9
REMARK                            x       y       z     vdW  Elec       q    Type
REMARK                         _______ _______ _______ _____ _____    ______ ____
ROOT
ATOM      1  C   UNL     1       8.103  -2.449  23.436  0.00  0.00    +0.161 C 
ATOM      2  C   UNL     1       9.577  -2.066  23.490  0.00  0.00    +0.179 C 
ATOM      3  O   UNL     1      10.547  -2.787  23.319  0.00  0.00    -0.291 OA
ATOM      4  C   UNL     1       9.686  -0.636  23.762  0.00  0.00    +0.029 A 
ATOM      5  C   UNL     1       8.423  -0.072  23.828  0.00  0.00    +0.029 A 
ATOM      6  C   UNL     1       8.238   1.275  24.086  0.00  0.00    +0.012 A 
ATOM      7  C   UNL     1       9.382   2.055  24.277  0.00  0.00    +0.001 A 
ATOM      8  C   UNL     1      10.666   1.482  24.204  0.00  0.00    +0.001 A 
ATOM      9  C   UNL     1      10.828   0.119  23.942  0.00  0.00    +0.012 A 
ATOM     10  C   UNL     1       7.409  -1.100  23.599  0.00  0.00    +0.179 C 
ATOM     11  O   UNL     1       6.215  -0.858  23.555  0.00  0.00    -0.291 OA
ENDROOT
BRANCH   1  15
ATOM     12  C   UNL     1       6.897  -5.422  26.361  0.00  0.00    +0.120 A 
ATOM     13  C   UNL     1       6.350  -5.421  25.080  0.00  0.00    +0.046 A 
ATOM     14  C   UNL     1       6.754  -4.465  24.142  0.00  0.00    +0.008 A 
ATOM     15  C   UNL     1       7.732  -3.507  24.460  0.00  0.00    -0.029 A 
ATOM     16  C   UNL     1       8.314  -3.564  25.734  0.00  0.00    +0.008 A 
ATOM     17  C   UNL     1       7.905  -4.513  26.673  0.00  0.00    +0.046 A 
BRANCH  12  19
ATOM     18  C   UNL     1       5.046  -6.711  27.003  0.00  0.00    +0.277 C 
ATOM     19  O   UNL     1       6.410  -6.360  27.230  0.00  0.00    -0.495 OA
ENDBRANCH  12  19
ENDBRANCH   1  15
TORSDOF 2
ENDMDL
MODEL 8
REMARK VINA RESULT:      -6.3      2.749      4.809
REMARK  Name = 
REMARK  3 active torsions:
REMARK  status: ('A' for Active; 'I' for Inactive)
REMARK    1  A    between atoms: C_1  and  O_2
REMARK    2  A    between atoms: O_2  and  C_3
REMARK    3  A    between atoms: C_6  and  C_9
REMARK                            x       y       z     vdW  Elec       q    Type
REMARK                         _______ _______ _______ _____ _____    ______ ____
ROOT
ATOM      1  C   UNL     1       9.525   2.261  22.367  0.00  0.00    +0.161 C 
ATOM      2  C   UNL     1      10.218   3.289  23.253  0.00  0.00    +0.179 C 
ATOM      3  O   UNL     1      11.409   3.384  23.503  0.00  0.00    -0.291 OA
ATOM      4  C   UNL     1       9.218   4.215  23.776  0.00  0.00    +0.029 A 
ATOM      5  C   UNL     1       7.972   3.904  23.258  0.00  0.00    +0.029 A 
ATOM      6  C   UNL     1       6.840   4.623  23.600  0.00  0.00    +0.012 A 
ATOM      7  C   UNL     1       7.000   5.686  24.493  0.00  0.00    +0.001 A 
ATOM      8  C   UNL     1       8.268   6.006  25.015  0.00  0.00    +0.001 A 
ATOM      9  C   UNL     1       9.397   5.265  24.655  0.00  0.00    +0.012 A 
ATOM     10  C   UNL     1       8.081   2.756  22.361  0.00  0.00    +0.179 C 
ATOM     11  O   UNL     1       7.136   2.309  21.735  0.00  0.00    -0.291 OA
ENDROOT
BRANCH   1  15
ATOM     12  C   UNL     1       9.988  -1.859  23.655  0.00  0.00    +0.120 A 
ATOM     13  C   UNL     1      10.128  -1.513  22.313  0.00  0.00    +0.046 A 
ATOM     14  C   UNL     1       9.988  -0.180  21.910  0.00  0.00    +0.008 A 
ATOM     15  C   UNL     1       9.729   0.835  22.847  0.00  0.00    -0.029 A 
ATOM     16  C   UNL     1       9.653   0.475  24.200  0.00  0.00    +0.008 A 
ATOM     17  C   UNL     1       9.785  -0.857  24.600  0.00  0.00    +0.046 A 
BRANCH  12  19
ATOM     18  C   UNL     1       8.938  -3.737  24.588  0.00  0.00    +0.277 C 
ATOM     19  O   UNL     1      10.093  -3.190  23.954  0.00  0.00    -0.495 OA
ENDBRANCH  12  19
ENDBRANCH   1  15
TORSDOF 2
ENDMDL
MODEL 9
REMARK VINA RESULT:      -6.2      1.981      2.547
REMARK  Name = 
REMARK  3 active torsions:
REMARK  status: ('A' for Active; 'I' for Inactive)
REMARK    1  A    between atoms: C_1  and  O_2
REMARK    2  A    between atoms: O_2  and  C_3
REMARK    3  A    between atoms: C_6  and  C_9
REMARK                            x       y       z     vdW  Elec       q    Type
REMARK                         _______ _______ _______ _____ _____    ______ ____
ROOT
ATOM      1  C   UNL     1       7.754  -2.640  24.908  0.00  0.00    +0.161 C 
ATOM      2  C   UNL     1       7.099  -1.324  24.506  0.00  0.00    +0.179 C 
ATOM      3  O   UNL     1       6.091  -0.815  24.971  0.00  0.00    -0.291 OA
ATOM      4  C   UNL     1       7.891  -0.703  23.449  0.00  0.00    +0.029 A 
ATOM      5  C   UNL     1       9.012  -1.472  23.187  0.00  0.00    +0.029 A 
ATOM      6  C   UNL     1       9.932  -1.113  22.218  0.00  0.00    +0.012 A 
ATOM      7  C   UNL     1       9.688   0.064  21.505  0.00  0.00    +0.001 A 
ATOM      8  C   UNL     1       8.551   0.849  21.776  0.00  0.00    +0.001 A 
ATOM      9  C   UNL     1       7.636   0.467  22.760  0.00  0.00    +0.012 A 
ATOM     10  C   UNL     1       9.024  -2.644  24.060  0.00  0.00    +0.179 C 
ATOM     11  O   UNL     1       9.931  -3.458  24.068  0.00  0.00    -0.291 OA
ENDROOT
BRANCH   1  15
ATOM     12  C   UNL     1       5.251  -6.152  24.416  0.00  0.00    +0.120 A 
ATOM     13  C   UNL     1       5.803  -5.840  25.656  0.00  0.00    +0.046 A 
ATOM     14  C   UNL     1       6.599  -4.699  25.806  0.00  0.00    +0.008 A 
ATOM     15  C   UNL     1       6.838  -3.836  24.723  0.00  0.00    -0.029 A 
ATOM     16  C   UNL     1       6.223  -4.135  23.499  0.00  0.00    +0.008 A 
ATOM     17  C   UNL     1       5.434  -5.278  23.348  0.00  0.00    +0.046 A 
BRANCH  12  19
ATOM     18  C   UNL     1       3.134  -7.114  24.107  0.00  0.00    +0.277 C 
ATOM     19  O   UNL     1       4.526  -7.311  24.348  0.00  0.00    -0.495 OA
ENDBRANCH  12  19
ENDBRANCH   1  15
TORSDOF 2
ENDMDL
