MODEL 1
REMARK VINA RESULT:      -4.9      0.000      0.000
REMARK  Name = 
REMARK  5 active torsions:
REMARK  status: ('A' for Active; 'I' for Inactive)
REMARK    1  A    between atoms: C_1  and  O_2
REMARK    2  A    between atoms: O_2  and  C_3
REMARK    3  A    between atoms: C_4  and  O_5
REMARK    4  A    between atoms: C_8  and  C_9
REMARK    5  A    between atoms: C_9  and  C_10
REMARK                            x       y       z     vdW  Elec       q    Type
REMARK                         _______ _______ _______ _____ _____    ______ ____
ROOT
ATOM      1  C   UNL     1       9.921   0.893  23.518  0.00  0.00    +0.162 A 
ATOM      2  C   UNL     1       9.958  -0.342  24.164  0.00  0.00    +0.053 A 
ATOM      3  C   UNL     1       9.798  -1.533  23.436  0.00  0.00    -0.040 A 
ATOM      4  C   UNL     1       9.629  -1.471  22.043  0.00  0.00    +0.008 A 
ATOM      5  C   UNL     1       9.623  -0.240  21.388  0.00  0.00    +0.049 A 
ATOM      6  C   UNL     1       9.762   0.926  22.130  0.00  0.00    +0.158 A 
ENDROOT
BRANCH   1   8
ATOM      7  C   UNL     1       8.857   2.563  24.807  0.00  0.00    +0.277 C 
ATOM      8  O   UNL     1      10.030   2.116  24.133  0.00  0.00    -0.491 OA
ENDBRANCH   1   8
BRANCH   6   9
ATOM      9  O   UNL     1       9.707   2.124  21.468  0.00  0.00    -0.503 OA
ATOM     10  H   UNL     1       8.909   2.567  21.817  0.00  0.00    +0.292 HD
ENDBRANCH   6   9
BRANCH   3  11
ATOM     11  C   UNL     1       9.745  -2.858  24.161  0.00  0.00    +0.061 C 
BRANCH  11  12
ATOM     12  C   UNL     1       8.470  -3.604  23.874  0.00  0.00    -0.030 C 
ATOM     13  C   UNL     1       8.261  -4.896  24.160  0.00  0.00    +0.004 C 
ENDBRANCH  11  12
ENDBRANCH   3  11
TORSDOF 4
ENDMDL
MODEL 2
REMARK VINA RESULT:      -4.5      3.304      5.637
REMARK  Name = 
REMARK  5 active torsions:
REMARK  status: ('A' for Active; 'I' for Inactive)
REMARK    1  A    between atoms: C_1  and  O_2
REMARK    2  A    between atoms: O_2  and  C_3
REMARK    3  A    between atoms: C_4  and  O_5
REMARK    4  A    between atoms: C_8  and  C_9
REMARK    5  A    between atoms: C_9  and  C_10
REMARK                            x       y       z     vdW  Elec       q    Type
REMARK                         _______ _______ _______ _____ _____    ______ ____
ROOT
ATOM      1  C   UNL     1       7.629  -3.763  23.022  0.00  0.00    +0.162 A 
ATOM      2  C   UNL     1       7.936  -2.683  22.194  0.00  0.00    +0.053 A 
ATOM      3  C   UNL     1       9.051  -1.873  22.463  0.00  0.00    -0.040 A 
ATOM      4  C   UNL     1       9.875  -2.177  23.559  0.00  0.00    +0.008 A 
ATOM      5  C   UNL     1       9.590  -3.274  24.371  0.00  0.00    +0.049 A 
ATOM      6  C   UNL     1       8.471  -4.050  24.100  0.00  0.00    +0.158 A 
ENDROOT
BRANCH   1   8
ATOM      7  C   UNL     1       6.576  -5.431  21.720  0.00  0.00    +0.277 C 
ATOM      8  O   UNL     1       6.547  -4.596  22.874  0.00  0.00    -0.491 OA
ENDBRANCH   1   8
BRANCH   6   9
ATOM      9  O   UNL     1       8.188  -5.094  24.940  0.00  0.00    -0.503 OA
ATOM     10  H   UNL     1       8.531  -4.816  25.811  0.00  0.00    +0.292 HD
ENDBRANCH   6   9
BRANCH   3  11
ATOM     11  C   UNL     1       9.317  -0.651  21.614  0.00  0.00    +0.061 C 
BRANCH  11  12
ATOM     12  C   UNL     1       9.963   0.453  22.407  0.00  0.00    -0.030 C 
ATOM     13  C   UNL     1      10.003   1.739  22.032  0.00  0.00    +0.004 C 
ENDBRANCH  11  12
ENDBRANCH   3  11
TORSDOF 4
ENDMDL
MODEL 3
REMARK VINA RESULT:      -4.5      2.050      4.909
REMARK  Name = 
REMARK  5 active torsions:
REMARK  status: ('A' for Active; 'I' for Inactive)
REMARK    1  A    between atoms: C_1  and  O_2
REMARK    2  A    between atoms: O_2  and  C_3
REMARK    3  A    between atoms: C_4  and  O_5
REMARK    4  A    between atoms: C_8  and  C_9
REMARK    5  A    between atoms: C_9  and  C_10
REMARK                            x       y       z     vdW  Elec       q    Type
REMARK                         _______ _______ _______ _____ _____    ______ ____
ROOT
ATOM      1  C   UNL     1       9.748  -0.605  23.656  0.00  0.00    +0.162 A 
ATOM      2  C   UNL     1       9.434   0.541  24.387  0.00  0.00    +0.053 A 
ATOM      3  C   UNL     1       9.289   1.781  23.742  0.00  0.00    -0.040 A 
ATOM      4  C   UNL     1       9.433   1.853  22.348  0.00  0.00    +0.008 A 
ATOM      5  C   UNL     1       9.715   0.704  21.608  0.00  0.00    +0.049 A 
ATOM      6  C   UNL     1       9.876  -0.508  22.268  0.00  0.00    +0.158 A 
ENDROOT
BRANCH   1   8
ATOM      7  C   UNL     1       8.871  -2.365  24.966  0.00  0.00    +0.277 C 
ATOM      8  O   UNL     1       9.948  -1.855  24.186  0.00  0.00    -0.491 OA
ENDBRANCH   1   8
BRANCH   6   9
ATOM      9  O   UNL     1      10.197  -1.612  21.524  0.00  0.00    -0.503 OA
ATOM     10  H   UNL     1      10.230  -1.292  20.602  0.00  0.00    +0.292 HD
ENDBRANCH   6   9
BRANCH   3  11
ATOM     11  C   UNL     1       9.044   3.030  24.558  0.00  0.00    +0.061 C 
BRANCH  11  12
ATOM     12  C   UNL     1       9.620   4.253  23.898  0.00  0.00    -0.030 C 
ATOM     13  C   UNL     1       9.009   5.443  23.829  0.00  0.00    +0.004 C 
ENDBRANCH  11  12
ENDBRANCH   3  11
TORSDOF 4
ENDMDL
MODEL 4
REMARK VINA RESULT:      -4.5      3.297      5.197
REMARK  Name = 
REMARK  5 active torsions:
REMARK  status: ('A' for Active; 'I' for Inactive)
REMARK    1  A    between atoms: C_1  and  O_2
REMARK    2  A    between atoms: O_2  and  C_3
REMARK    3  A    between atoms: C_4  and  O_5
REMARK    4  A    between atoms: C_8  and  C_9
REMARK    5  A    between atoms: C_9  and  C_10
REMARK                            x       y       z     vdW  Elec       q    Type
REMARK                         _______ _______ _______ _____ _____    ______ ____
ROOT
ATOM      1  C   UNL     1       9.132  -3.857  24.182  0.00  0.00    +0.162 A 
ATOM      2  C   UNL     1       9.839  -2.670  23.984  0.00  0.00    +0.053 A 
ATOM      3  C   UNL     1       9.408  -1.736  23.027  0.00  0.00    -0.040 A 
ATOM      4  C   UNL     1       8.241  -1.992  22.291  0.00  0.00    +0.008 A 
ATOM      5  C   UNL     1       7.514  -3.163  22.507  0.00  0.00    +0.049 A 
ATOM      6  C   UNL     1       7.968  -4.083  23.442  0.00  0.00    +0.158 A 
ENDROOT
BRANCH   1   8
ATOM      7  C   UNL     1       9.127  -4.617  26.419  0.00  0.00    +0.277 C 
ATOM      8  O   UNL     1       9.482  -4.853  25.060  0.00  0.00    -0.491 OA
ENDBRANCH   1   8
BRANCH   6   9
ATOM      9  O   UNL     1       7.261  -5.245  23.603  0.00  0.00    -0.503 OA
ATOM     10  H   UNL     1       7.404  -5.742  22.775  0.00  0.00    +0.292 HD
ENDBRANCH   6   9
BRANCH   3  11
ATOM     11  C   UNL     1      10.236  -0.500  22.757  0.00  0.00    +0.061 C 
BRANCH  11  12
ATOM     12  C   UNL     1       9.625   0.360  21.684  0.00  0.00    -0.030 C 
ATOM     13  C   UNL     1       9.352   1.665  21.815  0.00  0.00    +0.004 C 
ENDBRANCH  11  12
ENDBRANCH   3  11
TORSDOF 4
ENDMDL
MODEL 5
REMARK VINA RESULT:      -4.4      4.428      6.647
REMARK  Name = 
REMARK  5 active torsions:
REMARK  status: ('A' for Active; 'I' for Inactive)
REMARK    1  A    between atoms: C_1  and  O_2
REMARK    2  A    between atoms: O_2  and  C_3
REMARK    3  A    between atoms: C_4  and  O_5
REMARK    4  A    between atoms: C_8  and  C_9
REMARK    5  A    between atoms: C_9  and  C_10
REMARK                            x       y       z     vdW  Elec       q    Type
REMARK                         _______ _______ _______ _____ _____    ______ ____
ROOT
ATOM      1  C   UNL     1       6.759  -5.328  25.582  0.00  0.00    +0.162 A 
ATOM      2  C   UNL     1       6.786  -4.676  24.349  0.00  0.00    +0.053 A 
ATOM      3  C   UNL     1       7.934  -3.980  23.935  0.00  0.00    -0.040 A 
ATOM      4  C   UNL     1       9.068  -3.970  24.762  0.00  0.00    +0.008 A 
ATOM      5  C   UNL     1       9.057  -4.645  25.982  0.00  0.00    +0.049 A 
ATOM      6  C   UNL     1       7.905  -5.310  26.382  0.00  0.00    +0.158 A 
ENDROOT
BRANCH   1   8
ATOM      7  C   UNL     1       4.808  -6.584  25.137  0.00  0.00    +0.277 C 
ATOM      8  O   UNL     1       5.682  -6.004  26.100  0.00  0.00    -0.491 OA
ENDBRANCH   1   8
BRANCH   6   9
ATOM      9  O   UNL     1       7.905  -5.927  27.604  0.00  0.00    -0.503 OA
ATOM     10  H   UNL     1       8.609  -5.480  28.112  0.00  0.00    +0.292 HD
ENDBRANCH   6   9
BRANCH   3  11
ATOM     11  C   UNL     1       7.916  -3.200  22.640  0.00  0.00    +0.061 C 
BRANCH  11  12
ATOM     12  C   UNL     1       8.597  -1.866  22.780  0.00  0.00    -0.030 C 
ATOM     13  C   UNL     1       9.524  -1.390  21.938  0.00  0.00    +0.004 C 
ENDBRANCH  11  12
ENDBRANCH   3  11
TORSDOF 4
ENDMDL
MODEL 6
REMARK VINA RESULT:      -4.3      3.944      6.349
REMARK  Name = 
REMARK  5 active torsions:
REMARK  status: ('A' for Active; 'I' for Inactive)
REMARK    1  A    between atoms: C_1  and  O_2
REMARK    2  A    between atoms: O_2  and  C_3
REMARK    3  A    between atoms: C_4  and  O_5
REMARK    4  A    between atoms: C_8  and  C_9
REMARK    5  A    between atoms: C_9  and  C_10
REMARK                            x       y       z     vdW  Elec       q    Type
REMARK                         _______ _______ _______ _____ _____    ______ ____
ROOT
ATOM      1  C   UNL     1       8.430  -4.669  24.770  0.00  0.00    +0.162 A 
ATOM      2  C   UNL     1       7.411  -4.850  23.835  0.00  0.00    +0.053 A 
ATOM      3  C   UNL     1       6.165  -5.365  24.229  0.00  0.00    -0.040 A 
ATOM      4  C   UNL     1       5.941  -5.667  25.582  0.00  0.00    +0.008 A 
ATOM      5  C   UNL     1       6.946  -5.458  26.526  0.00  0.00    +0.049 A 
ATOM      6  C   UNL     1       8.178  -4.969  26.112  0.00  0.00    +0.158 A 
ENDROOT
BRANCH   1   8
ATOM      7  C   UNL     1       9.771  -2.841  24.105  0.00  0.00    +0.277 C 
ATOM      8  O   UNL     1       9.693  -4.210  24.490  0.00  0.00    -0.491 OA
ENDBRANCH   1   8
BRANCH   6   9
ATOM      9  O   UNL     1       9.163  -4.815  27.051  0.00  0.00    -0.503 OA
ATOM     10  H   UNL     1       9.457  -5.724  27.257  0.00  0.00    +0.292 HD
ENDBRANCH   6   9
BRANCH   3  11
ATOM     11  C   UNL     1       5.103  -5.645  23.190  0.00  0.00    +0.061 C 
BRANCH  11  12
ATOM     12  C   UNL     1       3.880  -4.793  23.393  0.00  0.00    -0.030 C 
ATOM     13  C   UNL     1       2.622  -5.253  23.398  0.00  0.00    +0.004 C 
ENDBRANCH  11  12
ENDBRANCH   3  11
TORSDOF 4
ENDMDL
MODEL 7
REMARK VINA RESULT:      -4.3      1.838      2.037
REMARK  Name = 
REMARK  5 active torsions:
REMARK  status: ('A' for Active; 'I' for Inactive)
REMARK    1  A    between atoms: C_1  and  O_2
REMARK    2  A    between atoms: O_2  and  C_3
REMARK    3  A    between atoms: C_4  and  O_5
REMARK    4  A    between atoms: C_8  and  C_9
REMARK    5  A    between atoms: C_9  and  C_10
REMARK                            x       y       z     vdW  Elec       q    Type
REMARK                         _______ _______ _______ _____ _____    ______ ____
ROOT
ATOM      1  C   UNL     1       8.112   1.291  22.612  0.00  0.00    +0.162 A 
ATOM      2  C   UNL     1       7.372   0.166  22.978  0.00  0.00    +0.053 A 
ATOM      3  C   UNL     1       7.815  -1.122  22.634  0.00  0.00    -0.040 A 
ATOM      4  C   UNL     1       9.027  -1.271  21.941  0.00  0.00    +0.008 A 
ATOM      5  C   UNL     1       9.786  -0.152  21.600  0.00  0.00    +0.049 A 
ATOM      6  C   UNL     1       9.320   1.114  21.931  0.00  0.00    +0.158 A 
ENDROOT
BRANCH   1   8
ATOM      7  C   UNL     1       6.650   3.077  22.107  0.00  0.00    +0.277 C 
ATOM      8  O   UNL     1       7.756   2.593  22.863  0.00  0.00    -0.491 OA
ENDBRANCH   1   8
BRANCH   6   9
ATOM      9  O   UNL     1      10.062   2.198  21.545  0.00  0.00    -0.503 OA
ATOM     10  H   UNL     1      10.111   2.134  20.572  0.00  0.00    +0.292 HD
ENDBRANCH   6   9
BRANCH   3  11
ATOM     11  C   UNL     1       6.956  -2.324  22.954  0.00  0.00    +0.061 C 
BRANCH  11  12
ATOM     12  C   UNL     1       7.768  -3.588  23.033  0.00  0.00    -0.030 C 
ATOM     13  C   UNL     1       7.305  -4.766  23.472  0.00  0.00    +0.004 C 
ENDBRANCH  11  12
ENDBRANCH   3  11
TORSDOF 4
ENDMDL
MODEL 8
REMARK VINA RESULT:      -4.3      1.662      3.190
REMARK  Name = 
REMARK  5 active torsions:
REMARK  status: ('A' for Active; 'I' for Inactive)
REMARK    1  A    between atoms: C_1  and  O_2
REMARK    2  A    between atoms: O_2  and  C_3
REMARK    3  A    between atoms: C_4  and  O_5
REMARK    4  A    between atoms: C_8  and  C_9
REMARK    5  A    between atoms: C_9  and  C_10
REMARK                            x       y       z     vdW  Elec       q    Type
REMARK                         _______ _______ _______ _____ _____    ______ ____
ROOT
ATOM      1  C   UNL     1       9.803  -1.125  23.922  0.00  0.00    +0.162 A 
ATOM      2  C   UNL     1       9.388  -2.419  23.605  0.00  0.00    +0.053 A 
ATOM      3  C   UNL     1       8.690  -3.195  24.546  0.00  0.00    -0.040 A 
ATOM      4  C   UNL     1       8.385  -2.645  25.801  0.00  0.00    +0.008 A 
ATOM      5  C   UNL     1       8.770  -1.341  26.112  0.00  0.00    +0.049 A 
ATOM      6  C   UNL     1       9.478  -0.599  25.175  0.00  0.00    +0.158 A 
ENDROOT
BRANCH   1   8
ATOM      7  C   UNL     1       9.847   0.110  21.909  0.00  0.00    +0.277 C 
ATOM      8  O   UNL     1      10.521  -0.296  23.096  0.00  0.00    -0.491 OA
ENDBRANCH   1   8
BRANCH   6   9
ATOM      9  O   UNL     1       9.884   0.663  25.522  0.00  0.00    -0.503 OA
ATOM     10  H   UNL     1       9.213   1.257  25.134  0.00  0.00    +0.292 HD
ENDBRANCH   6   9
BRANCH   3  11
ATOM     11  C   UNL     1       8.331  -4.627  24.223  0.00  0.00    +0.061 C 
BRANCH  11  12
ATOM     12  C   UNL     1       7.466  -4.726  22.996  0.00  0.00    -0.030 C 
ATOM     13  C   UNL     1       7.301  -5.837  22.267  0.00  0.00    +0.004 C 
ENDBRANCH  11  12
ENDBRANCH   3  11
TORSDOF 4
ENDMDL
MODEL 9
REMARK VINA RESULT:      -4.2      5.530      6.743
REMARK  Name = 
REMARK  5 active torsions:
REMARK  status: ('A' for Active; 'I' for Inactive)
REMARK    1  A    between atoms: C_1  and  O_2
REMARK    2  A    between atoms: O_2  and  C_3
REMARK    3  A    between atoms: C_4  and  O_5
REMARK    4  A    between atoms: C_8  and  C_9
REMARK    5  A    between atoms: C_9  and  C_10
REMARK                            x       y       z     vdW  Elec       q    Type
REMARK                         _______ _______ _______ _____ _____    ______ ____
ROOT
ATOM      1  C   UNL     1       6.325  -5.149  25.929  0.00  0.00    +0.162 A 
ATOM      2  C   UNL     1       6.202  -4.657  24.630  0.00  0.00    +0.053 A 
ATOM      3  C   UNL     1       7.342  -4.434  23.840  0.00  0.00    -0.040 A 
ATOM      4  C   UNL     1       8.610  -4.739  24.360  0.00  0.00    +0.008 A 
ATOM      5  C   UNL     1       8.737  -5.261  25.647  0.00  0.00    +0.049 A 
ATOM      6  C   UNL     1       7.599  -5.454  26.419  0.00  0.00    +0.158 A 
ENDROOT
BRANCH   1   8
ATOM      7  C   UNL     1       3.999  -5.462  26.195  0.00  0.00    +0.277 C 
ATOM      8  O   UNL     1       5.286  -5.368  26.799  0.00  0.00    -0.491 OA
ENDBRANCH   1   8
BRANCH   6   9
ATOM      9  O   UNL     1       7.754  -5.924  27.696  0.00  0.00    -0.503 OA
ATOM     10  H   UNL     1       8.341  -5.277  28.132  0.00  0.00    +0.292 HD
ENDBRANCH   6   9
BRANCH   3  11
ATOM     11  C   UNL     1       7.200  -3.812  22.470  0.00  0.00    +0.061 C 
BRANCH  11  12
ATOM     12  C   UNL     1       6.204  -4.552  21.618  0.00  0.00    -0.030 C 
ATOM     13  C   UNL     1       6.399  -5.771  21.101  0.00  0.00    +0.004 C 
ENDBRANCH  11  12
ENDBRANCH   3  11
TORSDOF 4
ENDMDL
