MODEL 1
REMARK VINA RESULT:      -6.1      0.000      0.000
REMARK  Name = 
REMARK  7 active torsions:
REMARK  status: ('A' for Active; 'I' for Inactive)
REMARK    1  A    between atoms: C_1  and  C_2
REMARK    2  A    between atoms: C_2  and  C_3
REMARK    3  A    between atoms: C_2  and  C_4
REMARK    4  A    between atoms: C_2  and  N_5
REMARK    5  A    between atoms: C_8  and  N_9
REMARK    6  A    between atoms: C_10  and  C_12
REMARK    7  A    between atoms: C_12  and  C_14
REMARK                            x       y       z     vdW  Elec       q    Type
REMARK                         _______ _______ _______ _____ _____    ______ ____
ROOT
ATOM      1  N   UNL     1       8.825  -1.379  24.444  0.00  0.00    -0.319 N 
ATOM      2  H   UNL     1       8.118  -0.736  24.788  0.00  0.00    +0.148 HD
ATOM      3  C   UNL     1       8.755  -2.594  25.049  0.00  0.00    +0.161 A 
ATOM      4  S   UNL     1       7.543  -2.867  26.248  0.00  0.00    -0.047 S 
ATOM      5  C   UNL     1       7.918  -4.542  26.227  0.00  0.00    +0.102 A 
ATOM      6  C   UNL     1       9.070  -4.719  25.492  0.00  0.00    +0.136 A 
ATOM      7  N   UNL     1       9.513  -3.633  24.793  0.00  0.00    -0.210 NA
ENDROOT
BRANCH   1   9
ATOM      8  C   UNL     1       8.070  -2.270  22.255  0.00  0.00    +0.031 C 
ATOM      9  C   UNL     1       9.000  -1.283  22.982  0.00  0.00    +0.025 C 
ATOM     10  C   UNL     1       8.589   0.148  22.567  0.00  0.00    +0.031 C 
ATOM     11  C   UNL     1      10.459  -1.498  22.565  0.00  0.00    +0.031 C 
ENDBRANCH   1   9
BRANCH   6  12
ATOM     12  N   UNL     1       9.773  -5.854  25.352  0.00  0.00    -0.342 N 
ATOM     13  H   UNL     1      10.518  -6.110  25.991  0.00  0.00    +0.144 HD
ATOM     14  H   UNL     1       9.932  -6.177  24.402  0.00  0.00    +0.144 HD
ENDBRANCH   6  12
BRANCH   5  15
ATOM     15  C   UNL     1       7.059  -5.480  26.917  0.00  0.00    +0.203 C 
ATOM     16  O   UNL     1       7.262  -5.882  28.062  0.00  0.00    -0.286 OA
BRANCH  15  17
ATOM     17  C   UNL     1       5.835  -5.986  26.217  0.00  0.00    +0.023 A 
ATOM     18  C   UNL     1       4.831  -6.606  26.970  0.00  0.00    +0.012 A 
ATOM     19  C   UNL     1       3.703  -7.135  26.338  0.00  0.00    +0.001 A 
ATOM     20  C   UNL     1       3.569  -7.041  24.953  0.00  0.00    +0.000 A 
ATOM     21  C   UNL     1       4.544  -6.390  24.202  0.00  0.00    +0.001 A 
ATOM     22  C   UNL     1       5.665  -5.848  24.831  0.00  0.00    +0.012 A 
ENDBRANCH  15  17
ENDBRANCH   5  15
TORSDOF 4
ENDMDL
MODEL 2
REMARK VINA RESULT:      -6.1      3.237      4.255
REMARK  Name = 
REMARK  7 active torsions:
REMARK  status: ('A' for Active; 'I' for Inactive)
REMARK    1  A    between atoms: C_1  and  C_2
REMARK    2  A    between atoms: C_2  and  C_3
REMARK    3  A    between atoms: C_2  and  C_4
REMARK    4  A    between atoms: C_2  and  N_5
REMARK    5  A    between atoms: C_8  and  N_9
REMARK    6  A    between atoms: C_10  and  C_12
REMARK    7  A    between atoms: C_12  and  C_14
REMARK                            x       y       z     vdW  Elec       q    Type
REMARK                         _______ _______ _______ _____ _____    ______ ____
ROOT
ATOM      1  N   UNL     1       9.097   1.583  25.257  0.00  0.00    -0.319 N 
ATOM      2  H   UNL     1       8.696   1.465  26.182  0.00  0.00    +0.148 HD
ATOM      3  C   UNL     1       9.413   0.396  24.676  0.00  0.00    +0.161 A 
ATOM      4  S   UNL     1       9.106  -1.069  25.536  0.00  0.00    -0.047 S 
ATOM      5  C   UNL     1       9.442  -1.963  24.110  0.00  0.00    +0.102 A 
ATOM      6  C   UNL     1       9.975  -1.103  23.175  0.00  0.00    +0.136 A 
ATOM      7  N   UNL     1       9.916   0.228  23.476  0.00  0.00    -0.210 NA
ENDROOT
BRANCH   1   9
ATOM      8  C   UNL     1       7.251   2.033  23.661  0.00  0.00    +0.031 C 
ATOM      9  C   UNL     1       8.407   2.632  24.481  0.00  0.00    +0.025 C 
ATOM     10  C   UNL     1       7.800   3.625  25.498  0.00  0.00    +0.031 C 
ATOM     11  C   UNL     1       9.373   3.407  23.579  0.00  0.00    +0.031 C 
ENDBRANCH   1   9
BRANCH   6  12
ATOM     12  N   UNL     1      10.500  -1.429  21.984  0.00  0.00    -0.342 N 
ATOM     13  H   UNL     1       9.920  -1.650  21.181  0.00  0.00    +0.144 HD
ATOM     14  H   UNL     1      11.377  -1.940  21.996  0.00  0.00    +0.144 HD
ENDBRANCH   6  12
BRANCH   5  15
ATOM     15  C   UNL     1       9.151  -3.380  24.064  0.00  0.00    +0.203 C 
ATOM     16  O   UNL     1       9.857  -4.242  24.585  0.00  0.00    -0.286 OA
BRANCH  15  17
ATOM     17  C   UNL     1       7.911  -3.838  23.361  0.00  0.00    +0.023 A 
ATOM     18  C   UNL     1       7.629  -5.208  23.307  0.00  0.00    +0.012 A 
ATOM     19  C   UNL     1       6.509  -5.669  22.612  0.00  0.00    +0.001 A 
ATOM     20  C   UNL     1       5.660  -4.765  21.975  0.00  0.00    +0.000 A 
ATOM     21  C   UNL     1       5.911  -3.398  22.057  0.00  0.00    +0.001 A 
ATOM     22  C   UNL     1       7.022  -2.932  22.763  0.00  0.00    +0.012 A 
ENDBRANCH  15  17
ENDBRANCH   5  15
TORSDOF 4
ENDMDL
MODEL 3
REMARK VINA RESULT:      -6.0      3.078      7.216
REMARK  Name = 
REMARK  7 active torsions:
REMARK  status: ('A' for Active; 'I' for Inactive)
REMARK    1  A    between atoms: C_1  and  C_2
REMARK    2  A    between atoms: C_2  and  C_3
REMARK    3  A    between atoms: C_2  and  C_4
REMARK    4  A    between atoms: C_2  and  N_5
REMARK    5  A    between atoms: C_8  and  N_9
REMARK    6  A    between atoms: C_10  and  C_12
REMARK    7  A    between atoms: C_12  and  C_14
REMARK                            x       y       z     vdW  Elec       q    Type
REMARK                         _______ _______ _______ _____ _____    ______ ____
ROOT
ATOM      1  N   UNL     1       5.934  -3.583  22.822  0.00  0.00    -0.319 N 
ATOM      2  H   UNL     1       5.229  -3.472  23.545  0.00  0.00    +0.148 HD
ATOM      3  C   UNL     1       6.934  -2.669  22.932  0.00  0.00    +0.161 A 
ATOM      4  S   UNL     1       6.878  -1.512  24.213  0.00  0.00    -0.047 S 
ATOM      5  C   UNL     1       8.488  -1.046  23.845  0.00  0.00    +0.102 A 
ATOM      6  C   UNL     1       8.849  -1.635  22.653  0.00  0.00    +0.136 A 
ATOM      7  N   UNL     1       7.994  -2.582  22.165  0.00  0.00    -0.210 NA
ENDROOT
BRANCH   1   9
ATOM      8  C   UNL     1       7.568  -5.402  23.237  0.00  0.00    +0.031 C 
ATOM      9  C   UNL     1       6.246  -5.001  22.562  0.00  0.00    +0.025 C 
ATOM     10  C   UNL     1       5.116  -5.840  23.200  0.00  0.00    +0.031 C 
ATOM     11  C   UNL     1       6.281  -5.314  21.062  0.00  0.00    +0.031 C 
ENDBRANCH   1   9
BRANCH   6  12
ATOM     12  N   UNL     1       9.970  -1.415  21.949  0.00  0.00    -0.342 N 
ATOM     13  H   UNL     1      10.851  -1.859  22.185  0.00  0.00    +0.144 HD
ATOM     14  H   UNL     1      10.083  -0.487  21.551  0.00  0.00    +0.144 HD
ENDBRANCH   6  12
BRANCH   5  15
ATOM     15  C   UNL     1       9.208  -0.173  24.748  0.00  0.00    +0.203 C 
ATOM     16  O   UNL     1       9.729  -0.550  25.796  0.00  0.00    -0.286 OA
BRANCH  15  17
ATOM     17  C   UNL     1       9.352   1.274  24.389  0.00  0.00    +0.023 A 
ATOM     18  C   UNL     1      10.505   1.694  23.716  0.00  0.00    +0.012 A 
ATOM     19  C   UNL     1      10.691   3.046  23.416  0.00  0.00    +0.001 A 
ATOM     20  C   UNL     1       9.724   3.982  23.779  0.00  0.00    +0.000 A 
ATOM     21  C   UNL     1       8.556   3.567  24.412  0.00  0.00    +0.001 A 
ATOM     22  C   UNL     1       8.360   2.216  24.701  0.00  0.00    +0.012 A 
ENDBRANCH  15  17
ENDBRANCH   5  15
TORSDOF 4
ENDMDL
MODEL 4
REMARK VINA RESULT:      -6.0      3.051      7.053
REMARK  Name = 
REMARK  7 active torsions:
REMARK  status: ('A' for Active; 'I' for Inactive)
REMARK    1  A    between atoms: C_1  and  C_2
REMARK    2  A    between atoms: C_2  and  C_3
REMARK    3  A    between atoms: C_2  and  C_4
REMARK    4  A    between atoms: C_2  and  N_5
REMARK    5  A    between atoms: C_8  and  N_9
REMARK    6  A    between atoms: C_10  and  C_12
REMARK    7  A    between atoms: C_12  and  C_14
REMARK                            x       y       z     vdW  Elec       q    Type
REMARK                         _______ _______ _______ _____ _____    ______ ____
ROOT
ATOM      1  N   UNL     1       8.341  -4.154  23.833  0.00  0.00    -0.319 N 
ATOM      2  H   UNL     1       8.723  -4.344  22.912  0.00  0.00    +0.148 HD
ATOM      3  C   UNL     1       8.810  -2.991  24.357  0.00  0.00    +0.161 A 
ATOM      4  S   UNL     1       9.924  -2.045  23.438  0.00  0.00    -0.047 S 
ATOM      5  C   UNL     1       9.739  -0.759  24.560  0.00  0.00    +0.102 A 
ATOM      6  C   UNL     1       9.036  -1.231  25.647  0.00  0.00    +0.136 A 
ATOM      7  N   UNL     1       8.474  -2.469  25.512  0.00  0.00    -0.210 NA
ENDROOT
BRANCH   1   9
ATOM      8  C   UNL     1       6.042  -3.250  23.613  0.00  0.00    +0.031 C 
ATOM      9  C   UNL     1       6.905  -4.485  23.919  0.00  0.00    +0.025 C 
ATOM     10  C   UNL     1       6.617  -5.545  22.832  0.00  0.00    +0.031 C 
ATOM     11  C   UNL     1       6.537  -5.087  25.279  0.00  0.00    +0.031 C 
ENDBRANCH   1   9
BRANCH   6  12
ATOM     12  N   UNL     1       8.803  -0.586  26.801  0.00  0.00    -0.342 N 
ATOM     13  H   UNL     1       8.537  -1.076  27.649  0.00  0.00    +0.144 HD
ATOM     14  H   UNL     1       8.394   0.341  26.730  0.00  0.00    +0.144 HD
ENDBRANCH   6  12
BRANCH   5  15
ATOM     15  C   UNL     1      10.291   0.544  24.259  0.00  0.00    +0.203 C 
ATOM     16  O   UNL     1      11.446   0.877  24.522  0.00  0.00    -0.286 OA
BRANCH  15  17
ATOM     17  C   UNL     1       9.424   1.551  23.569  0.00  0.00    +0.023 A 
ATOM     18  C   UNL     1       9.150   2.764  24.212  0.00  0.00    +0.012 A 
ATOM     19  C   UNL     1       8.302   3.701  23.617  0.00  0.00    +0.001 A 
ATOM     20  C   UNL     1       7.730   3.435  22.374  0.00  0.00    +0.000 A 
ATOM     21  C   UNL     1       8.029   2.248  21.709  0.00  0.00    +0.001 A 
ATOM     22  C   UNL     1       8.887   1.316  22.294  0.00  0.00    +0.012 A 
ENDBRANCH  15  17
ENDBRANCH   5  15
TORSDOF 4
ENDMDL
MODEL 5
REMARK VINA RESULT:      -5.9      3.038      4.631
REMARK  Name = 
REMARK  7 active torsions:
REMARK  status: ('A' for Active; 'I' for Inactive)
REMARK    1  A    between atoms: C_1  and  C_2
REMARK    2  A    between atoms: C_2  and  C_3
REMARK    3  A    between atoms: C_2  and  C_4
REMARK    4  A    between atoms: C_2  and  N_5
REMARK    5  A    between atoms: C_8  and  N_9
REMARK    6  A    between atoms: C_10  and  C_12
REMARK    7  A    between atoms: C_12  and  C_14
REMARK                            x       y       z     vdW  Elec       q    Type
REMARK                         _______ _______ _______ _____ _____    ______ ____
ROOT
ATOM      1  N   UNL     1       9.384   1.933  24.838  0.00  0.00    -0.319 N 
ATOM      2  H   UNL     1       8.907   1.871  25.732  0.00  0.00    +0.148 HD
ATOM      3  C   UNL     1       9.376   0.752  24.166  0.00  0.00    +0.161 A 
ATOM      4  S   UNL     1       8.599  -0.615  24.878  0.00  0.00    -0.047 S 
ATOM      5  C   UNL     1       8.751  -1.460  23.392  0.00  0.00    +0.102 A 
ATOM      6  C   UNL     1       9.572  -0.730  22.561  0.00  0.00    +0.136 A 
ATOM      7  N   UNL     1       9.885   0.532  22.977  0.00  0.00    -0.210 NA
ENDROOT
BRANCH   1   9
ATOM      8  C   UNL     1       8.060   2.960  23.008  0.00  0.00    +0.031 C 
ATOM      9  C   UNL     1       9.083   3.194  24.133  0.00  0.00    +0.025 C 
ATOM     10  C   UNL     1       8.442   4.150  25.164  0.00  0.00    +0.031 C 
ATOM     11  C   UNL     1      10.349   3.863  23.588  0.00  0.00    +0.031 C 
ENDBRANCH   1   9
BRANCH   6  12
ATOM     12  N   UNL     1      10.055  -1.108  21.367  0.00  0.00    -0.342 N 
ATOM     13  H   UNL     1      10.731  -0.550  20.857  0.00  0.00    +0.144 HD
ATOM     14  H   UNL     1       9.421  -1.621  20.760  0.00  0.00    +0.144 HD
ENDBRANCH   6  12
BRANCH   5  15
ATOM     15  C   UNL     1       8.061  -2.719  23.207  0.00  0.00    +0.203 C 
ATOM     16  O   UNL     1       7.521  -3.056  22.154  0.00  0.00    -0.286 OA
BRANCH  15  17
ATOM     17  C   UNL     1       8.010  -3.687  24.348  0.00  0.00    +0.023 A 
ATOM     18  C   UNL     1       6.764  -4.048  24.875  0.00  0.00    +0.012 A 
ATOM     19  C   UNL     1       6.688  -4.908  25.973  0.00  0.00    +0.001 A 
ATOM     20  C   UNL     1       7.853  -5.417  26.545  0.00  0.00    +0.000 A 
ATOM     21  C   UNL     1       9.094  -5.095  26.002  0.00  0.00    +0.001 A 
ATOM     22  C   UNL     1       9.174  -4.248  24.896  0.00  0.00    +0.012 A 
ENDBRANCH  15  17
ENDBRANCH   5  15
TORSDOF 4
ENDMDL
MODEL 6
REMARK VINA RESULT:      -5.9      2.119      2.853
REMARK  Name = 
REMARK  7 active torsions:
REMARK  status: ('A' for Active; 'I' for Inactive)
REMARK    1  A    between atoms: C_1  and  C_2
REMARK    2  A    between atoms: C_2  and  C_3
REMARK    3  A    between atoms: C_2  and  C_4
REMARK    4  A    between atoms: C_2  and  N_5
REMARK    5  A    between atoms: C_8  and  N_9
REMARK    6  A    between atoms: C_10  and  C_12
REMARK    7  A    between atoms: C_12  and  C_14
REMARK                            x       y       z     vdW  Elec       q    Type
REMARK                         _______ _______ _______ _____ _____    ______ ____
ROOT
ATOM      1  N   UNL     1       7.757   0.408  23.319  0.00  0.00    -0.319 N 
ATOM      2  H   UNL     1       6.864   0.659  22.905  0.00  0.00    +0.148 HD
ATOM      3  C   UNL     1       7.858  -0.926  23.559  0.00  0.00    +0.161 A 
ATOM      4  S   UNL     1       6.534  -1.956  23.149  0.00  0.00    -0.047 S 
ATOM      5  C   UNL     1       7.528  -3.326  23.434  0.00  0.00    +0.102 A 
ATOM      6  C   UNL     1       8.694  -2.898  24.029  0.00  0.00    +0.136 A 
ATOM      7  N   UNL     1       8.899  -1.548  24.057  0.00  0.00    -0.210 NA
ENDROOT
BRANCH   1   9
ATOM      8  C   UNL     1       9.517   0.318  21.572  0.00  0.00    +0.031 C 
ATOM      9  C   UNL     1       8.881   1.142  22.705  0.00  0.00    +0.025 C 
ATOM     10  C   UNL     1       8.297   2.430  22.082  0.00  0.00    +0.031 C 
ATOM     11  C   UNL     1       9.933   1.550  23.741  0.00  0.00    +0.031 C 
ENDBRANCH   1   9
BRANCH   6  12
ATOM     12  N   UNL     1       9.670  -3.666  24.539  0.00  0.00    -0.342 N 
ATOM     13  H   UNL     1      10.396  -3.289  25.139  0.00  0.00    +0.144 HD
ATOM     14  H   UNL     1       9.990  -4.439  23.963  0.00  0.00    +0.144 HD
ENDBRANCH   6  12
BRANCH   5  15
ATOM     15  C   UNL     1       7.066  -4.642  23.049  0.00  0.00    +0.203 C 
ATOM     16  O   UNL     1       7.374  -5.195  21.995  0.00  0.00    -0.286 OA
BRANCH  15  17
ATOM     17  C   UNL     1       6.174  -5.395  23.987  0.00  0.00    +0.023 A 
ATOM     18  C   UNL     1       6.403  -5.300  25.364  0.00  0.00    +0.012 A 
ATOM     19  C   UNL     1       5.621  -6.033  26.260  0.00  0.00    +0.001 A 
ATOM     20  C   UNL     1       4.603  -6.858  25.786  0.00  0.00    +0.000 A 
ATOM     21  C   UNL     1       4.342  -6.928  24.420  0.00  0.00    +0.001 A 
ATOM     22  C   UNL     1       5.112  -6.186  23.523  0.00  0.00    +0.012 A 
ENDBRANCH  15  17
ENDBRANCH   5  15
TORSDOF 4
ENDMDL
MODEL 7
REMARK VINA RESULT:      -5.9      2.912      6.342
REMARK  Name = 
REMARK  7 active torsions:
REMARK  status: ('A' for Active; 'I' for Inactive)
REMARK    1  A    between atoms: C_1  and  C_2
REMARK    2  A    between atoms: C_2  and  C_3
REMARK    3  A    between atoms: C_2  and  C_4
REMARK    4  A    between atoms: C_2  and  N_5
REMARK    5  A    between atoms: C_8  and  N_9
REMARK    6  A    between atoms: C_10  and  C_12
REMARK    7  A    between atoms: C_12  and  C_14
REMARK                            x       y       z     vdW  Elec       q    Type
REMARK                         _______ _______ _______ _____ _____    ______ ____
ROOT
ATOM      1  N   UNL     1       7.485  -4.848  23.077  0.00  0.00    -0.319 N 
ATOM      2  H   UNL     1       8.274  -4.760  22.445  0.00  0.00    +0.148 HD
ATOM      3  C   UNL     1       7.601  -4.039  24.163  0.00  0.00    +0.161 A 
ATOM      4  S   UNL     1       8.992  -3.027  24.312  0.00  0.00    -0.047 S 
ATOM      5  C   UNL     1       8.242  -2.210  25.622  0.00  0.00    +0.102 A 
ATOM      6  C   UNL     1       7.113  -2.912  25.981  0.00  0.00    +0.136 A 
ATOM      7  N   UNL     1       6.728  -3.911  25.133  0.00  0.00    -0.210 NA
ENDROOT
BRANCH   1   9
ATOM      8  C   UNL     1       5.654  -3.547  22.023  0.00  0.00    +0.031 C 
ATOM      9  C   UNL     1       6.202  -4.946  22.355  0.00  0.00    +0.025 C 
ATOM     10  C   UNL     1       6.485  -5.671  21.020  0.00  0.00    +0.031 C 
ATOM     11  C   UNL     1       5.168  -5.767  23.132  0.00  0.00    +0.031 C 
ENDBRANCH   1   9
BRANCH   6  12
ATOM     12  N   UNL     1       6.326  -2.688  27.044  0.00  0.00    -0.342 N 
ATOM     13  H   UNL     1       5.630  -1.949  27.055  0.00  0.00    +0.144 HD
ATOM     14  H   UNL     1       6.731  -2.867  27.958  0.00  0.00    +0.144 HD
ENDBRANCH   6  12
BRANCH   5  15
ATOM     15  C   UNL     1       8.830  -0.994  26.142  0.00  0.00    +0.203 C 
ATOM     16  O   UNL     1       9.030  -0.787  27.338  0.00  0.00    -0.286 OA
BRANCH  15  17
ATOM     17  C   UNL     1       9.242   0.077  25.180  0.00  0.00    +0.023 A 
ATOM     18  C   UNL     1       8.252   0.782  24.485  0.00  0.00    +0.012 A 
ATOM     19  C   UNL     1       8.608   1.749  23.542  0.00  0.00    +0.001 A 
ATOM     20  C   UNL     1       9.952   2.023  23.295  0.00  0.00    +0.000 A 
ATOM     21  C   UNL     1      10.942   1.355  24.010  0.00  0.00    +0.001 A 
ATOM     22  C   UNL     1      10.591   0.398  24.963  0.00  0.00    +0.012 A 
ENDBRANCH  15  17
ENDBRANCH   5  15
TORSDOF 4
ENDMDL
MODEL 8
REMARK VINA RESULT:      -5.9      3.261      7.389
REMARK  Name = 
REMARK  7 active torsions:
REMARK  status: ('A' for Active; 'I' for Inactive)
REMARK    1  A    between atoms: C_1  and  C_2
REMARK    2  A    between atoms: C_2  and  C_3
REMARK    3  A    between atoms: C_2  and  C_4
REMARK    4  A    between atoms: C_2  and  N_5
REMARK    5  A    between atoms: C_8  and  N_9
REMARK    6  A    between atoms: C_10  and  C_12
REMARK    7  A    between atoms: C_12  and  C_14
REMARK                            x       y       z     vdW  Elec       q    Type
REMARK                         _______ _______ _______ _____ _____    ______ ____
ROOT
ATOM      1  N   UNL     1       6.420  -3.446  23.418  0.00  0.00    -0.319 N 
ATOM      2  H   UNL     1       5.813  -3.213  24.198  0.00  0.00    +0.148 HD
ATOM      3  C   UNL     1       7.280  -2.439  23.115  0.00  0.00    +0.161 A 
ATOM      4  S   UNL     1       7.231  -0.983  24.042  0.00  0.00    -0.047 S 
ATOM      5  C   UNL     1       8.689  -0.472  23.294  0.00  0.00    +0.102 A 
ATOM      6  C   UNL     1       8.965  -1.329  22.252  0.00  0.00    +0.136 A 
ATOM      7  N   UNL     1       8.201  -2.459  22.181  0.00  0.00    -0.210 NA
ENDROOT
BRANCH   1   9
ATOM      8  C   UNL     1       8.231  -4.924  24.251  0.00  0.00    +0.031 C 
ATOM      9  C   UNL     1       6.900  -4.840  23.485  0.00  0.00    +0.025 C 
ATOM     10  C   UNL     1       5.846  -5.647  24.277  0.00  0.00    +0.031 C 
ATOM     11  C   UNL     1       7.030  -5.468  22.093  0.00  0.00    +0.031 C 
ENDBRANCH   1   9
BRANCH   6  12
ATOM     12  N   UNL     1       9.934  -1.198  21.333  0.00  0.00    -0.342 N 
ATOM     13  H   UNL     1      10.107  -1.905  20.626  0.00  0.00    +0.144 HD
ATOM     14  H   UNL     1      10.775  -0.709  21.623  0.00  0.00    +0.144 HD
ENDBRANCH   6  12
BRANCH   5  15
ATOM     15  C   UNL     1       9.388   0.689  23.802  0.00  0.00    +0.203 C 
ATOM     16  O   UNL     1      10.461   0.634  24.403  0.00  0.00    -0.286 OA
BRANCH  15  17
ATOM     17  C   UNL     1       8.796   2.045  23.574  0.00  0.00    +0.023 A 
ATOM     18  C   UNL     1       8.882   3.002  24.592  0.00  0.00    +0.012 A 
ATOM     19  C   UNL     1       8.292   4.258  24.428  0.00  0.00    +0.001 A 
ATOM     20  C   UNL     1       7.620   4.566  23.246  0.00  0.00    +0.000 A 
ATOM     21  C   UNL     1       7.564   3.634  22.214  0.00  0.00    +0.001 A 
ATOM     22  C   UNL     1       8.165   2.383  22.367  0.00  0.00    +0.012 A 
ENDBRANCH  15  17
ENDBRANCH   5  15
TORSDOF 4
ENDMDL
MODEL 9
REMARK VINA RESULT:      -5.8      2.571      6.107
REMARK  Name = 
REMARK  7 active torsions:
REMARK  status: ('A' for Active; 'I' for Inactive)
REMARK    1  A    between atoms: C_1  and  C_2
REMARK    2  A    between atoms: C_2  and  C_3
REMARK    3  A    between atoms: C_2  and  C_4
REMARK    4  A    between atoms: C_2  and  N_5
REMARK    5  A    between atoms: C_8  and  N_9
REMARK    6  A    between atoms: C_10  and  C_12
REMARK    7  A    between atoms: C_12  and  C_14
REMARK                            x       y       z     vdW  Elec       q    Type
REMARK                         _______ _______ _______ _____ _____    ______ ____
ROOT
ATOM      1  N   UNL     1       4.459  -5.703  23.773  0.00  0.00    -0.319 N 
ATOM      2  H   UNL     1       4.483  -5.443  22.792  0.00  0.00    +0.148 HD
ATOM      3  C   UNL     1       5.678  -5.596  24.365  0.00  0.00    +0.161 A 
ATOM      4  S   UNL     1       7.025  -5.061  23.426  0.00  0.00    -0.047 S 
ATOM      5  C   UNL     1       7.952  -4.912  24.863  0.00  0.00    +0.102 A 
ATOM      6  C   UNL     1       7.247  -5.491  25.895  0.00  0.00    +0.136 A 
ATOM      7  N   UNL     1       5.952  -5.833  25.626  0.00  0.00    -0.210 NA
ENDROOT
BRANCH   1   9
ATOM      8  C   UNL     1       3.454  -3.737  24.905  0.00  0.00    +0.031 C 
ATOM      9  C   UNL     1       3.253  -5.194  24.455  0.00  0.00    +0.025 C 
ATOM     10  C   UNL     1       2.104  -5.216  23.422  0.00  0.00    +0.031 C 
ATOM     11  C   UNL     1       2.846  -6.081  25.637  0.00  0.00    +0.031 C 
ENDBRANCH   1   9
BRANCH   6  12
ATOM     12  N   UNL     1       7.680  -5.708  27.147  0.00  0.00    -0.342 N 
ATOM     13  H   UNL     1       8.520  -6.243  27.342  0.00  0.00    +0.144 HD
ATOM     14  H   UNL     1       6.968  -5.805  27.865  0.00  0.00    +0.144 HD
ENDBRANCH   6  12
BRANCH   5  15
ATOM     15  C   UNL     1       9.241  -4.255  24.822  0.00  0.00    +0.203 C 
ATOM     16  O   UNL     1      10.315  -4.853  24.852  0.00  0.00    -0.286 OA
BRANCH  15  17
ATOM     17  C   UNL     1       9.286  -2.762  24.717  0.00  0.00    +0.023 A 
ATOM     18  C   UNL     1       9.942  -2.178  23.627  0.00  0.00    +0.012 A 
ATOM     19  C   UNL     1      10.047  -0.789  23.531  0.00  0.00    +0.001 A 
ATOM     20  C   UNL     1       9.490   0.024  24.517  0.00  0.00    +0.000 A 
ATOM     21  C   UNL     1       8.802  -0.547  25.584  0.00  0.00    +0.001 A 
ATOM     22  C   UNL     1       8.682  -1.935  25.676  0.00  0.00    +0.012 A 
ENDBRANCH  15  17
ENDBRANCH   5  15
TORSDOF 4
ENDMDL
