MODEL 1
REMARK VINA RESULT:      -5.5      0.000      0.000
REMARK  Name = 
REMARK  10 active torsions:
REMARK  status: ('A' for Active; 'I' for Inactive)
REMARK    1  A    between atoms: C_1  and  C_2
REMARK    2  A    between atoms: C_2  and  C_3
REMARK    3  A    between atoms: C_3  and  C_4
REMARK    4  A    between atoms: C_5  and  C_6
REMARK    5  A    between atoms: C_7  and  C_8
REMARK    6  A    between atoms: C_8  and  O_9
REMARK    7  A    between atoms: C_11  and  C_12
REMARK    8  A    between atoms: C_12  and  C_13
REMARK    9  A    between atoms: C_13  and  C_14
REMARK   10  A    between atoms: C_14  and  O_15
REMARK                            x       y       z     vdW  Elec       q    Type
REMARK                         _______ _______ _______ _____ _____    ______ ____
ROOT
ATOM      1  C   UNL     1       8.413  -3.107  24.078  0.00  0.00    +0.109 A 
ATOM      2  O   UNL     1       8.861  -2.635  22.888  0.00  0.00    -0.463 OA
ATOM      3  C   UNL     1       9.435  -1.425  23.113  0.00  0.00    +0.120 A 
ATOM      4  C   UNL     1       9.385  -1.103  24.461  0.00  0.00    +0.103 A 
ATOM      5  C   UNL     1       8.708  -2.212  25.095  0.00  0.00    +0.005 A 
ATOM      6  C   UNL     1       8.339  -2.372  26.528  0.00  0.00    +0.048 C 
ENDROOT
BRANCH   4   7
ATOM      7  C   UNL     1       9.914   0.143  25.009  0.00  0.00    +0.340 C 
ATOM      8  O   UNL     1      11.109   0.403  25.041  0.00  0.00    -0.245 OA
BRANCH   7   9
ATOM      9  O   UNL     1       8.995   0.988  25.523  0.00  0.00    -0.477 OA
ATOM     10  H   UNL     1       9.396   1.741  25.987  0.00  0.00    +0.295 HD
ENDBRANCH   7   9
ENDBRANCH   4   7
BRANCH   1  11
ATOM     11  C   UNL     1       7.731  -4.431  24.023  0.00  0.00    +0.074 C 
BRANCH  11  13
ATOM     12  C   UNL     1       7.171  -5.742  21.899  0.00  0.00    +0.004 C 
ATOM     13  C   UNL     1       6.800  -4.584  22.817  0.00  0.00    +0.004 C 
ENDBRANCH  11  13
ENDBRANCH   1  11
BRANCH   3  14
ATOM     14  C   UNL     1      10.005  -0.776  21.899  0.00  0.00    +0.086 C 
BRANCH  14  15
ATOM     15  C   UNL     1       9.113   0.340  21.371  0.00  0.00    +0.128 C 
BRANCH  15  16
ATOM     16  C   UNL     1       9.266   1.731  21.951  0.00  0.00    +0.305 C 
ATOM     17  O   UNL     1       8.417   2.202  22.700  0.00  0.00    -0.251 OA
BRANCH  16  18
ATOM     18  O   UNL     1      10.359   2.441  21.624  0.00  0.00    -0.481 OA
ATOM     19  H   UNL     1      11.206   1.954  21.586  0.00  0.00    +0.295 HD
ENDBRANCH  16  18
ENDBRANCH  15  16
ENDBRANCH  14  15
ENDBRANCH   3  14
TORSDOF 8
ENDMDL
MODEL 2
REMARK VINA RESULT:      -5.4      3.147      5.809
REMARK  Name = 
REMARK  10 active torsions:
REMARK  status: ('A' for Active; 'I' for Inactive)
REMARK    1  A    between atoms: C_1  and  C_2
REMARK    2  A    between atoms: C_2  and  C_3
REMARK    3  A    between atoms: C_3  and  C_4
REMARK    4  A    between atoms: C_5  and  C_6
REMARK    5  A    between atoms: C_7  and  C_8
REMARK    6  A    between atoms: C_8  and  O_9
REMARK    7  A    between atoms: C_11  and  C_12
REMARK    8  A    between atoms: C_12  and  C_13
REMARK    9  A    between atoms: C_13  and  C_14
REMARK   10  A    between atoms: C_14  and  O_15
REMARK                            x       y       z     vdW  Elec       q    Type
REMARK                         _______ _______ _______ _____ _____    ______ ____
ROOT
ATOM      1  C   UNL     1       7.623  -2.399  23.457  0.00  0.00    +0.109 A 
ATOM      2  O   UNL     1       7.363  -3.420  22.602  0.00  0.00    -0.463 OA
ATOM      3  C   UNL     1       7.713  -4.576  23.222  0.00  0.00    +0.120 A 
ATOM      4  C   UNL     1       8.187  -4.322  24.500  0.00  0.00    +0.103 A 
ATOM      5  C   UNL     1       8.130  -2.885  24.652  0.00  0.00    +0.005 A 
ATOM      6  C   UNL     1       8.565  -2.060  25.812  0.00  0.00    +0.048 C 
ENDROOT
BRANCH   4   7
ATOM      7  C   UNL     1       8.650  -5.369  25.407  0.00  0.00    +0.340 C 
ATOM      8  O   UNL     1       7.978  -5.791  26.338  0.00  0.00    -0.245 OA
BRANCH   7   9
ATOM      9  O   UNL     1       9.901  -5.822  25.180  0.00  0.00    -0.477 OA
ATOM     10  H   UNL     1      10.045  -6.718  25.528  0.00  0.00    +0.295 HD
ENDBRANCH   7   9
ENDBRANCH   4   7
BRANCH   1  11
ATOM     11  C   UNL     1       7.314  -1.037  22.935  0.00  0.00    +0.074 C 
BRANCH  11  13
ATOM     12  C   UNL     1       9.560  -0.850  21.725  0.00  0.00    +0.004 C 
ATOM     13  C   UNL     1       8.563  -0.192  22.671  0.00  0.00    +0.004 C 
ENDBRANCH  11  13
ENDBRANCH   1  11
BRANCH   3  14
ATOM     14  C   UNL     1       7.465  -5.807  22.419  0.00  0.00    +0.086 C 
BRANCH  14  15
ATOM     15  C   UNL     1       6.078  -5.813  21.790  0.00  0.00    +0.128 C 
BRANCH  15  16
ATOM     16  C   UNL     1       4.865  -5.830  22.698  0.00  0.00    +0.305 C 
ATOM     17  O   UNL     1       4.052  -4.913  22.688  0.00  0.00    -0.251 OA
BRANCH  16  18
ATOM     18  O   UNL     1       4.701  -6.881  23.519  0.00  0.00    -0.481 OA
ATOM     19  H   UNL     1       5.157  -7.710  23.273  0.00  0.00    +0.295 HD
ENDBRANCH  16  18
ENDBRANCH  15  16
ENDBRANCH  14  15
ENDBRANCH   3  14
TORSDOF 8
ENDMDL
MODEL 3
REMARK VINA RESULT:      -5.4      1.639      3.175
REMARK  Name = 
REMARK  10 active torsions:
REMARK  status: ('A' for Active; 'I' for Inactive)
REMARK    1  A    between atoms: C_1  and  C_2
REMARK    2  A    between atoms: C_2  and  C_3
REMARK    3  A    between atoms: C_3  and  C_4
REMARK    4  A    between atoms: C_5  and  C_6
REMARK    5  A    between atoms: C_7  and  C_8
REMARK    6  A    between atoms: C_8  and  O_9
REMARK    7  A    between atoms: C_11  and  C_12
REMARK    8  A    between atoms: C_12  and  C_13
REMARK    9  A    between atoms: C_13  and  C_14
REMARK   10  A    between atoms: C_14  and  O_15
REMARK                            x       y       z     vdW  Elec       q    Type
REMARK                         _______ _______ _______ _____ _____    ______ ____
ROOT
ATOM      1  C   UNL     1       8.182  -2.092  25.230  0.00  0.00    +0.109 A 
ATOM      2  O   UNL     1       8.983  -1.060  25.595  0.00  0.00    -0.463 OA
ATOM      3  C   UNL     1       9.571  -0.576  24.471  0.00  0.00    +0.120 A 
ATOM      4  C   UNL     1       9.142  -1.277  23.354  0.00  0.00    +0.103 A 
ATOM      5  C   UNL     1       8.228  -2.278  23.857  0.00  0.00    +0.005 A 
ATOM      6  C   UNL     1       7.510  -3.339  23.100  0.00  0.00    +0.048 C 
ENDROOT
BRANCH   4   7
ATOM      7  C   UNL     1       9.607  -0.992  21.999  0.00  0.00    +0.340 C 
ATOM      8  O   UNL     1       9.081  -0.161  21.273  0.00  0.00    -0.245 OA
BRANCH   7   9
ATOM      9  O   UNL     1      10.646  -1.742  21.573  0.00  0.00    -0.477 OA
ATOM     10  H   UNL     1      10.366  -2.598  21.208  0.00  0.00    +0.295 HD
ENDBRANCH   7   9
ENDBRANCH   4   7
BRANCH   1  11
ATOM     11  C   UNL     1       7.461  -2.764  26.349  0.00  0.00    +0.074 C 
BRANCH  11  13
ATOM     12  C   UNL     1       9.295  -4.545  26.437  0.00  0.00    +0.004 C 
ATOM     13  C   UNL     1       7.800  -4.251  26.481  0.00  0.00    +0.004 C 
ENDBRANCH  11  13
ENDBRANCH   1  11
BRANCH   3  14
ATOM     14  C   UNL     1      10.473   0.589  24.696  0.00  0.00    +0.086 C 
BRANCH  14  15
ATOM     15  C   UNL     1       9.853   1.896  24.218  0.00  0.00    +0.128 C 
BRANCH  15  16
ATOM     16  C   UNL     1      10.552   2.678  23.125  0.00  0.00    +0.305 C 
ATOM     17  O   UNL     1      11.342   3.576  23.394  0.00  0.00    -0.251 OA
BRANCH  16  18
ATOM     18  O   UNL     1      10.284   2.362  21.847  0.00  0.00    -0.481 OA
ATOM     19  H   UNL     1      10.675   2.938  21.159  0.00  0.00    +0.295 HD
ENDBRANCH  16  18
ENDBRANCH  15  16
ENDBRANCH  14  15
ENDBRANCH   3  14
TORSDOF 8
ENDMDL
MODEL 4
REMARK VINA RESULT:      -5.3      2.414      5.237
REMARK  Name = 
REMARK  10 active torsions:
REMARK  status: ('A' for Active; 'I' for Inactive)
REMARK    1  A    between atoms: C_1  and  C_2
REMARK    2  A    between atoms: C_2  and  C_3
REMARK    3  A    between atoms: C_3  and  C_4
REMARK    4  A    between atoms: C_5  and  C_6
REMARK    5  A    between atoms: C_7  and  C_8
REMARK    6  A    between atoms: C_8  and  O_9
REMARK    7  A    between atoms: C_11  and  C_12
REMARK    8  A    between atoms: C_12  and  C_13
REMARK    9  A    between atoms: C_13  and  C_14
REMARK   10  A    between atoms: C_14  and  O_15
REMARK                            x       y       z     vdW  Elec       q    Type
REMARK                         _______ _______ _______ _____ _____    ______ ____
ROOT
ATOM      1  C   UNL     1       9.305  -1.691  22.999  0.00  0.00    +0.109 A 
ATOM      2  O   UNL     1       8.693  -2.857  22.676  0.00  0.00    -0.463 OA
ATOM      3  C   UNL     1       8.253  -3.424  23.829  0.00  0.00    +0.120 A 
ATOM      4  C   UNL     1       8.557  -2.621  24.917  0.00  0.00    +0.103 A 
ATOM      5  C   UNL     1       9.254  -1.479  24.368  0.00  0.00    +0.005 A 
ATOM      6  C   UNL     1       9.853  -0.325  25.093  0.00  0.00    +0.048 C 
ENDROOT
BRANCH   4   7
ATOM      7  C   UNL     1       8.218  -2.972  26.294  0.00  0.00    +0.340 C 
ATOM      8  O   UNL     1       8.764  -3.881  26.904  0.00  0.00    -0.245 OA
BRANCH   7   9
ATOM      9  O   UNL     1       7.223  -2.249  26.849  0.00  0.00    -0.477 OA
ATOM     10  H   UNL     1       6.400  -2.756  26.946  0.00  0.00    +0.295 HD
ENDBRANCH   7   9
ENDBRANCH   4   7
BRANCH   1  11
ATOM     11  C   UNL     1       9.873  -0.930  21.849  0.00  0.00    +0.074 C 
BRANCH  11  13
ATOM     12  C   UNL     1       9.951   1.624  21.969  0.00  0.00    +0.004 C 
ATOM     13  C   UNL     1       9.146   0.390  21.579  0.00  0.00    +0.004 C 
ENDBRANCH  11  13
ENDBRANCH   1  11
BRANCH   3  14
ATOM     14  C   UNL     1       7.528  -4.714  23.645  0.00  0.00    +0.086 C 
BRANCH  14  15
ATOM     15  C   UNL     1       7.497  -5.153  22.187  0.00  0.00    +0.128 C 
BRANCH  15  16
ATOM     16  C   UNL     1       6.161  -5.230  21.477  0.00  0.00    +0.305 C 
ATOM     17  O   UNL     1       5.733  -4.283  20.826  0.00  0.00    -0.251 OA
BRANCH  16  18
ATOM     18  O   UNL     1       5.451  -6.366  21.579  0.00  0.00    -0.481 OA
ATOM     19  H   UNL     1       5.513  -6.852  22.426  0.00  0.00    +0.295 HD
ENDBRANCH  16  18
ENDBRANCH  15  16
ENDBRANCH  14  15
ENDBRANCH   3  14
TORSDOF 8
ENDMDL
MODEL 5
REMARK VINA RESULT:      -5.3      2.771      5.447
REMARK  Name = 
REMARK  10 active torsions:
REMARK  status: ('A' for Active; 'I' for Inactive)
REMARK    1  A    between atoms: C_1  and  C_2
REMARK    2  A    between atoms: C_2  and  C_3
REMARK    3  A    between atoms: C_3  and  C_4
REMARK    4  A    between atoms: C_5  and  C_6
REMARK    5  A    between atoms: C_7  and  C_8
REMARK    6  A    between atoms: C_8  and  O_9
REMARK    7  A    between atoms: C_11  and  C_12
REMARK    8  A    between atoms: C_12  and  C_13
REMARK    9  A    between atoms: C_13  and  C_14
REMARK   10  A    between atoms: C_14  and  O_15
REMARK                            x       y       z     vdW  Elec       q    Type
REMARK                         _______ _______ _______ _____ _____    ______ ____
ROOT
ATOM      1  C   UNL     1       8.301  -1.711  23.113  0.00  0.00    +0.109 A 
ATOM      2  O   UNL     1       7.713  -2.813  22.583  0.00  0.00    -0.463 OA
ATOM      3  C   UNL     1       8.033  -3.871  23.371  0.00  0.00    +0.120 A 
ATOM      4  C   UNL     1       8.820  -3.466  24.439  0.00  0.00    +0.103 A 
ATOM      5  C   UNL     1       8.998  -2.042  24.265  0.00  0.00    +0.005 A 
ATOM      6  C   UNL     1       9.799  -1.102  25.096  0.00  0.00    +0.048 C 
ENDROOT
BRANCH   4   7
ATOM      7  C   UNL     1       9.331  -4.384  25.454  0.00  0.00    +0.340 C 
ATOM      8  O   UNL     1       8.919  -4.402  26.605  0.00  0.00    -0.245 OA
BRANCH   7   9
ATOM      9  O   UNL     1      10.331  -5.197  25.050  0.00  0.00    -0.477 OA
ATOM     10  H   UNL     1      10.309  -5.373  24.096  0.00  0.00    +0.295 HD
ENDBRANCH   7   9
ENDBRANCH   4   7
BRANCH   1  11
ATOM     11  C   UNL     1       8.071  -0.444  22.363  0.00  0.00    +0.074 C 
BRANCH  11  13
ATOM     12  C   UNL     1       9.739   1.439  21.899  0.00  0.00    +0.004 C 
ATOM     13  C   UNL     1       9.293   0.020  21.567  0.00  0.00    +0.004 C 
ENDBRANCH  11  13
ENDBRANCH   1  11
BRANCH   3  14
ATOM     14  C   UNL     1       7.439  -5.167  22.938  0.00  0.00    +0.086 C 
BRANCH  14  15
ATOM     15  C   UNL     1       6.042  -5.378  23.507  0.00  0.00    +0.128 C 
BRANCH  15  16
ATOM     16  C   UNL     1       4.854  -4.822  22.750  0.00  0.00    +0.305 C 
ATOM     17  O   UNL     1       3.757  -5.367  22.802  0.00  0.00    -0.251 OA
BRANCH  16  18
ATOM     18  O   UNL     1       5.032  -3.712  22.014  0.00  0.00    -0.481 OA
ATOM     19  H   UNL     1       4.570  -3.675  21.153  0.00  0.00    +0.295 HD
ENDBRANCH  16  18
ENDBRANCH  15  16
ENDBRANCH  14  15
ENDBRANCH   3  14
TORSDOF 8
ENDMDL
MODEL 6
REMARK VINA RESULT:      -5.3      2.267      5.885
REMARK  Name = 
REMARK  10 active torsions:
REMARK  status: ('A' for Active; 'I' for Inactive)
REMARK    1  A    between atoms: C_1  and  C_2
REMARK    2  A    between atoms: C_2  and  C_3
REMARK    3  A    between atoms: C_3  and  C_4
REMARK    4  A    between atoms: C_5  and  C_6
REMARK    5  A    between atoms: C_7  and  C_8
REMARK    6  A    between atoms: C_8  and  O_9
REMARK    7  A    between atoms: C_11  and  C_12
REMARK    8  A    between atoms: C_12  and  C_13
REMARK    9  A    between atoms: C_13  and  C_14
REMARK   10  A    between atoms: C_14  and  O_15
REMARK                            x       y       z     vdW  Elec       q    Type
REMARK                         _______ _______ _______ _____ _____    ______ ____
ROOT
ATOM      1  C   UNL     1       9.828  -0.480  24.049  0.00  0.00    +0.109 A 
ATOM      2  O   UNL     1       9.387  -1.154  25.139  0.00  0.00    -0.463 OA
ATOM      3  C   UNL     1       8.411  -2.006  24.732  0.00  0.00    +0.120 A 
ATOM      4  C   UNL     1       8.219  -1.910  23.362  0.00  0.00    +0.103 A 
ATOM      5  C   UNL     1       9.152  -0.900  22.914  0.00  0.00    +0.005 A 
ATOM      6  C   UNL     1       9.340  -0.360  21.539  0.00  0.00    +0.048 C 
ENDROOT
BRANCH   4   7
ATOM      7  C   UNL     1       7.227  -2.696  22.633  0.00  0.00    +0.340 C 
ATOM      8  O   UNL     1       6.082  -2.311  22.439  0.00  0.00    -0.245 OA
BRANCH   7   9
ATOM      9  O   UNL     1       7.642  -3.910  22.214  0.00  0.00    -0.477 OA
ATOM     10  H   UNL     1       8.542  -3.893  21.848  0.00  0.00    +0.295 HD
ENDBRANCH   7   9
ENDBRANCH   4   7
BRANCH   1  11
ATOM     11  C   UNL     1      10.900   0.522  24.310  0.00  0.00    +0.074 C 
BRANCH  11  13
ATOM     12  C   UNL     1       9.137   2.355  24.582  0.00  0.00    +0.004 C 
ATOM     13  C   UNL     1      10.480   1.958  23.984  0.00  0.00    +0.004 C 
ENDBRANCH  11  13
ENDBRANCH   1  11
BRANCH   3  14
ATOM     14  C   UNL     1       7.833  -2.848  25.816  0.00  0.00    +0.086 C 
BRANCH  14  15
ATOM     15  C   UNL     1       8.807  -3.916  26.296  0.00  0.00    +0.128 C 
BRANCH  15  16
ATOM     16  C   UNL     1       9.230  -5.004  25.330  0.00  0.00    +0.305 C 
ATOM     17  O   UNL     1       8.460  -5.428  24.475  0.00  0.00    -0.251 OA
BRANCH  16  18
ATOM     18  O   UNL     1      10.477  -5.495  25.432  0.00  0.00    -0.481 OA
ATOM     19  H   UNL     1      11.064  -5.374  24.659  0.00  0.00    +0.295 HD
ENDBRANCH  16  18
ENDBRANCH  15  16
ENDBRANCH  14  15
ENDBRANCH   3  14
TORSDOF 8
ENDMDL
MODEL 7
REMARK VINA RESULT:      -5.2      1.686      2.233
REMARK  Name = 
REMARK  10 active torsions:
REMARK  status: ('A' for Active; 'I' for Inactive)
REMARK    1  A    between atoms: C_1  and  C_2
REMARK    2  A    between atoms: C_2  and  C_3
REMARK    3  A    between atoms: C_3  and  C_4
REMARK    4  A    between atoms: C_5  and  C_6
REMARK    5  A    between atoms: C_7  and  C_8
REMARK    6  A    between atoms: C_8  and  O_9
REMARK    7  A    between atoms: C_11  and  C_12
REMARK    8  A    between atoms: C_12  and  C_13
REMARK    9  A    between atoms: C_13  and  C_14
REMARK   10  A    between atoms: C_14  and  O_15
REMARK                            x       y       z     vdW  Elec       q    Type
REMARK                         _______ _______ _______ _____ _____    ______ ____
ROOT
ATOM      1  C   UNL     1       7.591  -3.562  23.455  0.00  0.00    +0.109 A 
ATOM      2  O   UNL     1       8.754  -2.914  23.197  0.00  0.00    -0.463 OA
ATOM      3  C   UNL     1       8.537  -1.587  23.387  0.00  0.00    +0.120 A 
ATOM      4  C   UNL     1       7.231  -1.357  23.792  0.00  0.00    +0.103 A 
ATOM      5  C   UNL     1       6.608  -2.661  23.833  0.00  0.00    +0.005 A 
ATOM      6  C   UNL     1       5.195  -3.000  24.157  0.00  0.00    +0.048 C 
ENDROOT
BRANCH   4   7
ATOM      7  C   UNL     1       6.698  -0.025  24.064  0.00  0.00    +0.340 C 
ATOM      8  O   UNL     1       6.745   0.500  25.167  0.00  0.00    -0.245 OA
BRANCH   7   9
ATOM      9  O   UNL     1       6.103   0.587  23.017  0.00  0.00    -0.477 OA
ATOM     10  H   UNL     1       5.649   1.407  23.271  0.00  0.00    +0.295 HD
ENDBRANCH   7   9
ENDBRANCH   4   7
BRANCH   1  11
ATOM     11  C   UNL     1       7.634  -5.042  23.281  0.00  0.00    +0.074 C 
BRANCH  11  13
ATOM     12  C   UNL     1       5.784  -5.853  21.712  0.00  0.00    +0.004 C 
ATOM     13  C   UNL     1       7.257  -5.497  21.868  0.00  0.00    +0.004 C 
ENDBRANCH  11  13
ENDBRANCH   1  11
BRANCH   3  14
ATOM     14  C   UNL     1       9.735  -0.728  23.166  0.00  0.00    +0.086 C 
BRANCH  14  15
ATOM     15  C   UNL     1       9.767  -0.136  21.763  0.00  0.00    +0.128 C 
BRANCH  15  16
ATOM     16  C   UNL     1       9.341   1.305  21.570  0.00  0.00    +0.305 C 
ATOM     17  O   UNL     1       8.173   1.596  21.338  0.00  0.00    -0.251 OA
BRANCH  16  18
ATOM     18  O   UNL     1      10.279   2.263  21.658  0.00  0.00    -0.481 OA
ATOM     19  H   UNL     1      10.132   3.075  21.133  0.00  0.00    +0.295 HD
ENDBRANCH  16  18
ENDBRANCH  15  16
ENDBRANCH  14  15
ENDBRANCH   3  14
TORSDOF 8
ENDMDL
MODEL 8
REMARK VINA RESULT:      -5.1      4.129      6.678
REMARK  Name = 
REMARK  10 active torsions:
REMARK  status: ('A' for Active; 'I' for Inactive)
REMARK    1  A    between atoms: C_1  and  C_2
REMARK    2  A    between atoms: C_2  and  C_3
REMARK    3  A    between atoms: C_3  and  C_4
REMARK    4  A    between atoms: C_5  and  C_6
REMARK    5  A    between atoms: C_7  and  C_8
REMARK    6  A    between atoms: C_8  and  O_9
REMARK    7  A    between atoms: C_11  and  C_12
REMARK    8  A    between atoms: C_12  and  C_13
REMARK    9  A    between atoms: C_13  and  C_14
REMARK   10  A    between atoms: C_14  and  O_15
REMARK                            x       y       z     vdW  Elec       q    Type
REMARK                         _______ _______ _______ _____ _____    ______ ____
ROOT
ATOM      1  C   UNL     1       5.647  -5.998  24.034  0.00  0.00    +0.109 A 
ATOM      2  O   UNL     1       6.705  -5.458  24.690  0.00  0.00    -0.463 OA
ATOM      3  C   UNL     1       6.502  -5.639  26.020  0.00  0.00    +0.120 A 
ATOM      4  C   UNL     1       5.315  -6.320  26.246  0.00  0.00    +0.103 A 
ATOM      5  C   UNL     1       4.751  -6.553  24.935  0.00  0.00    +0.005 A 
ATOM      6  C   UNL     1       3.457  -7.201  24.587  0.00  0.00    +0.048 C 
ENDROOT
BRANCH   4   7
ATOM      7  C   UNL     1       4.821  -6.652  27.580  0.00  0.00    +0.340 C 
ATOM      8  O   UNL     1       3.867  -6.090  28.098  0.00  0.00    -0.245 OA
BRANCH   7   9
ATOM      9  O   UNL     1       5.517  -7.606  28.235  0.00  0.00    -0.477 OA
ATOM     10  H   UNL     1       6.473  -7.435  28.241  0.00  0.00    +0.295 HD
ENDBRANCH   7   9
ENDBRANCH   4   7
BRANCH   1  11
ATOM     11  C   UNL     1       5.689  -5.877  22.549  0.00  0.00    +0.074 C 
BRANCH  11  13
ATOM     12  C   UNL     1       6.038  -3.427  21.902  0.00  0.00    +0.004 C 
ATOM     13  C   UNL     1       6.666  -4.807  22.056  0.00  0.00    +0.004 C 
ENDBRANCH  11  13
ENDBRANCH   1  11
BRANCH   3  14
ATOM     14  C   UNL     1       7.596  -5.119  26.889  0.00  0.00    +0.086 C 
BRANCH  14  15
ATOM     15  C   UNL     1       8.464  -4.096  26.169  0.00  0.00    +0.128 C 
BRANCH  15  16
ATOM     16  C   UNL     1       9.509  -4.587  25.189  0.00  0.00    +0.305 C 
ATOM     17  O   UNL     1      10.010  -3.831  24.363  0.00  0.00    -0.251 OA
BRANCH  16  18
ATOM     18  O   UNL     1       9.877  -5.878  25.245  0.00  0.00    -0.481 OA
ATOM     19  H   UNL     1       9.658  -6.364  26.065  0.00  0.00    +0.295 HD
ENDBRANCH  16  18
ENDBRANCH  15  16
ENDBRANCH  14  15
ENDBRANCH   3  14
TORSDOF 8
ENDMDL
MODEL 9
REMARK VINA RESULT:      -5.0      2.406      5.362
REMARK  Name = 
REMARK  10 active torsions:
REMARK  status: ('A' for Active; 'I' for Inactive)
REMARK    1  A    between atoms: C_1  and  C_2
REMARK    2  A    between atoms: C_2  and  C_3
REMARK    3  A    between atoms: C_3  and  C_4
REMARK    4  A    between atoms: C_5  and  C_6
REMARK    5  A    between atoms: C_7  and  C_8
REMARK    6  A    between atoms: C_8  and  O_9
REMARK    7  A    between atoms: C_11  and  C_12
REMARK    8  A    between atoms: C_12  and  C_13
REMARK    9  A    between atoms: C_13  and  C_14
REMARK   10  A    between atoms: C_14  and  O_15
REMARK                            x       y       z     vdW  Elec       q    Type
REMARK                         _______ _______ _______ _____ _____    ______ ____
ROOT
ATOM      1  C   UNL     1       9.195  -1.314  23.368  0.00  0.00    +0.109 A 
ATOM      2  O   UNL     1       8.713  -2.523  22.986  0.00  0.00    -0.463 OA
ATOM      3  C   UNL     1       7.865  -2.954  23.955  0.00  0.00    +0.120 A 
ATOM      4  C   UNL     1       7.769  -2.018  24.974  0.00  0.00    +0.103 A 
ATOM      5  C   UNL     1       8.650  -0.939  24.586  0.00  0.00    +0.005 A 
ATOM      6  C   UNL     1       8.971   0.307  25.335  0.00  0.00    +0.048 C 
ENDROOT
BRANCH   4   7
ATOM      7  C   UNL     1       6.940  -2.205  26.161  0.00  0.00    +0.340 C 
ATOM      8  O   UNL     1       7.102  -3.125  26.951  0.00  0.00    -0.245 OA
BRANCH   7   9
ATOM      9  O   UNL     1       5.940  -1.311  26.317  0.00  0.00    -0.477 OA
ATOM     10  H   UNL     1       6.264  -0.415  26.508  0.00  0.00    +0.295 HD
ENDBRANCH   7   9
ENDBRANCH   4   7
BRANCH   1  11
ATOM     11  C   UNL     1      10.165  -0.689  22.425  0.00  0.00    +0.074 C 
BRANCH  11  13
ATOM     12  C   UNL     1       9.989   1.834  22.044  0.00  0.00    +0.004 C 
ATOM     13  C   UNL     1       9.557   0.444  21.594  0.00  0.00    +0.004 C 
ENDBRANCH  11  13
ENDBRANCH   1  11
BRANCH   3  14
ATOM     14  C   UNL     1       7.224  -4.270  23.676  0.00  0.00    +0.086 C 
BRANCH  14  15
ATOM     15  C   UNL     1       8.172  -5.436  23.926  0.00  0.00    +0.128 C 
BRANCH  15  16
ATOM     16  C   UNL     1       9.070  -5.396  25.145  0.00  0.00    +0.305 C 
ATOM     17  O   UNL     1      10.238  -5.032  25.060  0.00  0.00    -0.251 OA
BRANCH  16  18
ATOM     18  O   UNL     1       8.555  -5.772  26.327  0.00  0.00    -0.481 OA
ATOM     19  H   UNL     1       8.666  -6.711  26.579  0.00  0.00    +0.295 HD
ENDBRANCH  16  18
ENDBRANCH  15  16
ENDBRANCH  14  15
ENDBRANCH   3  14
TORSDOF 8
ENDMDL
