MODEL 1
REMARK VINA RESULT:      -5.8      0.000      0.000
REMARK  Name = 
REMARK  2 active torsions:
REMARK  status: ('A' for Active; 'I' for Inactive)
REMARK    1  A    between atoms: C_1  and  N_2
REMARK    2  A    between atoms: C_6  and  C_12
REMARK                            x       y       z     vdW  Elec       q    Type
REMARK                         _______ _______ _______ _____ _____    ______ ____
ROOT
ATOM      1  C   UNL     1       4.591  -6.783  28.861  0.00  0.00    +0.179 C 
ATOM      2  N   UNL     1       5.517  -6.312  27.854  0.00  0.00    -0.199 N 
ATOM      3  C   UNL     1       5.065  -6.142  26.559  0.00  0.00    +0.353 A 
ATOM      4  O   UNL     1       3.948  -6.337  26.102  0.00  0.00    -0.244 OA
ATOM      5  N   UNL     1       6.079  -5.692  25.739  0.00  0.00    -0.232 N 
ATOM      6  C   UNL     1       7.351  -5.452  26.174  0.00  0.00    +0.197 A 
ATOM      7  C   UNL     1       8.042  -5.023  25.056  0.00  0.00    +0.171 A 
ATOM      8  N   UNL     1       7.198  -4.998  23.947  0.00  0.00    -0.228 NA
ATOM      9  N   UNL     1       7.665  -5.657  27.470  0.00  0.00    -0.110 NA
ATOM     10  C   UNL     1       6.032  -5.407  24.400  0.00  0.00    +0.210 A 
ATOM     11  N   UNL     1       6.801  -6.066  28.279  0.00  0.00    -0.060 NA
ENDROOT
BRANCH   7  12
ATOM     12  C   UNL     1       9.447  -4.639  24.991  0.00  0.00    +0.264 C 
ATOM     13  O   UNL     1       9.886  -3.692  24.350  0.00  0.00    -0.269 OA
ATOM     14  N   UNL     1      10.268  -5.447  25.727  0.00  0.00    -0.324 N 
ATOM     15  H   UNL     1      11.257  -5.260  25.745  0.00  0.00    +0.145 HD
ATOM     16  H   UNL     1       9.873  -6.222  26.246  0.00  0.00    +0.145 HD
ENDBRANCH   7  12
TORSDOF 1
ENDMDL
MODEL 2
REMARK VINA RESULT:      -5.4      3.230      5.404
REMARK  Name = 
REMARK  2 active torsions:
REMARK  status: ('A' for Active; 'I' for Inactive)
REMARK    1  A    between atoms: C_1  and  N_2
REMARK    2  A    between atoms: C_6  and  C_12
REMARK                            x       y       z     vdW  Elec       q    Type
REMARK                         _______ _______ _______ _____ _____    ______ ____
ROOT
ATOM      1  C   UNL     1       9.812  -0.362  21.872  0.00  0.00    +0.179 C 
ATOM      2  N   UNL     1       9.305  -1.381  22.765  0.00  0.00    -0.199 N 
ATOM      3  C   UNL     1       7.959  -1.384  23.079  0.00  0.00    +0.353 A 
ATOM      4  O   UNL     1       7.080  -0.622  22.704  0.00  0.00    -0.244 OA
ATOM      5  N   UNL     1       7.657  -2.420  23.939  0.00  0.00    -0.232 N 
ATOM      6  C   UNL     1       8.582  -3.310  24.403  0.00  0.00    +0.197 A 
ATOM      7  C   UNL     1       7.877  -4.170  25.225  0.00  0.00    +0.171 A 
ATOM      8  N   UNL     1       6.532  -3.809  25.262  0.00  0.00    -0.228 NA
ATOM      9  N   UNL     1       9.870  -3.199  24.017  0.00  0.00    -0.110 NA
ATOM     10  C   UNL     1       6.443  -2.755  24.478  0.00  0.00    +0.210 A 
ATOM     11  N   UNL     1      10.227  -2.285  23.238  0.00  0.00    -0.060 NA
ENDROOT
BRANCH   7  12
ATOM     12  C   UNL     1       8.414  -5.304  25.968  0.00  0.00    +0.264 C 
ATOM     13  O   UNL     1       7.840  -5.875  26.887  0.00  0.00    -0.269 OA
ATOM     14  N   UNL     1       9.653  -5.696  25.544  0.00  0.00    -0.324 N 
ATOM     15  H   UNL     1      10.106  -6.474  25.997  0.00  0.00    +0.145 HD
ATOM     16  H   UNL     1      10.101  -5.204  24.781  0.00  0.00    +0.145 HD
ENDBRANCH   7  12
TORSDOF 1
ENDMDL
MODEL 3
REMARK VINA RESULT:      -5.3      3.584      5.896
REMARK  Name = 
REMARK  2 active torsions:
REMARK  status: ('A' for Active; 'I' for Inactive)
REMARK    1  A    between atoms: C_1  and  N_2
REMARK    2  A    between atoms: C_6  and  C_12
REMARK                            x       y       z     vdW  Elec       q    Type
REMARK                         _______ _______ _______ _____ _____    ______ ____
ROOT
ATOM      1  C   UNL     1       9.851   0.149  21.935  0.00  0.00    +0.179 C 
ATOM      2  N   UNL     1       9.538  -0.847  22.935  0.00  0.00    -0.199 N 
ATOM      3  C   UNL     1       8.788  -0.476  24.035  0.00  0.00    +0.353 A 
ATOM      4  O   UNL     1       8.320   0.618  24.314  0.00  0.00    -0.244 OA
ATOM      5  N   UNL     1       8.589  -1.549  24.880  0.00  0.00    -0.232 N 
ATOM      6  C   UNL     1       9.079  -2.800  24.639  0.00  0.00    +0.197 A 
ATOM      7  C   UNL     1       8.664  -3.565  25.713  0.00  0.00    +0.171 A 
ATOM      8  N   UNL     1       7.924  -2.789  26.602  0.00  0.00    -0.228 NA
ATOM      9  N   UNL     1       9.799  -3.033  23.522  0.00  0.00    -0.110 NA
ATOM     10  C   UNL     1       7.904  -1.587  26.065  0.00  0.00    +0.210 A 
ATOM     11  N   UNL     1      10.025  -2.112  22.704  0.00  0.00    -0.060 NA
ENDROOT
BRANCH   7  12
ATOM     12  C   UNL     1       8.932  -4.982  25.931  0.00  0.00    +0.264 C 
ATOM     13  O   UNL     1       8.102  -5.803  26.303  0.00  0.00    -0.269 OA
ATOM     14  N   UNL     1      10.227  -5.337  25.681  0.00  0.00    -0.324 N 
ATOM     15  H   UNL     1      10.509  -6.297  25.804  0.00  0.00    +0.145 HD
ATOM     16  H   UNL     1      10.889  -4.634  25.374  0.00  0.00    +0.145 HD
ENDBRANCH   7  12
TORSDOF 1
ENDMDL
MODEL 4
REMARK VINA RESULT:      -5.3      4.925      7.152
REMARK  Name = 
REMARK  2 active torsions:
REMARK  status: ('A' for Active; 'I' for Inactive)
REMARK    1  A    between atoms: C_1  and  N_2
REMARK    2  A    between atoms: C_6  and  C_12
REMARK                            x       y       z     vdW  Elec       q    Type
REMARK                         _______ _______ _______ _____ _____    ______ ____
ROOT
ATOM      1  C   UNL     1      10.708   2.862  23.500  0.00  0.00    +0.179 C 
ATOM      2  N   UNL     1      10.323   1.471  23.579  0.00  0.00    -0.199 N 
ATOM      3  C   UNL     1       9.747   0.872  22.475  0.00  0.00    +0.353 A 
ATOM      4  O   UNL     1       9.496   1.357  21.381  0.00  0.00    -0.244 OA
ATOM      5  N   UNL     1       9.446  -0.450  22.732  0.00  0.00    -0.232 N 
ATOM      6  C   UNL     1       9.695  -1.062  23.926  0.00  0.00    +0.197 A 
ATOM      7  C   UNL     1       9.248  -2.361  23.768  0.00  0.00    +0.171 A 
ATOM      8  N   UNL     1       8.732  -2.541  22.486  0.00  0.00    -0.228 NA
ATOM      9  N   UNL     1      10.266  -0.364  24.930  0.00  0.00    -0.110 NA
ATOM     10  C   UNL     1       8.869  -1.372  21.898  0.00  0.00    +0.210 A 
ATOM     11  N   UNL     1      10.570   0.842  24.777  0.00  0.00    -0.060 NA
ENDROOT
BRANCH   7  12
ATOM     12  C   UNL     1       9.287  -3.425  24.763  0.00  0.00    +0.264 C 
ATOM     13  O   UNL     1       9.785  -4.531  24.588  0.00  0.00    -0.269 OA
ATOM     14  N   UNL     1       8.705  -3.084  25.951  0.00  0.00    -0.324 N 
ATOM     15  H   UNL     1       8.684  -3.755  26.702  0.00  0.00    +0.145 HD
ATOM     16  H   UNL     1       8.303  -2.161  26.065  0.00  0.00    +0.145 HD
ENDBRANCH   7  12
TORSDOF 1
ENDMDL
MODEL 5
REMARK VINA RESULT:      -5.2      4.782      6.019
REMARK  Name = 
REMARK  2 active torsions:
REMARK  status: ('A' for Active; 'I' for Inactive)
REMARK    1  A    between atoms: C_1  and  N_2
REMARK    2  A    between atoms: C_6  and  C_12
REMARK                            x       y       z     vdW  Elec       q    Type
REMARK                         _______ _______ _______ _____ _____    ______ ____
ROOT
ATOM      1  C   UNL     1       8.204  -3.600  26.379  0.00  0.00    +0.179 C 
ATOM      2  N   UNL     1       8.641  -2.580  25.452  0.00  0.00    -0.199 N 
ATOM      3  C   UNL     1       8.810  -2.915  24.121  0.00  0.00    +0.353 A 
ATOM      4  O   UNL     1       8.639  -3.994  23.572  0.00  0.00    -0.244 OA
ATOM      5  N   UNL     1       9.230  -1.824  23.388  0.00  0.00    -0.232 N 
ATOM      6  C   UNL     1       9.443  -0.588  23.929  0.00  0.00    +0.197 A 
ATOM      7  C   UNL     1       9.851   0.204  22.872  0.00  0.00    +0.171 A 
ATOM      8  N   UNL     1       9.885  -0.540  21.695  0.00  0.00    -0.228 NA
ATOM      9  N   UNL     1       9.239  -0.391  25.248  0.00  0.00    -0.110 NA
ATOM     10  C   UNL     1       9.506  -1.750  22.049  0.00  0.00    +0.210 A 
ATOM     11  N   UNL     1       8.859  -1.331  25.983  0.00  0.00    -0.060 NA
ENDROOT
BRANCH   7  12
ATOM     12  C   UNL     1      10.205   1.618  22.926  0.00  0.00    +0.264 C 
ATOM     13  O   UNL     1      10.724   2.173  23.887  0.00  0.00    -0.269 OA
ATOM     14  N   UNL     1       9.902   2.301  21.782  0.00  0.00    -0.324 N 
ATOM     15  H   UNL     1      10.110   3.285  21.724  0.00  0.00    +0.145 HD
ATOM     16  H   UNL     1       9.473   1.811  21.005  0.00  0.00    +0.145 HD
ENDBRANCH   7  12
TORSDOF 1
ENDMDL
MODEL 6
REMARK VINA RESULT:      -5.2      2.267      3.489
REMARK  Name = 
REMARK  2 active torsions:
REMARK  status: ('A' for Active; 'I' for Inactive)
REMARK    1  A    between atoms: C_1  and  N_2
REMARK    2  A    between atoms: C_6  and  C_12
REMARK                            x       y       z     vdW  Elec       q    Type
REMARK                         _______ _______ _______ _____ _____    ______ ____
ROOT
ATOM      1  C   UNL     1       6.326  -6.001  28.283  0.00  0.00    +0.179 C 
ATOM      2  N   UNL     1       6.439  -5.671  26.879  0.00  0.00    -0.199 N 
ATOM      3  C   UNL     1       7.533  -4.944  26.450  0.00  0.00    +0.353 A 
ATOM      4  O   UNL     1       8.473  -4.511  27.100  0.00  0.00    -0.244 OA
ATOM      5  N   UNL     1       7.473  -4.722  25.089  0.00  0.00    -0.232 N 
ATOM      6  C   UNL     1       6.457  -5.172  24.295  0.00  0.00    +0.197 A 
ATOM      7  C   UNL     1       6.775  -4.740  23.021  0.00  0.00    +0.171 A 
ATOM      8  N   UNL     1       7.976  -4.033  23.035  0.00  0.00    -0.228 NA
ATOM      9  N   UNL     1       5.443  -5.875  24.840  0.00  0.00    -0.110 NA
ATOM     10  C   UNL     1       8.360  -4.046  24.294  0.00  0.00    +0.210 A 
ATOM     11  N   UNL     1       5.423  -6.119  26.068  0.00  0.00    -0.060 NA
ENDROOT
BRANCH   7  12
ATOM     12  C   UNL     1       6.002  -4.963  21.805  0.00  0.00    +0.264 C 
ATOM     13  O   UNL     1       5.687  -4.091  21.004  0.00  0.00    -0.269 OA
ATOM     14  N   UNL     1       5.642  -6.268  21.619  0.00  0.00    -0.324 N 
ATOM     15  H   UNL     1       5.105  -6.522  20.805  0.00  0.00    +0.145 HD
ATOM     16  H   UNL     1       5.918  -6.966  22.300  0.00  0.00    +0.145 HD
ENDBRANCH   7  12
TORSDOF 1
ENDMDL
MODEL 7
REMARK VINA RESULT:      -5.1      6.993      8.917
REMARK  Name = 
REMARK  2 active torsions:
REMARK  status: ('A' for Active; 'I' for Inactive)
REMARK    1  A    between atoms: C_1  and  N_2
REMARK    2  A    between atoms: C_6  and  C_12
REMARK                            x       y       z     vdW  Elec       q    Type
REMARK                         _______ _______ _______ _____ _____    ______ ____
ROOT
ATOM      1  C   UNL     1       7.154   4.631  22.249  0.00  0.00    +0.179 C 
ATOM      2  N   UNL     1       7.909   3.418  22.474  0.00  0.00    -0.199 N 
ATOM      3  C   UNL     1       8.940   3.433  23.394  0.00  0.00    +0.353 A 
ATOM      4  O   UNL     1       9.339   4.358  24.086  0.00  0.00    -0.244 OA
ATOM      5  N   UNL     1       9.546   2.196  23.476  0.00  0.00    -0.232 N 
ATOM      6  C   UNL     1       9.158   1.116  22.736  0.00  0.00    +0.197 A 
ATOM      7  C   UNL     1      10.011   0.094  23.112  0.00  0.00    +0.171 A 
ATOM      8  N   UNL     1      10.911   0.546  24.075  0.00  0.00    -0.228 NA
ATOM      9  N   UNL     1       8.130   1.232  21.870  0.00  0.00    -0.110 NA
ATOM     10  C   UNL     1      10.598   1.810  24.264  0.00  0.00    +0.210 A 
ATOM     11  N   UNL     1       7.528   2.322  21.736  0.00  0.00    -0.060 NA
ENDROOT
BRANCH   7  12
ATOM     12  C   UNL     1      10.011  -1.274  22.607  0.00  0.00    +0.264 C 
ATOM     13  O   UNL     1      10.230  -2.271  23.284  0.00  0.00    -0.269 OA
ATOM     14  N   UNL     1       9.738  -1.362  21.271  0.00  0.00    -0.324 N 
ATOM     15  H   UNL     1       9.715  -2.268  20.830  0.00  0.00    +0.145 HD
ATOM     16  H   UNL     1       9.561  -0.518  20.739  0.00  0.00    +0.145 HD
ENDBRANCH   7  12
TORSDOF 1
ENDMDL
MODEL 8
REMARK VINA RESULT:      -5.1      2.701      5.098
REMARK  Name = 
REMARK  2 active torsions:
REMARK  status: ('A' for Active; 'I' for Inactive)
REMARK    1  A    between atoms: C_1  and  N_2
REMARK    2  A    between atoms: C_6  and  C_12
REMARK                            x       y       z     vdW  Elec       q    Type
REMARK                         _______ _______ _______ _____ _____    ______ ____
ROOT
ATOM      1  C   UNL     1       9.923  -0.129  23.830  0.00  0.00    +0.179 C 
ATOM      2  N   UNL     1       9.262  -1.379  24.130  0.00  0.00    -0.199 N 
ATOM      3  C   UNL     1       8.777  -2.146  23.086  0.00  0.00    +0.353 A 
ATOM      4  O   UNL     1       8.821  -1.924  21.885  0.00  0.00    -0.244 OA
ATOM      5  N   UNL     1       8.179  -3.296  23.557  0.00  0.00    -0.232 N 
ATOM      6  C   UNL     1       8.091  -3.614  24.882  0.00  0.00    +0.197 A 
ATOM      7  C   UNL     1       7.428  -4.826  24.921  0.00  0.00    +0.171 A 
ATOM      8  N   UNL     1       7.116  -5.248  23.630  0.00  0.00    -0.228 NA
ATOM      9  N   UNL     1       8.607  -2.777  25.806  0.00  0.00    -0.110 NA
ATOM     10  C   UNL     1       7.583  -4.302  22.843  0.00  0.00    +0.210 A 
ATOM     11  N   UNL     1       9.167  -1.711  25.461  0.00  0.00    -0.060 NA
ENDROOT
BRANCH   7  12
ATOM     12  C   UNL     1       7.082  -5.595  26.111  0.00  0.00    +0.264 C 
ATOM     13  O   UNL     1       6.008  -6.154  26.296  0.00  0.00    -0.269 OA
ATOM     14  N   UNL     1       8.085  -5.645  27.038  0.00  0.00    -0.324 N 
ATOM     15  H   UNL     1       7.939  -6.155  27.895  0.00  0.00    +0.145 HD
ATOM     16  H   UNL     1       8.962  -5.173  26.854  0.00  0.00    +0.145 HD
ENDBRANCH   7  12
TORSDOF 1
ENDMDL
MODEL 9
REMARK VINA RESULT:      -5.1      4.683      6.173
REMARK  Name = 
REMARK  2 active torsions:
REMARK  status: ('A' for Active; 'I' for Inactive)
REMARK    1  A    between atoms: C_1  and  N_2
REMARK    2  A    between atoms: C_6  and  C_12
REMARK                            x       y       z     vdW  Elec       q    Type
REMARK                         _______ _______ _______ _____ _____    ______ ____
ROOT
ATOM      1  C   UNL     1       6.271  -3.965  24.624  0.00  0.00    +0.179 C 
ATOM      2  N   UNL     1       7.008  -2.894  23.990  0.00  0.00    -0.199 N 
ATOM      3  C   UNL     1       8.361  -3.059  23.761  0.00  0.00    +0.353 A 
ATOM      4  O   UNL     1       9.075  -4.016  24.022  0.00  0.00    -0.244 OA
ATOM      5  N   UNL     1       8.897  -1.942  23.153  0.00  0.00    -0.232 N 
ATOM      6  C   UNL     1       8.166  -0.835  22.830  0.00  0.00    +0.197 A 
ATOM      7  C   UNL     1       9.068   0.039  22.250  0.00  0.00    +0.171 A 
ATOM      8  N   UNL     1      10.339  -0.531  22.217  0.00  0.00    -0.228 NA
ATOM      9  N   UNL     1       6.846  -0.800  23.107  0.00  0.00    -0.110 NA
ATOM     10  C   UNL     1      10.192  -1.717  22.768  0.00  0.00    +0.210 A 
ATOM     11  N   UNL     1       6.283  -1.774  23.659  0.00  0.00    -0.060 NA
ENDROOT
BRANCH   7  12
ATOM     12  C   UNL     1       8.783   1.372  21.732  0.00  0.00    +0.264 C 
ATOM     13  O   UNL     1       7.666   1.790  21.452  0.00  0.00    -0.269 OA
ATOM     14  N   UNL     1       9.897   2.147  21.577  0.00  0.00    -0.324 N 
ATOM     15  H   UNL     1       9.801   3.086  21.225  0.00  0.00    +0.145 HD
ATOM     16  H   UNL     1      10.806   1.771  21.819  0.00  0.00    +0.145 HD
ENDBRANCH   7  12
TORSDOF 1
ENDMDL
