MODEL 1
REMARK VINA RESULT:      -7.1      0.000      0.000
REMARK  Name = 
REMARK  3 active torsions:
REMARK  status: ('A' for Active; 'I' for Inactive)
REMARK    1  A    between atoms: O_1  and  C_2
REMARK    2  A    between atoms: C_5  and  C_8
REMARK    3  A    between atoms: C_16  and  O_17
REMARK                            x       y       z     vdW  Elec       q    Type
REMARK                         _______ _______ _______ _____ _____    ______ ____
ROOT
ATOM      1  C   UNL     1       8.287  -1.560  23.397  0.00  0.00    +0.211 C 
ATOM      2  O   UNL     1       8.431  -2.027  24.751  0.00  0.00    -0.483 OA
ATOM      3  C   UNL     1       7.742  -3.186  25.002  0.00  0.00    +0.135 A 
ATOM      4  C   UNL     1       6.670  -3.631  24.227  0.00  0.00    +0.059 A 
ATOM      5  C   UNL     1       6.015  -4.829  24.533  0.00  0.00    +0.018 A 
ATOM      6  C   UNL     1       6.421  -5.573  25.642  0.00  0.00    +0.046 A 
ATOM      7  C   UNL     1       7.473  -5.107  26.429  0.00  0.00    +0.120 A 
ATOM      8  C   UNL     1       6.205  -2.781  23.111  0.00  0.00    +0.170 C 
ATOM      9  O   UNL     1       5.329  -3.167  22.345  0.00  0.00    -0.292 OA
ATOM     10  C   UNL     1       8.138  -3.923  26.117  0.00  0.00    +0.091 A 
ATOM     11  C   UNL     1       6.816  -1.412  23.032  0.00  0.00    +0.129 C 
ENDROOT
BRANCH   1  15
ATOM     12  C   UNL     1      10.369   2.208  23.000  0.00  0.00    +0.117 A 
ATOM     13  C   UNL     1      10.257   1.602  24.244  0.00  0.00    +0.046 A 
ATOM     14  C   UNL     1       9.592   0.380  24.363  0.00  0.00    +0.011 A 
ATOM     15  C   UNL     1       9.027  -0.242  23.236  0.00  0.00    -0.007 A 
ATOM     16  C   UNL     1       9.177   0.377  21.983  0.00  0.00    +0.011 A 
ATOM     17  C   UNL     1       9.841   1.601  21.865  0.00  0.00    +0.046 A 
BRANCH  12  18
ATOM     18  O   UNL     1      11.003   3.412  22.935  0.00  0.00    -0.507 OA
ATOM     19  H   UNL     1      11.737   3.342  22.302  0.00  0.00    +0.292 HD
ENDBRANCH  12  18
ENDBRANCH   1  15
BRANCH   7  20
ATOM     20  O   UNL     1       7.886  -5.793  27.532  0.00  0.00    -0.507 OA
ATOM     21  H   UNL     1       8.098  -6.707  27.276  0.00  0.00    +0.292 HD
ENDBRANCH   7  20
TORSDOF 3
ENDMDL
MODEL 2
REMARK VINA RESULT:      -7.0      1.441      2.715
REMARK  Name = 
REMARK  3 active torsions:
REMARK  status: ('A' for Active; 'I' for Inactive)
REMARK    1  A    between atoms: O_1  and  C_2
REMARK    2  A    between atoms: C_5  and  C_8
REMARK    3  A    between atoms: C_16  and  O_17
REMARK                            x       y       z     vdW  Elec       q    Type
REMARK                         _______ _______ _______ _____ _____    ______ ____
ROOT
ATOM      1  C   UNL     1       8.811  -1.522  23.967  0.00  0.00    +0.211 C 
ATOM      2  O   UNL     1       7.670  -1.813  23.140  0.00  0.00    -0.483 OA
ATOM      3  C   UNL     1       7.117  -3.043  23.389  0.00  0.00    +0.135 A 
ATOM      4  C   UNL     1       7.803  -4.086  24.014  0.00  0.00    +0.059 A 
ATOM      5  C   UNL     1       7.176  -5.315  24.247  0.00  0.00    +0.018 A 
ATOM      6  C   UNL     1       5.861  -5.510  23.825  0.00  0.00    +0.046 A 
ATOM      7  C   UNL     1       5.191  -4.473  23.176  0.00  0.00    +0.120 A 
ATOM      8  C   UNL     1       9.222  -3.883  24.372  0.00  0.00    +0.170 C 
ATOM      9  O   UNL     1       9.843  -4.732  25.002  0.00  0.00    -0.292 OA
ATOM     10  C   UNL     1       5.807  -3.243  22.957  0.00  0.00    +0.091 A 
ATOM     11  C   UNL     1       9.854  -2.625  23.852  0.00  0.00    +0.129 C 
ENDROOT
BRANCH   1  15
ATOM     12  C   UNL     1      10.445   2.336  22.902  0.00  0.00    +0.117 A 
ATOM     13  C   UNL     1      10.567   1.863  24.201  0.00  0.00    +0.046 A 
ATOM     14  C   UNL     1      10.045   0.612  24.536  0.00  0.00    +0.011 A 
ATOM     15  C   UNL     1       9.391  -0.174  23.571  0.00  0.00    -0.007 A 
ATOM     16  C   UNL     1       9.306   0.313  22.256  0.00  0.00    +0.011 A 
ATOM     17  C   UNL     1       9.825   1.567  21.922  0.00  0.00    +0.046 A 
BRANCH  12  18
ATOM     18  O   UNL     1      10.945   3.574  22.627  0.00  0.00    -0.507 OA
ATOM     19  H   UNL     1      11.508   3.851  23.368  0.00  0.00    +0.292 HD
ENDBRANCH  12  18
ENDBRANCH   1  15
BRANCH   7  20
ATOM     20  O   UNL     1       3.913  -4.629  22.730  0.00  0.00    -0.507 OA
ATOM     21  H   UNL     1       3.423  -5.184  23.361  0.00  0.00    +0.292 HD
ENDBRANCH   7  20
TORSDOF 3
ENDMDL
MODEL 3
REMARK VINA RESULT:      -6.8      2.068      6.781
REMARK  Name = 
REMARK  3 active torsions:
REMARK  status: ('A' for Active; 'I' for Inactive)
REMARK    1  A    between atoms: O_1  and  C_2
REMARK    2  A    between atoms: C_5  and  C_8
REMARK    3  A    between atoms: C_16  and  O_17
REMARK                            x       y       z     vdW  Elec       q    Type
REMARK                         _______ _______ _______ _____ _____    ______ ____
ROOT
ATOM      1  C   UNL     1       7.829  -2.498  23.877  0.00  0.00    +0.211 C 
ATOM      2  O   UNL     1       7.850  -1.427  22.916  0.00  0.00    -0.483 OA
ATOM      3  C   UNL     1       8.707  -0.411  23.253  0.00  0.00    +0.135 A 
ATOM      4  C   UNL     1       9.162  -0.183  24.553  0.00  0.00    +0.059 A 
ATOM      5  C   UNL     1      10.044   0.867  24.828  0.00  0.00    +0.018 A 
ATOM      6  C   UNL     1      10.451   1.714  23.796  0.00  0.00    +0.046 A 
ATOM      7  C   UNL     1       9.970   1.498  22.506  0.00  0.00    +0.120 A 
ATOM      8  C   UNL     1       8.647  -1.040  25.641  0.00  0.00    +0.170 C 
ATOM      9  O   UNL     1       9.082  -0.942  26.783  0.00  0.00    -0.292 OA
ATOM     10  C   UNL     1       9.104   0.443  22.226  0.00  0.00    +0.091 A 
ATOM     11  C   UNL     1       7.524  -1.965  25.270  0.00  0.00    +0.129 C 
ENDROOT
BRANCH   1  15
ATOM     12  C   UNL     1       4.878  -5.437  22.717  0.00  0.00    +0.117 A 
ATOM     13  C   UNL     1       4.476  -4.210  23.228  0.00  0.00    +0.046 A 
ATOM     14  C   UNL     1       5.434  -3.262  23.591  0.00  0.00    +0.011 A 
ATOM     15  C   UNL     1       6.805  -3.538  23.451  0.00  0.00    -0.007 A 
ATOM     16  C   UNL     1       7.187  -4.776  22.905  0.00  0.00    +0.011 A 
ATOM     17  C   UNL     1       6.227  -5.725  22.544  0.00  0.00    +0.046 A 
BRANCH  12  18
ATOM     18  O   UNL     1       3.909  -6.341  22.400  0.00  0.00    -0.507 OA
ATOM     19  H   UNL     1       3.745  -6.903  23.175  0.00  0.00    +0.292 HD
ENDBRANCH  12  18
ENDBRANCH   1  15
BRANCH   7  20
ATOM     20  O   UNL     1      10.327   2.314  21.474  0.00  0.00    -0.507 OA
ATOM     21  H   UNL     1       9.721   3.074  21.446  0.00  0.00    +0.292 HD
ENDBRANCH   7  20
TORSDOF 3
ENDMDL
MODEL 4
REMARK VINA RESULT:      -6.8      1.777      3.280
REMARK  Name = 
REMARK  3 active torsions:
REMARK  status: ('A' for Active; 'I' for Inactive)
REMARK    1  A    between atoms: O_1  and  C_2
REMARK    2  A    between atoms: C_5  and  C_8
REMARK    3  A    between atoms: C_16  and  O_17
REMARK                            x       y       z     vdW  Elec       q    Type
REMARK                         _______ _______ _______ _____ _____    ______ ____
ROOT
ATOM      1  C   UNL     1       8.632  -1.385  23.759  0.00  0.00    +0.211 C 
ATOM      2  O   UNL     1       8.152  -1.901  22.503  0.00  0.00    -0.483 OA
ATOM      3  C   UNL     1       7.761  -3.214  22.570  0.00  0.00    +0.135 A 
ATOM      4  C   UNL     1       8.184  -4.097  23.564  0.00  0.00    +0.059 A 
ATOM      5  C   UNL     1       7.739  -5.424  23.579  0.00  0.00    +0.018 A 
ATOM      6  C   UNL     1       6.886  -5.876  22.572  0.00  0.00    +0.046 A 
ATOM      7  C   UNL     1       6.491  -4.997  21.565  0.00  0.00    +0.120 A 
ATOM      8  C   UNL     1       9.156  -3.617  24.568  0.00  0.00    +0.170 C 
ATOM      9  O   UNL     1       9.489  -4.322  25.514  0.00  0.00    -0.292 OA
ATOM     10  C   UNL     1       6.919  -3.671  21.557  0.00  0.00    +0.091 A 
ATOM     11  C   UNL     1       9.749  -2.262  24.309  0.00  0.00    +0.129 C 
ENDROOT
BRANCH   1  15
ATOM     12  C   UNL     1      10.018   2.668  23.176  0.00  0.00    +0.117 A 
ATOM     13  C   UNL     1      10.055   1.761  22.125  0.00  0.00    +0.046 A 
ATOM     14  C   UNL     1       9.597   0.457  22.317  0.00  0.00    +0.011 A 
ATOM     15  C   UNL     1       9.103   0.047  23.568  0.00  0.00    -0.007 A 
ATOM     16  C   UNL     1       9.048   0.991  24.609  0.00  0.00    +0.011 A 
ATOM     17  C   UNL     1       9.510   2.296  24.416  0.00  0.00    +0.046 A 
BRANCH  12  18
ATOM     18  O   UNL     1      10.500   3.922  22.950  0.00  0.00    -0.507 OA
ATOM     19  H   UNL     1      11.423   3.851  22.657  0.00  0.00    +0.292 HD
ENDBRANCH  12  18
ENDBRANCH   1  15
BRANCH   7  20
ATOM     20  O   UNL     1       5.675  -5.404  20.553  0.00  0.00    -0.507 OA
ATOM     21  H   UNL     1       5.701  -6.375  20.495  0.00  0.00    +0.292 HD
ENDBRANCH   7  20
TORSDOF 3
ENDMDL
MODEL 5
REMARK VINA RESULT:      -6.8      1.885      2.736
REMARK  Name = 
REMARK  3 active torsions:
REMARK  status: ('A' for Active; 'I' for Inactive)
REMARK    1  A    between atoms: O_1  and  C_2
REMARK    2  A    between atoms: C_5  and  C_8
REMARK    3  A    between atoms: C_16  and  O_17
REMARK                            x       y       z     vdW  Elec       q    Type
REMARK                         _______ _______ _______ _____ _____    ______ ____
ROOT
ATOM      1  C   UNL     1       9.205  -1.980  24.951  0.00  0.00    +0.211 C 
ATOM      2  O   UNL     1       7.814  -1.957  25.320  0.00  0.00    -0.483 OA
ATOM      3  C   UNL     1       7.429  -3.049  26.054  0.00  0.00    +0.135 A 
ATOM      4  C   UNL     1       8.128  -4.257  26.069  0.00  0.00    +0.059 A 
ATOM      5  C   UNL     1       7.685  -5.331  26.848  0.00  0.00    +0.018 A 
ATOM      6  C   UNL     1       6.515  -5.202  27.598  0.00  0.00    +0.046 A 
ATOM      7  C   UNL     1       5.805  -4.003  27.556  0.00  0.00    +0.120 A 
ATOM      8  C   UNL     1       9.314  -4.395  25.199  0.00  0.00    +0.170 C 
ATOM      9  O   UNL     1      10.016  -5.400  25.241  0.00  0.00    -0.292 OA
ATOM     10  C   UNL     1       6.253  -2.926  26.794  0.00  0.00    +0.091 A 
ATOM     11  C   UNL     1       9.548  -3.275  24.228  0.00  0.00    +0.129 C 
ENDROOT
BRANCH   1  15
ATOM     12  C   UNL     1      10.110   1.423  22.443  0.00  0.00    +0.117 A 
ATOM     13  C   UNL     1       9.525   0.290  21.894  0.00  0.00    +0.046 A 
ATOM     14  C   UNL     1       9.227  -0.802  22.712  0.00  0.00    +0.011 A 
ATOM     15  C   UNL     1       9.518  -0.769  24.087  0.00  0.00    -0.007 A 
ATOM     16  C   UNL     1      10.083   0.400  24.625  0.00  0.00    +0.011 A 
ATOM     17  C   UNL     1      10.385   1.491  23.805  0.00  0.00    +0.046 A 
BRANCH  12  18
ATOM     18  O   UNL     1      10.408   2.454  21.603  0.00  0.00    -0.507 OA
ATOM     19  H   UNL     1      10.253   3.290  22.072  0.00  0.00    +0.292 HD
ENDBRANCH  12  18
ENDBRANCH   1  15
BRANCH   7  20
ATOM     20  O   UNL     1       4.648  -3.844  28.257  0.00  0.00    -0.507 OA
ATOM     21  H   UNL     1       4.171  -3.069  27.912  0.00  0.00    +0.292 HD
ENDBRANCH   7  20
TORSDOF 3
ENDMDL
MODEL 6
REMARK VINA RESULT:      -6.7      1.396      2.736
REMARK  Name = 
REMARK  3 active torsions:
REMARK  status: ('A' for Active; 'I' for Inactive)
REMARK    1  A    between atoms: O_1  and  C_2
REMARK    2  A    between atoms: C_5  and  C_8
REMARK    3  A    between atoms: C_16  and  O_17
REMARK                            x       y       z     vdW  Elec       q    Type
REMARK                         _______ _______ _______ _____ _____    ______ ____
ROOT
ATOM      1  C   UNL     1       8.009  -1.443  23.902  0.00  0.00    +0.211 C 
ATOM      2  O   UNL     1       7.875  -2.309  22.760  0.00  0.00    -0.483 OA
ATOM      3  C   UNL     1       7.232  -3.487  23.044  0.00  0.00    +0.135 A 
ATOM      4  C   UNL     1       7.121  -4.016  24.331  0.00  0.00    +0.059 A 
ATOM      5  C   UNL     1       6.443  -5.220  24.553  0.00  0.00    +0.018 A 
ATOM      6  C   UNL     1       5.896  -5.912  23.473  0.00  0.00    +0.046 A 
ATOM      7  C   UNL     1       6.035  -5.393  22.187  0.00  0.00    +0.120 A 
ATOM      8  C   UNL     1       7.785  -3.307  25.445  0.00  0.00    +0.170 C 
ATOM      9  O   UNL     1       7.643  -3.678  26.605  0.00  0.00    -0.292 OA
ATOM     10  C   UNL     1       6.696  -4.186  21.964  0.00  0.00    +0.091 A 
ATOM     11  C   UNL     1       8.686  -2.172  25.054  0.00  0.00    +0.129 C 
ENDROOT
BRANCH   1  15
ATOM     12  C   UNL     1      10.202   2.123  22.822  0.00  0.00    +0.117 A 
ATOM     13  C   UNL     1       9.970   1.826  24.158  0.00  0.00    +0.046 A 
ATOM     14  C   UNL     1       9.269   0.668  24.500  0.00  0.00    +0.011 A 
ATOM     15  C   UNL     1       8.790  -0.201  23.504  0.00  0.00    -0.007 A 
ATOM     16  C   UNL     1       9.062   0.106  22.160  0.00  0.00    +0.011 A 
ATOM     17  C   UNL     1       9.761   1.267  21.818  0.00  0.00    +0.046 A 
BRANCH  12  18
ATOM     18  O   UNL     1      10.867   3.277  22.534  0.00  0.00    -0.507 OA
ATOM     19  H   UNL     1      11.015   3.318  21.575  0.00  0.00    +0.292 HD
ENDBRANCH  12  18
ENDBRANCH   1  15
BRANCH   7  20
ATOM     20  O   UNL     1       5.533  -6.049  21.103  0.00  0.00    -0.507 OA
ATOM     21  H   UNL     1       5.990  -5.736  20.304  0.00  0.00    +0.292 HD
ENDBRANCH   7  20
TORSDOF 3
ENDMDL
MODEL 7
REMARK VINA RESULT:      -6.6      1.883      6.823
REMARK  Name = 
REMARK  3 active torsions:
REMARK  status: ('A' for Active; 'I' for Inactive)
REMARK    1  A    between atoms: O_1  and  C_2
REMARK    2  A    between atoms: C_5  and  C_8
REMARK    3  A    between atoms: C_16  and  O_17
REMARK                            x       y       z     vdW  Elec       q    Type
REMARK                         _______ _______ _______ _____ _____    ______ ____
ROOT
ATOM      1  C   UNL     1       7.957  -2.783  23.701  0.00  0.00    +0.211 C 
ATOM      2  O   UNL     1       7.286  -1.529  23.927  0.00  0.00    -0.483 OA
ATOM      3  C   UNL     1       7.749  -0.514  23.131  0.00  0.00    +0.135 A 
ATOM      4  C   UNL     1       8.998  -0.526  22.510  0.00  0.00    +0.059 A 
ATOM      5  C   UNL     1       9.406   0.540  21.701  0.00  0.00    +0.018 A 
ATOM      6  C   UNL     1       8.565   1.642  21.537  0.00  0.00    +0.046 A 
ATOM      7  C   UNL     1       7.331   1.661  22.184  0.00  0.00    +0.120 A 
ATOM      8  C   UNL     1       9.904  -1.665  22.770  0.00  0.00    +0.170 C 
ATOM      9  O   UNL     1      10.973  -1.770  22.179  0.00  0.00    -0.292 OA
ATOM     10  C   UNL     1       6.915   0.593  22.977  0.00  0.00    +0.091 A 
ATOM     11  C   UNL     1       9.464  -2.619  23.842  0.00  0.00    +0.129 C 
ENDROOT
BRANCH   1  15
ATOM     12  C   UNL     1       6.380  -5.727  26.446  0.00  0.00    +0.117 A 
ATOM     13  C   UNL     1       5.736  -5.484  25.239  0.00  0.00    +0.046 A 
ATOM     14  C   UNL     1       6.257  -4.539  24.353  0.00  0.00    +0.011 A 
ATOM     15  C   UNL     1       7.424  -3.824  24.672  0.00  0.00    -0.007 A 
ATOM     16  C   UNL     1       8.074  -4.107  25.886  0.00  0.00    +0.011 A 
ATOM     17  C   UNL     1       7.550  -5.051  26.774  0.00  0.00    +0.046 A 
BRANCH  12  18
ATOM     18  O   UNL     1       5.821  -6.638  27.291  0.00  0.00    -0.507 OA
ATOM     19  H   UNL     1       5.361  -6.161  28.000  0.00  0.00    +0.292 HD
ENDBRANCH  12  18
ENDBRANCH   1  15
BRANCH   7  20
ATOM     20  O   UNL     1       6.489   2.727  22.066  0.00  0.00    -0.507 OA
ATOM     21  H   UNL     1       6.891   3.498  22.502  0.00  0.00    +0.292 HD
ENDBRANCH   7  20
TORSDOF 3
ENDMDL
MODEL 8
REMARK VINA RESULT:      -6.6      2.636      7.015
REMARK  Name = 
REMARK  3 active torsions:
REMARK  status: ('A' for Active; 'I' for Inactive)
REMARK    1  A    between atoms: O_1  and  C_2
REMARK    2  A    between atoms: C_5  and  C_8
REMARK    3  A    between atoms: C_16  and  O_17
REMARK                            x       y       z     vdW  Elec       q    Type
REMARK                         _______ _______ _______ _____ _____    ______ ____
ROOT
ATOM      1  C   UNL     1       7.511  -2.562  22.265  0.00  0.00    +0.211 C 
ATOM      2  O   UNL     1       6.901  -1.316  22.650  0.00  0.00    -0.483 OA
ATOM      3  C   UNL     1       7.733  -0.236  22.503  0.00  0.00    +0.135 A 
ATOM      4  C   UNL     1       9.123  -0.334  22.437  0.00  0.00    +0.059 A 
ATOM      5  C   UNL     1       9.914   0.809  22.276  0.00  0.00    +0.018 A 
ATOM      6  C   UNL     1       9.307   2.063  22.209  0.00  0.00    +0.046 A 
ATOM      7  C   UNL     1       7.920   2.157  22.305  0.00  0.00    +0.120 A 
ATOM      8  C   UNL     1       9.745  -1.665  22.598  0.00  0.00    +0.170 C 
ATOM      9  O   UNL     1      10.953  -1.820  22.458  0.00  0.00    -0.292 OA
ATOM     10  C   UNL     1       7.128   1.019  22.448  0.00  0.00    +0.091 A 
ATOM     11  C   UNL     1       8.821  -2.773  23.012  0.00  0.00    +0.129 C 
ENDROOT
BRANCH   1  15
ATOM     12  C   UNL     1       4.726  -5.771  23.065  0.00  0.00    +0.117 A 
ATOM     13  C   UNL     1       4.366  -4.455  23.325  0.00  0.00    +0.046 A 
ATOM     14  C   UNL     1       5.267  -3.423  23.055  0.00  0.00    +0.011 A 
ATOM     15  C   UNL     1       6.540  -3.702  22.527  0.00  0.00    -0.007 A 
ATOM     16  C   UNL     1       6.871  -5.039  22.246  0.00  0.00    +0.011 A 
ATOM     17  C   UNL     1       5.970  -6.072  22.519  0.00  0.00    +0.046 A 
BRANCH  12  18
ATOM     18  O   UNL     1       3.826  -6.748  23.368  0.00  0.00    -0.507 OA
ATOM     19  H   UNL     1       2.939  -6.353  23.394  0.00  0.00    +0.292 HD
ENDBRANCH  12  18
ENDBRANCH   1  15
BRANCH   7  20
ATOM     20  O   UNL     1       7.290   3.365  22.264  0.00  0.00    -0.507 OA
ATOM     21  H   UNL     1       6.350   3.240  22.482  0.00  0.00    +0.292 HD
ENDBRANCH   7  20
TORSDOF 3
ENDMDL
MODEL 9
REMARK VINA RESULT:      -6.5      1.719      2.164
REMARK  Name = 
REMARK  3 active torsions:
REMARK  status: ('A' for Active; 'I' for Inactive)
REMARK    1  A    between atoms: O_1  and  C_2
REMARK    2  A    between atoms: C_5  and  C_8
REMARK    3  A    between atoms: C_16  and  O_17
REMARK                            x       y       z     vdW  Elec       q    Type
REMARK                         _______ _______ _______ _____ _____    ______ ____
ROOT
ATOM      1  C   UNL     1       7.921  -3.249  23.343  0.00  0.00    +0.211 C 
ATOM      2  O   UNL     1       7.321  -3.613  24.600  0.00  0.00    -0.483 OA
ATOM      3  C   UNL     1       6.467  -4.682  24.504  0.00  0.00    +0.135 A 
ATOM      4  C   UNL     1       5.874  -5.093  23.309  0.00  0.00    +0.059 A 
ATOM      5  C   UNL     1       5.018  -6.200  23.280  0.00  0.00    +0.018 A 
ATOM      6  C   UNL     1       4.731  -6.881  24.463  0.00  0.00    +0.046 A 
ATOM      7  C   UNL     1       5.303  -6.447  25.657  0.00  0.00    +0.120 A 
ATOM      8  C   UNL     1       6.126  -4.301  22.087  0.00  0.00    +0.170 C 
ATOM      9  O   UNL     1       5.705  -4.670  20.997  0.00  0.00    -0.292 OA
ATOM     10  C   UNL     1       6.169  -5.356  25.688  0.00  0.00    +0.091 A 
ATOM     11  C   UNL     1       6.852  -3.003  22.288  0.00  0.00    +0.129 C 
ENDROOT
BRANCH   1  15
ATOM     12  C   UNL     1      10.363   0.267  23.949  0.00  0.00    +0.117 A 
ATOM     13  C   UNL     1       9.796  -0.383  25.037  0.00  0.00    +0.046 A 
ATOM     14  C   UNL     1       9.017  -1.524  24.835  0.00  0.00    +0.011 A 
ATOM     15  C   UNL     1       8.793  -2.019  23.538  0.00  0.00    -0.007 A 
ATOM     16  C   UNL     1       9.401  -1.361  22.455  0.00  0.00    +0.011 A 
ATOM     17  C   UNL     1      10.179  -0.217  22.659  0.00  0.00    +0.046 A 
BRANCH  12  18
ATOM     18  O   UNL     1      11.094   1.391  24.191  0.00  0.00    -0.507 OA
ATOM     19  H   UNL     1      12.014   1.224  23.930  0.00  0.00    +0.292 HD
ENDBRANCH  12  18
ENDBRANCH   1  15
BRANCH   7  20
ATOM     20  O   UNL     1       5.032  -7.073  26.837  0.00  0.00    -0.507 OA
ATOM     21  H   UNL     1       4.185  -6.744  27.184  0.00  0.00    +0.292 HD
ENDBRANCH   7  20
TORSDOF 3
ENDMDL
