MODEL 1
REMARK VINA RESULT:      -8.5      0.000      0.000
REMARK  Name = 
REMARK  14 active torsions:
REMARK  status: ('A' for Active; 'I' for Inactive)
REMARK    1  A    between atoms: O_1  and  P_2
REMARK    2  A    between atoms: P_2  and  O_3
REMARK    3  A    between atoms: P_2  and  C_5
REMARK    4  A    between atoms: C_5  and  C_8
REMARK    5  A    between atoms: C_11  and  C_12
REMARK    6  A    between atoms: C_12  and  C_13
REMARK    7  A    between atoms: C_13  and  C_14
REMARK    8  A    between atoms: C_13  and  N_28
REMARK    9  A    between atoms: C_13  and  C_37
REMARK   10  A    between atoms: C_14  and  C_15
REMARK   11  A    between atoms: C_18  and  C_21
REMARK   12  A    between atoms: C_21  and  P_24
REMARK   13  A    between atoms: P_24  and  O_25
REMARK   14  A    between atoms: P_24  and  O_26
REMARK                            x       y       z     vdW  Elec       q    Type
REMARK                         _______ _______ _______ _____ _____    ______ ____
ROOT
ATOM      1  C   UNL     1       7.441  -0.522  25.193  0.00  0.00    +0.099 C 
ENDROOT
BRANCH   1   2
ATOM      2  N   UNL     1       6.263   0.302  25.578  0.00  0.00    -0.233 N 
ATOM      3  C   UNL     1       5.861   0.798  26.809  0.00  0.00    +0.090 A 
ATOM      4  C   UNL     1       6.368   0.763  28.110  0.00  0.00    +0.029 A 
ATOM      5  C   UNL     1       5.666   1.489  29.082  0.00  0.00    +0.002 A 
ATOM      6  C   UNL     1       4.479   2.162  28.785  0.00  0.00    +0.002 A 
ATOM      7  C   UNL     1       3.962   2.160  27.493  0.00  0.00    +0.032 A 
ATOM      8  C   UNL     1       4.684   1.500  26.497  0.00  0.00    +0.113 A 
ATOM      9  N   UNL     1       4.432   1.416  25.170  0.00  0.00    -0.129 NA
ATOM     10  N   UNL     1       5.425   0.749  24.619  0.00  0.00    -0.064 NA
ENDBRANCH   1   2
BRANCH   1  11
ATOM     11  C   UNL     1       7.409  -1.950  25.845  0.00  0.00    -0.016 A 
ATOM     12  C   UNL     1       8.611  -2.692  25.980  0.00  0.00    +0.047 A 
ATOM     13  C   UNL     1       8.625  -3.965  26.552  0.00  0.00    +0.159 A 
ATOM     14  F   UNL     1       9.786  -4.628  26.645  0.00  0.00    -0.202 F 
ATOM     15  C   UNL     1       7.452  -4.537  27.010  0.00  0.00    +0.158 A 
ATOM     16  F   UNL     1       7.463  -5.756  27.567  0.00  0.00    -0.202 F 
ATOM     17  C   UNL     1       6.251  -3.856  26.874  0.00  0.00    +0.041 A 
ATOM     18  C   UNL     1       6.227  -2.582  26.284  0.00  0.00    +0.009 A 
ENDBRANCH   1  11
BRANCH   1  19
ATOM     19  C   UNL     1       7.534  -0.676  23.615  0.00  0.00    +0.070 C 
BRANCH  19  23
ATOM     20  C   UNL     1       6.407  -4.512  21.968  0.00  0.00    +0.033 A 
ATOM     21  C   UNL     1       5.465  -3.477  22.010  0.00  0.00    +0.010 A 
ATOM     22  C   UNL     1       5.815  -2.236  22.534  0.00  0.00    +0.004 A 
ATOM     23  C   UNL     1       7.120  -1.994  22.974  0.00  0.00    -0.045 A 
ATOM     24  C   UNL     1       8.077  -3.016  22.839  0.00  0.00    +0.004 A 
ATOM     25  C   UNL     1       7.735  -4.260  22.319  0.00  0.00    +0.010 A 
BRANCH  20  26
ATOM     26  C   UNL     1       5.915  -5.931  21.968  0.00  0.00    +0.371 C 
ATOM     27  F   UNL     1       5.386  -6.379  20.800  0.00  0.00    -0.187 F 
ATOM     28  F   UNL     1       6.793  -6.869  22.409  0.00  0.00    -0.187 F 
BRANCH  26  29
ATOM     29  P   UNL     1       4.532  -6.057  23.151  0.00  0.00    +0.401 P 
ATOM     30  O   UNL     1       3.142  -5.745  22.672  0.00  0.00    -0.252 OA
BRANCH  29  31
ATOM     31  O   UNL     1       4.811  -5.199  24.482  0.00  0.00    -0.320 OA
ATOM     32  H   UNL     1       4.282  -5.551  25.223  0.00  0.00    +0.220 HD
ENDBRANCH  29  31
BRANCH  29  33
ATOM     33  O   UNL     1       4.526  -7.558  23.750  0.00  0.00    -0.320 OA
ATOM     34  H   UNL     1       4.307  -7.566  24.699  0.00  0.00    +0.220 HD
ENDBRANCH  29  33
ENDBRANCH  26  29
ENDBRANCH  20  26
ENDBRANCH  19  23
ENDBRANCH   1  19
BRANCH   1  35
ATOM     35  C   UNL     1       8.784   0.173  25.687  0.00  0.00    +0.070 C 
BRANCH  35  36
ATOM     36  C   UNL     1       9.234   1.447  24.999  0.00  0.00    -0.045 A 
ATOM     37  C   UNL     1       8.483   2.621  25.152  0.00  0.00    +0.004 A 
ATOM     38  C   UNL     1       8.945   3.833  24.636  0.00  0.00    +0.010 A 
ATOM     39  C   UNL     1      10.170   3.896  23.963  0.00  0.00    +0.033 A 
ATOM     40  C   UNL     1      10.867   2.710  23.717  0.00  0.00    +0.010 A 
ATOM     41  C   UNL     1      10.392   1.497  24.216  0.00  0.00    +0.004 A 
BRANCH  39  42
ATOM     42  C   UNL     1      10.831   5.225  23.716  0.00  0.00    +0.371 C 
ATOM     43  F   UNL     1      10.756   6.118  24.745  0.00  0.00    -0.187 F 
ATOM     44  F   UNL     1      10.399   5.891  22.605  0.00  0.00    -0.187 F 
BRANCH  42  45
ATOM     45  P   UNL     1      12.618   5.064  23.351  0.00  0.00    +0.401 P 
ATOM     46  O   UNL     1      14.129   4.928  23.044  0.00  0.00    -0.252 OA
BRANCH  45  47
ATOM     47  O   UNL     1      12.833   6.464  24.233  0.00  0.00    -0.320 OA
ATOM     48  H   UNL     1      12.942   7.225  23.628  0.00  0.00    +0.220 HD
ENDBRANCH  45  47
BRANCH  45  49
ATOM     49  O   UNL     1      12.350   5.853  21.903  0.00  0.00    -0.320 OA
ATOM     50  H   UNL     1      11.582   6.462  21.910  0.00  0.00    +0.220 HD
ENDBRANCH  45  49
ENDBRANCH  42  45
ENDBRANCH  39  42
ENDBRANCH  35  36
ENDBRANCH   1  35
TORSDOF 14
ENDMDL
MODEL 2
REMARK VINA RESULT:      -8.2      3.987      6.522
REMARK  Name = 
REMARK  14 active torsions:
REMARK  status: ('A' for Active; 'I' for Inactive)
REMARK    1  A    between atoms: O_1  and  P_2
REMARK    2  A    between atoms: P_2  and  O_3
REMARK    3  A    between atoms: P_2  and  C_5
REMARK    4  A    between atoms: C_5  and  C_8
REMARK    5  A    between atoms: C_11  and  C_12
REMARK    6  A    between atoms: C_12  and  C_13
REMARK    7  A    between atoms: C_13  and  C_14
REMARK    8  A    between atoms: C_13  and  N_28
REMARK    9  A    between atoms: C_13  and  C_37
REMARK   10  A    between atoms: C_14  and  C_15
REMARK   11  A    between atoms: C_18  and  C_21
REMARK   12  A    between atoms: C_21  and  P_24
REMARK   13  A    between atoms: P_24  and  O_25
REMARK   14  A    between atoms: P_24  and  O_26
REMARK                            x       y       z     vdW  Elec       q    Type
REMARK                         _______ _______ _______ _____ _____    ______ ____
ROOT
ATOM      1  C   UNL     1       7.293  -3.032  24.751  0.00  0.00    +0.099 C 
ENDROOT
BRANCH   1   2
ATOM      2  N   UNL     1       6.836  -3.752  25.971  0.00  0.00    -0.233 N 
ATOM      3  C   UNL     1       5.562  -4.060  26.423  0.00  0.00    +0.090 A 
ATOM      4  C   UNL     1       4.263  -3.867  25.947  0.00  0.00    +0.029 A 
ATOM      5  C   UNL     1       3.223  -4.427  26.702  0.00  0.00    +0.002 A 
ATOM      6  C   UNL     1       3.461  -5.091  27.906  0.00  0.00    +0.002 A 
ATOM      7  C   UNL     1       4.757  -5.247  28.391  0.00  0.00    +0.032 A 
ATOM      8  C   UNL     1       5.811  -4.756  27.618  0.00  0.00    +0.113 A 
ATOM      9  N   UNL     1       7.144  -4.845  27.834  0.00  0.00    -0.129 NA
ATOM     10  N   UNL     1       7.750  -4.296  26.802  0.00  0.00    -0.064 NA
ENDBRANCH   1   2
BRANCH   1  11
ATOM     11  C   UNL     1       6.900  -3.785  23.431  0.00  0.00    -0.016 A 
ATOM     12  C   UNL     1       7.159  -5.175  23.309  0.00  0.00    +0.047 A 
ATOM     13  C   UNL     1       6.827  -5.883  22.152  0.00  0.00    +0.159 A 
ATOM     14  F   UNL     1       7.102  -7.191  22.083  0.00  0.00    -0.202 F 
ATOM     15  C   UNL     1       6.226  -5.235  21.086  0.00  0.00    +0.158 A 
ATOM     16  F   UNL     1       5.898  -5.913  19.978  0.00  0.00    -0.202 F 
ATOM     17  C   UNL     1       5.978  -3.871  21.156  0.00  0.00    +0.041 A 
ATOM     18  C   UNL     1       6.326  -3.151  22.310  0.00  0.00    +0.009 A 
ENDBRANCH   1  11
BRANCH   1  19
ATOM     19  C   UNL     1       6.695  -1.560  24.704  0.00  0.00    +0.070 C 
BRANCH  19  23
ATOM     20  C   UNL     1       6.232   0.721  28.348  0.00  0.00    +0.033 A 
ATOM     21  C   UNL     1       5.116   0.484  27.537  0.00  0.00    +0.010 A 
ATOM     22  C   UNL     1       5.250  -0.252  26.363  0.00  0.00    +0.004 A 
ATOM     23  C   UNL     1       6.483  -0.805  26.008  0.00  0.00    -0.045 A 
ATOM     24  C   UNL     1       7.573  -0.635  26.882  0.00  0.00    +0.004 A 
ATOM     25  C   UNL     1       7.449   0.101  28.056  0.00  0.00    +0.010 A 
BRANCH  20  26
ATOM     26  C   UNL     1       6.231   1.933  29.235  0.00  0.00    +0.371 C 
ATOM     27  F   UNL     1       5.063   2.203  29.875  0.00  0.00    -0.187 F 
ATOM     28  F   UNL     1       7.230   2.002  30.153  0.00  0.00    -0.187 F 
BRANCH  26  29
ATOM     29  P   UNL     1       6.510   3.404  28.194  0.00  0.00    +0.401 P 
ATOM     30  O   UNL     1       5.322   4.077  27.564  0.00  0.00    -0.252 OA
BRANCH  29  31
ATOM     31  O   UNL     1       7.597   3.119  27.044  0.00  0.00    -0.320 OA
ATOM     32  H   UNL     1       7.906   2.194  27.100  0.00  0.00    +0.220 HD
ENDBRANCH  29  31
BRANCH  29  33
ATOM     33  O   UNL     1       7.288   4.504  29.086  0.00  0.00    -0.320 OA
ATOM     34  H   UNL     1       8.199   4.644  28.771  0.00  0.00    +0.220 HD
ENDBRANCH  29  33
ENDBRANCH  26  29
ENDBRANCH  20  26
ENDBRANCH  19  23
ENDBRANCH   1  19
BRANCH   1  35
ATOM     35  C   UNL     1       8.878  -2.906  24.748  0.00  0.00    +0.070 C 
BRANCH  35  36
ATOM     36  C   UNL     1       9.499  -1.598  24.296  0.00  0.00    -0.045 A 
ATOM     37  C   UNL     1       9.500  -1.265  22.934  0.00  0.00    +0.004 A 
ATOM     38  C   UNL     1       9.948  -0.013  22.508  0.00  0.00    +0.010 A 
ATOM     39  C   UNL     1      10.398   0.932  23.438  0.00  0.00    +0.033 A 
ATOM     40  C   UNL     1      10.499   0.563  24.782  0.00  0.00    +0.010 A 
ATOM     41  C   UNL     1      10.069  -0.696  25.201  0.00  0.00    +0.004 A 
BRANCH  39  42
ATOM     42  C   UNL     1      10.550   2.374  23.038  0.00  0.00    +0.371 C 
ATOM     43  F   UNL     1      10.611   2.608  21.694  0.00  0.00    -0.187 F 
ATOM     44  F   UNL     1      11.624   3.018  23.583  0.00  0.00    -0.187 F 
BRANCH  42  45
ATOM     45  P   UNL     1       9.175   3.420  23.643  0.00  0.00    +0.401 P 
ATOM     46  O   UNL     1       8.012   4.304  24.154  0.00  0.00    -0.252 OA
BRANCH  45  47
ATOM     47  O   UNL     1       8.520   3.289  22.115  0.00  0.00    -0.320 OA
ATOM     48  H   UNL     1       8.031   4.106  21.891  0.00  0.00    +0.220 HD
ENDBRANCH  45  47
BRANCH  45  49
ATOM     49  O   UNL     1      10.097   4.767  23.283  0.00  0.00    -0.320 OA
ATOM     50  H   UNL     1      11.020   4.567  23.023  0.00  0.00    +0.220 HD
ENDBRANCH  45  49
ENDBRANCH  42  45
ENDBRANCH  39  42
ENDBRANCH  35  36
ENDBRANCH   1  35
TORSDOF 14
ENDMDL
MODEL 3
REMARK VINA RESULT:      -8.2      2.932      8.998
REMARK  Name = 
REMARK  14 active torsions:
REMARK  status: ('A' for Active; 'I' for Inactive)
REMARK    1  A    between atoms: O_1  and  P_2
REMARK    2  A    between atoms: P_2  and  O_3
REMARK    3  A    between atoms: P_2  and  C_5
REMARK    4  A    between atoms: C_5  and  C_8
REMARK    5  A    between atoms: C_11  and  C_12
REMARK    6  A    between atoms: C_12  and  C_13
REMARK    7  A    between atoms: C_13  and  C_14
REMARK    8  A    between atoms: C_13  and  N_28
REMARK    9  A    between atoms: C_13  and  C_37
REMARK   10  A    between atoms: C_14  and  C_15
REMARK   11  A    between atoms: C_18  and  C_21
REMARK   12  A    between atoms: C_21  and  P_24
REMARK   13  A    between atoms: P_24  and  O_25
REMARK   14  A    between atoms: P_24  and  O_26
REMARK                            x       y       z     vdW  Elec       q    Type
REMARK                         _______ _______ _______ _____ _____    ______ ____
ROOT
ATOM      1  C   UNL     1       6.762  -3.032  25.621  0.00  0.00    +0.099 C 
ENDROOT
BRANCH   1   2
ATOM      2  N   UNL     1       6.064  -1.719  25.671  0.00  0.00    -0.233 N 
ATOM      3  C   UNL     1       5.399  -1.079  26.705  0.00  0.00    +0.090 A 
ATOM      4  C   UNL     1       5.145  -1.360  28.050  0.00  0.00    +0.029 A 
ATOM      5  C   UNL     1       4.481  -0.371  28.789  0.00  0.00    +0.002 A 
ATOM      6  C   UNL     1       4.034   0.813  28.200  0.00  0.00    +0.002 A 
ATOM      7  C   UNL     1       4.259   1.068  26.850  0.00  0.00    +0.032 A 
ATOM      8  C   UNL     1       4.979   0.125  26.115  0.00  0.00    +0.113 A 
ATOM      9  N   UNL     1       5.384   0.174  24.824  0.00  0.00    -0.129 NA
ATOM     10  N   UNL     1       6.092  -0.911  24.589  0.00  0.00    -0.064 NA
ENDBRANCH   1   2
BRANCH   1  11
ATOM     11  C   UNL     1       6.503  -3.793  24.272  0.00  0.00    -0.016 A 
ATOM     12  C   UNL     1       7.395  -4.815  23.856  0.00  0.00    +0.047 A 
ATOM     13  C   UNL     1       7.203  -5.515  22.664  0.00  0.00    +0.159 A 
ATOM     14  F   UNL     1       8.081  -6.463  22.312  0.00  0.00    -0.202 F 
ATOM     15  C   UNL     1       6.121  -5.225  21.852  0.00  0.00    +0.158 A 
ATOM     16  F   UNL     1       5.928  -5.901  20.711  0.00  0.00    -0.202 F 
ATOM     17  C   UNL     1       5.238  -4.216  22.210  0.00  0.00    +0.041 A 
ATOM     18  C   UNL     1       5.436  -3.497  23.399  0.00  0.00    +0.009 A 
ENDBRANCH   1  11
BRANCH   1  19
ATOM     19  C   UNL     1       8.327  -2.850  25.820  0.00  0.00    +0.070 C 
BRANCH  19  23
ATOM     20  C   UNL     1      10.150   0.529  23.832  0.00  0.00    +0.033 A 
ATOM     21  C   UNL     1       9.923   0.582  25.213  0.00  0.00    +0.010 A 
ATOM     22  C   UNL     1       9.341  -0.500  25.866  0.00  0.00    +0.004 A 
ATOM     23  C   UNL     1       9.024  -1.667  25.164  0.00  0.00    -0.045 A 
ATOM     24  C   UNL     1       9.344  -1.737  23.795  0.00  0.00    +0.004 A 
ATOM     25  C   UNL     1       9.923  -0.659  23.135  0.00  0.00    +0.010 A 
BRANCH  20  26
ATOM     26  C   UNL     1      10.212   1.820  23.065  0.00  0.00    +0.371 C 
ATOM     27  F   UNL     1      11.154   2.711  23.472  0.00  0.00    -0.187 F 
ATOM     28  F   UNL     1      10.305   1.708  21.715  0.00  0.00    -0.187 F 
BRANCH  26  29
ATOM     29  P   UNL     1       8.636   2.706  23.309  0.00  0.00    +0.401 P 
ATOM     30  O   UNL     1       8.522   3.672  24.455  0.00  0.00    -0.252 OA
BRANCH  29  31
ATOM     31  O   UNL     1       7.390   1.693  23.375  0.00  0.00    -0.320 OA
ATOM     32  H   UNL     1       6.950   1.649  22.505  0.00  0.00    +0.220 HD
ENDBRANCH  29  31
BRANCH  29  33
ATOM     33  O   UNL     1       8.304   3.511  21.947  0.00  0.00    -0.320 OA
ATOM     34  H   UNL     1       8.829   4.327  21.874  0.00  0.00    +0.220 HD
ENDBRANCH  29  33
ENDBRANCH  26  29
ENDBRANCH  20  26
ENDBRANCH  19  23
ENDBRANCH   1  19
BRANCH   1  35
ATOM     35  C   UNL     1       6.237  -3.979  26.785  0.00  0.00    +0.070 C 
BRANCH  35  36
ATOM     36  C   UNL     1       5.101  -4.936  26.482  0.00  0.00    -0.045 A 
ATOM     37  C   UNL     1       3.788  -4.450  26.393  0.00  0.00    +0.004 A 
ATOM     38  C   UNL     1       2.745  -5.286  25.990  0.00  0.00    +0.010 A 
ATOM     39  C   UNL     1       2.996  -6.623  25.662  0.00  0.00    +0.033 A 
ATOM     40  C   UNL     1       4.281  -7.136  25.853  0.00  0.00    +0.010 A 
ATOM     41  C   UNL     1       5.317  -6.303  26.276  0.00  0.00    +0.004 A 
BRANCH  39  42
ATOM     42  C   UNL     1       1.969  -7.423  24.907  0.00  0.00    +0.371 C 
ATOM     43  F   UNL     1       0.876  -7.805  25.630  0.00  0.00    -0.187 F 
ATOM     44  F   UNL     1       2.441  -8.555  24.308  0.00  0.00    -0.187 F 
BRANCH  42  45
ATOM     45  P   UNL     1       1.296  -6.520  23.464  0.00  0.00    +0.401 P 
ATOM     46  O   UNL     1       0.726  -5.757  22.244  0.00  0.00    -0.252 OA
BRANCH  45  47
ATOM     47  O   UNL     1       0.635  -7.972  22.977  0.00  0.00    -0.320 OA
ATOM     48  H   UNL     1      -0.284  -7.833  22.669  0.00  0.00    +0.220 HD
ENDBRANCH  45  47
BRANCH  45  49
ATOM     49  O   UNL     1       2.754  -6.764  22.685  0.00  0.00    -0.320 OA
ATOM     50  H   UNL     1       2.686  -7.278  21.853  0.00  0.00    +0.220 HD
ENDBRANCH  45  49
ENDBRANCH  42  45
ENDBRANCH  39  42
ENDBRANCH  35  36
ENDBRANCH   1  35
TORSDOF 14
ENDMDL
MODEL 4
REMARK VINA RESULT:      -8.1      3.960      6.370
REMARK  Name = 
REMARK  14 active torsions:
REMARK  status: ('A' for Active; 'I' for Inactive)
REMARK    1  A    between atoms: O_1  and  P_2
REMARK    2  A    between atoms: P_2  and  O_3
REMARK    3  A    between atoms: P_2  and  C_5
REMARK    4  A    between atoms: C_5  and  C_8
REMARK    5  A    between atoms: C_11  and  C_12
REMARK    6  A    between atoms: C_12  and  C_13
REMARK    7  A    between atoms: C_13  and  C_14
REMARK    8  A    between atoms: C_13  and  N_28
REMARK    9  A    between atoms: C_13  and  C_37
REMARK   10  A    between atoms: C_14  and  C_15
REMARK   11  A    between atoms: C_18  and  C_21
REMARK   12  A    between atoms: C_21  and  P_24
REMARK   13  A    between atoms: P_24  and  O_25
REMARK   14  A    between atoms: P_24  and  O_26
REMARK                            x       y       z     vdW  Elec       q    Type
REMARK                         _______ _______ _______ _____ _____    ______ ____
ROOT
ATOM      1  C   UNL     1       7.346  -3.602  24.858  0.00  0.00    +0.099 C 
ENDROOT
BRANCH   1   2
ATOM      2  N   UNL     1       6.922  -4.428  26.021  0.00  0.00    -0.233 N 
ATOM      3  C   UNL     1       5.791  -5.203  26.224  0.00  0.00    +0.090 A 
ATOM      4  C   UNL     1       4.665  -5.539  25.469  0.00  0.00    +0.029 A 
ATOM      5  C   UNL     1       3.768  -6.451  26.041  0.00  0.00    +0.002 A 
ATOM      6  C   UNL     1       3.950  -6.953  27.330  0.00  0.00    +0.002 A 
ATOM      7  C   UNL     1       5.057  -6.585  28.091  0.00  0.00    +0.032 A 
ATOM      8  C   UNL     1       5.997  -5.731  27.510  0.00  0.00    +0.113 A 
ATOM      9  N   UNL     1       7.175  -5.289  28.010  0.00  0.00    -0.129 NA
ATOM     10  N   UNL     1       7.752  -4.560  27.078  0.00  0.00    -0.064 NA
ENDBRANCH   1   2
BRANCH   1  11
ATOM     11  C   UNL     1       7.025  -4.296  23.486  0.00  0.00    -0.016 A 
ATOM     12  C   UNL     1       6.365  -3.566  22.464  0.00  0.00    +0.047 A 
ATOM     13  C   UNL     1       6.059  -4.145  21.231  0.00  0.00    +0.159 A 
ATOM     14  F   UNL     1       5.426  -3.416  20.303  0.00  0.00    -0.202 F 
ATOM     15  C   UNL     1       6.402  -5.462  20.975  0.00  0.00    +0.158 A 
ATOM     16  F   UNL     1       6.118  -6.018  19.790  0.00  0.00    -0.202 F 
ATOM     17  C   UNL     1       7.026  -6.217  21.957  0.00  0.00    +0.041 A 
ATOM     18  C   UNL     1       7.321  -5.646  23.205  0.00  0.00    +0.009 A 
ENDBRANCH   1  11
BRANCH   1  19
ATOM     19  C   UNL     1       6.648  -2.175  24.891  0.00  0.00    +0.070 C 
BRANCH  19  23
ATOM     20  C   UNL     1       3.643  -1.191  27.840  0.00  0.00    +0.033 A 
ATOM     21  C   UNL     1       3.283  -1.942  26.714  0.00  0.00    +0.010 A 
ATOM     22  C   UNL     1       4.241  -2.269  25.759  0.00  0.00    +0.004 A 
ATOM     23  C   UNL     1       5.577  -1.899  25.937  0.00  0.00    -0.045 A 
ATOM     24  C   UNL     1       5.937  -1.225  27.119  0.00  0.00    +0.004 A 
ATOM     25  C   UNL     1       4.986  -0.892  28.077  0.00  0.00    +0.010 A 
BRANCH  20  26
ATOM     26  C   UNL     1       2.586  -0.372  28.524  0.00  0.00    +0.371 C 
ATOM     27  F   UNL     1       1.483  -1.047  28.940  0.00  0.00    -0.187 F 
ATOM     28  F   UNL     1       3.007   0.406  29.555  0.00  0.00    -0.187 F 
BRANCH  26  29
ATOM     29  P   UNL     1       1.932   0.835  27.322  0.00  0.00    +0.401 P 
ATOM     30  O   UNL     1       0.780   0.429  26.446  0.00  0.00    -0.252 OA
BRANCH  29  31
ATOM     31  O   UNL     1       3.096   1.428  26.384  0.00  0.00    -0.320 OA
ATOM     32  H   UNL     1       2.704   1.940  25.651  0.00  0.00    +0.220 HD
ENDBRANCH  29  31
BRANCH  29  33
ATOM     33  O   UNL     1       1.492   2.159  28.138  0.00  0.00    -0.320 OA
ATOM     34  H   UNL     1       0.583   2.430  27.921  0.00  0.00    +0.220 HD
ENDBRANCH  29  33
ENDBRANCH  26  29
ENDBRANCH  20  26
ENDBRANCH  19  23
ENDBRANCH   1  19
BRANCH   1  35
ATOM     35  C   UNL     1       8.918  -3.368  24.892  0.00  0.00    +0.070 C 
BRANCH  35  36
ATOM     36  C   UNL     1       9.458  -2.018  24.461  0.00  0.00    -0.045 A 
ATOM     37  C   UNL     1       9.834  -1.815  23.125  0.00  0.00    +0.004 A 
ATOM     38  C   UNL     1      10.212  -0.548  22.677  0.00  0.00    +0.010 A 
ATOM     39  C   UNL     1      10.214   0.542  23.554  0.00  0.00    +0.033 A 
ATOM     40  C   UNL     1       9.943   0.321  24.907  0.00  0.00    +0.010 A 
ATOM     41  C   UNL     1       9.586  -0.950  25.356  0.00  0.00    +0.004 A 
BRANCH  39  42
ATOM     42  C   UNL     1      10.277   1.946  23.017  0.00  0.00    +0.371 C 
ATOM     43  F   UNL     1      10.592   2.054  21.693  0.00  0.00    -0.187 F 
ATOM     44  F   UNL     1      11.131   2.782  23.678  0.00  0.00    -0.187 F 
BRANCH  42  45
ATOM     45  P   UNL     1       8.694   2.844  23.207  0.00  0.00    +0.401 P 
ATOM     46  O   UNL     1       7.354   3.603  23.367  0.00  0.00    -0.252 OA
BRANCH  45  47
ATOM     47  O   UNL     1       8.505   2.680  21.558  0.00  0.00    -0.320 OA
ATOM     48  H   UNL     1       9.241   2.152  21.189  0.00  0.00    +0.220 HD
ENDBRANCH  45  47
BRANCH  45  49
ATOM     49  O   UNL     1       9.544   4.279  23.107  0.00  0.00    -0.320 OA
ATOM     50  H   UNL     1       9.982   4.430  22.243  0.00  0.00    +0.220 HD
ENDBRANCH  45  49
ENDBRANCH  42  45
ENDBRANCH  39  42
ENDBRANCH  35  36
ENDBRANCH   1  35
TORSDOF 14
ENDMDL
MODEL 5
REMARK VINA RESULT:      -8.1      4.500      7.029
REMARK  Name = 
REMARK  14 active torsions:
REMARK  status: ('A' for Active; 'I' for Inactive)
REMARK    1  A    between atoms: O_1  and  P_2
REMARK    2  A    between atoms: P_2  and  O_3
REMARK    3  A    between atoms: P_2  and  C_5
REMARK    4  A    between atoms: C_5  and  C_8
REMARK    5  A    between atoms: C_11  and  C_12
REMARK    6  A    between atoms: C_12  and  C_13
REMARK    7  A    between atoms: C_13  and  C_14
REMARK    8  A    between atoms: C_13  and  N_28
REMARK    9  A    between atoms: C_13  and  C_37
REMARK   10  A    between atoms: C_14  and  C_15
REMARK   11  A    between atoms: C_18  and  C_21
REMARK   12  A    between atoms: C_21  and  P_24
REMARK   13  A    between atoms: P_24  and  O_25
REMARK   14  A    between atoms: P_24  and  O_26
REMARK                            x       y       z     vdW  Elec       q    Type
REMARK                         _______ _______ _______ _____ _____    ______ ____
ROOT
ATOM      1  C   UNL     1       5.396  -4.897  24.866  0.00  0.00    +0.099 C 
ENDROOT
BRANCH   1   2
ATOM      2  N   UNL     1       5.739  -5.134  26.295  0.00  0.00    -0.233 N 
ATOM      3  C   UNL     1       4.960  -5.084  27.440  0.00  0.00    +0.090 A 
ATOM      4  C   UNL     1       3.613  -4.837  27.718  0.00  0.00    +0.029 A 
ATOM      5  C   UNL     1       3.207  -4.970  29.053  0.00  0.00    +0.002 A 
ATOM      6  C   UNL     1       4.113  -5.270  30.071  0.00  0.00    +0.002 A 
ATOM      7  C   UNL     1       5.461  -5.479  29.790  0.00  0.00    +0.032 A 
ATOM      8  C   UNL     1       5.870  -5.419  28.457  0.00  0.00    +0.113 A 
ATOM      9  N   UNL     1       7.093  -5.651  27.926  0.00  0.00    -0.129 NA
ATOM     10  N   UNL     1       6.985  -5.542  26.618  0.00  0.00    -0.064 NA
ENDBRANCH   1   2
BRANCH   1  11
ATOM     11  C   UNL     1       4.179  -5.770  24.393  0.00  0.00    -0.016 A 
ATOM     12  C   UNL     1       3.157  -5.186  23.602  0.00  0.00    +0.047 A 
ATOM     13  C   UNL     1       2.058  -5.926  23.162  0.00  0.00    +0.159 A 
ATOM     14  F   UNL     1       1.115  -5.324  22.426  0.00  0.00    -0.202 F 
ATOM     15  C   UNL     1       1.943  -7.266  23.490  0.00  0.00    +0.158 A 
ATOM     16  F   UNL     1       0.895  -7.981  23.062  0.00  0.00    -0.202 F 
ATOM     17  C   UNL     1       2.909  -7.869  24.283  0.00  0.00    +0.041 A 
ATOM     18  C   UNL     1       4.008  -7.126  24.743  0.00  0.00    +0.009 A 
ENDBRANCH   1  11
BRANCH   1  19
ATOM     19  C   UNL     1       5.062  -3.365  24.610  0.00  0.00    +0.070 C 
BRANCH  19  23
ATOM     20  C   UNL     1       6.000  -0.360  27.575  0.00  0.00    +0.033 A 
ATOM     21  C   UNL     1       4.671  -0.768  27.404  0.00  0.00    +0.010 A 
ATOM     22  C   UNL     1       4.356  -1.738  26.456  0.00  0.00    +0.004 A 
ATOM     23  C   UNL     1       5.362  -2.349  25.703  0.00  0.00    -0.045 A 
ATOM     24  C   UNL     1       6.701  -1.992  25.953  0.00  0.00    +0.004 A 
ATOM     25  C   UNL     1       7.024  -1.023  26.897  0.00  0.00    +0.010 A 
BRANCH  20  26
ATOM     26  C   UNL     1       6.263   1.014  28.122  0.00  0.00    +0.371 C 
ATOM     27  F   UNL     1       5.289   1.539  28.910  0.00  0.00    -0.187 F 
ATOM     28  F   UNL     1       7.448   1.184  28.764  0.00  0.00    -0.187 F 
BRANCH  26  29
ATOM     29  P   UNL     1       6.369   2.178  26.722  0.00  0.00    +0.401 P 
ATOM     30  O   UNL     1       5.902   3.592  26.923  0.00  0.00    -0.252 OA
BRANCH  29  31
ATOM     31  O   UNL     1       5.653   1.590  25.408  0.00  0.00    -0.320 OA
ATOM     32  H   UNL     1       6.249   0.962  24.956  0.00  0.00    +0.220 HD
ENDBRANCH  29  31
BRANCH  29  33
ATOM     33  O   UNL     1       7.909   2.228  26.234  0.00  0.00    -0.320 OA
ATOM     34  H   UNL     1       7.987   2.546  25.318  0.00  0.00    +0.220 HD
ENDBRANCH  29  33
ENDBRANCH  26  29
ENDBRANCH  20  26
ENDBRANCH  19  23
ENDBRANCH   1  19
BRANCH   1  35
ATOM     35  C   UNL     1       6.623  -5.283  23.933  0.00  0.00    +0.070 C 
BRANCH  35  36
ATOM     36  C   UNL     1       7.567  -4.183  23.486  0.00  0.00    -0.045 A 
ATOM     37  C   UNL     1       7.247  -3.409  22.361  0.00  0.00    +0.004 A 
ATOM     38  C   UNL     1       8.032  -2.310  22.007  0.00  0.00    +0.010 A 
ATOM     39  C   UNL     1       9.149  -1.961  22.775  0.00  0.00    +0.033 A 
ATOM     40  C   UNL     1       9.530  -2.793  23.830  0.00  0.00    +0.010 A 
ATOM     41  C   UNL     1       8.755  -3.902  24.169  0.00  0.00    +0.004 A 
BRANCH  39  42
ATOM     42  C   UNL     1       9.785  -0.607  22.615  0.00  0.00    +0.371 C 
ATOM     43  F   UNL     1      10.311  -0.349  21.382  0.00  0.00    -0.187 F 
ATOM     44  F   UNL     1      10.770  -0.318  23.514  0.00  0.00    -0.187 F 
BRANCH  42  45
ATOM     45  P   UNL     1       8.613   0.763  22.931  0.00  0.00    +0.401 P 
ATOM     46  O   UNL     1       7.621   1.921  23.197  0.00  0.00    -0.252 OA
BRANCH  45  47
ATOM     47  O   UNL     1       9.229   1.488  21.561  0.00  0.00    -0.320 OA
ATOM     48  H   UNL     1       8.538   1.535  20.870  0.00  0.00    +0.220 HD
ENDBRANCH  45  47
BRANCH  45  49
ATOM     49  O   UNL     1       9.742   1.435  23.963  0.00  0.00    -0.320 OA
ATOM     50  H   UNL     1       9.394   1.661  24.851  0.00  0.00    +0.220 HD
ENDBRANCH  45  49
ENDBRANCH  42  45
ENDBRANCH  39  42
ENDBRANCH  35  36
ENDBRANCH   1  35
TORSDOF 14
ENDMDL
MODEL 6
REMARK VINA RESULT:      -8.1      3.607      9.379
REMARK  Name = 
REMARK  14 active torsions:
REMARK  status: ('A' for Active; 'I' for Inactive)
REMARK    1  A    between atoms: O_1  and  P_2
REMARK    2  A    between atoms: P_2  and  O_3
REMARK    3  A    between atoms: P_2  and  C_5
REMARK    4  A    between atoms: C_5  and  C_8
REMARK    5  A    between atoms: C_11  and  C_12
REMARK    6  A    between atoms: C_12  and  C_13
REMARK    7  A    between atoms: C_13  and  C_14
REMARK    8  A    between atoms: C_13  and  N_28
REMARK    9  A    between atoms: C_13  and  C_37
REMARK   10  A    between atoms: C_14  and  C_15
REMARK   11  A    between atoms: C_18  and  C_21
REMARK   12  A    between atoms: C_21  and  P_24
REMARK   13  A    between atoms: P_24  and  O_25
REMARK   14  A    between atoms: P_24  and  O_26
REMARK                            x       y       z     vdW  Elec       q    Type
REMARK                         _______ _______ _______ _____ _____    ______ ____
ROOT
ATOM      1  C   UNL     1       7.371  -2.973  25.409  0.00  0.00    +0.099 C 
ENDROOT
BRANCH   1   2
ATOM      2  N   UNL     1       7.087  -3.982  26.465  0.00  0.00    -0.233 N 
ATOM      3  C   UNL     1       6.058  -4.069  27.390  0.00  0.00    +0.090 A 
ATOM      4  C   UNL     1       4.917  -3.317  27.683  0.00  0.00    +0.029 A 
ATOM      5  C   UNL     1       4.068  -3.818  28.680  0.00  0.00    +0.002 A 
ATOM      6  C   UNL     1       4.375  -4.977  29.395  0.00  0.00    +0.002 A 
ATOM      7  C   UNL     1       5.533  -5.700  29.121  0.00  0.00    +0.032 A 
ATOM      8  C   UNL     1       6.355  -5.254  28.084  0.00  0.00    +0.113 A 
ATOM      9  N   UNL     1       7.482  -5.813  27.585  0.00  0.00    -0.129 NA
ATOM     10  N   UNL     1       7.874  -5.074  26.568  0.00  0.00    -0.064 NA
ENDBRANCH   1   2
BRANCH   1  11
ATOM     11  C   UNL     1       6.796  -1.557  25.769  0.00  0.00    -0.016 A 
ATOM     12  C   UNL     1       7.195  -0.918  26.971  0.00  0.00    +0.047 A 
ATOM     13  C   UNL     1       6.706   0.340  27.330  0.00  0.00    +0.159 A 
ATOM     14  F   UNL     1       7.106   0.894  28.481  0.00  0.00    -0.202 F 
ATOM     15  C   UNL     1       5.812   1.001  26.506  0.00  0.00    +0.158 A 
ATOM     16  F   UNL     1       5.348   2.212  26.842  0.00  0.00    -0.202 F 
ATOM     17  C   UNL     1       5.378   0.400  25.333  0.00  0.00    +0.041 A 
ATOM     18  C   UNL     1       5.852  -0.872  24.975  0.00  0.00    +0.009 A 
ENDBRANCH   1  11
BRANCH   1  19
ATOM     19  C   UNL     1       8.934  -2.846  25.152  0.00  0.00    +0.070 C 
BRANCH  19  23
ATOM     20  C   UNL     1      10.300   0.805  23.281  0.00  0.00    +0.033 A 
ATOM     21  C   UNL     1      10.409   0.660  24.669  0.00  0.00    +0.010 A 
ATOM     22  C   UNL     1       9.977  -0.511  25.284  0.00  0.00    +0.004 A 
ATOM     23  C   UNL     1       9.479  -1.572  24.522  0.00  0.00    -0.045 A 
ATOM     24  C   UNL     1       9.463  -1.444  23.120  0.00  0.00    +0.004 A 
ATOM     25  C   UNL     1       9.890  -0.276  22.498  0.00  0.00    +0.010 A 
BRANCH  20  26
ATOM     26  C   UNL     1      10.204   2.191  22.710  0.00  0.00    +0.371 C 
ATOM     27  F   UNL     1      10.636   3.199  23.512  0.00  0.00    -0.187 F 
ATOM     28  F   UNL     1      10.762   2.372  21.485  0.00  0.00    -0.187 F 
BRANCH  26  29
ATOM     29  P   UNL     1       8.443   2.576  22.433  0.00  0.00    +0.401 P 
ATOM     30  O   UNL     1       7.444   2.173  23.481  0.00  0.00    -0.252 OA
BRANCH  29  31
ATOM     31  O   UNL     1       7.932   2.025  21.011  0.00  0.00    -0.320 OA
ATOM     32  H   UNL     1       8.439   2.446  20.290  0.00  0.00    +0.220 HD
ENDBRANCH  29  31
BRANCH  29  33
ATOM     33  O   UNL     1       8.312   4.171  22.209  0.00  0.00    -0.320 OA
ATOM     34  H   UNL     1       7.574   4.547  22.720  0.00  0.00    +0.220 HD
ENDBRANCH  29  33
ENDBRANCH  26  29
ENDBRANCH  20  26
ENDBRANCH  19  23
ENDBRANCH   1  19
BRANCH   1  35
ATOM     35  C   UNL     1       6.693  -3.404  24.038  0.00  0.00    +0.070 C 
BRANCH  35  36
ATOM     36  C   UNL     1       5.517  -4.362  24.082  0.00  0.00    -0.045 A 
ATOM     37  C   UNL     1       5.732  -5.734  23.887  0.00  0.00    +0.004 A 
ATOM     38  C   UNL     1       4.689  -6.647  24.050  0.00  0.00    +0.010 A 
ATOM     39  C   UNL     1       3.413  -6.207  24.417  0.00  0.00    +0.033 A 
ATOM     40  C   UNL     1       3.171  -4.834  24.506  0.00  0.00    +0.010 A 
ATOM     41  C   UNL     1       4.211  -3.922  24.322  0.00  0.00    +0.004 A 
BRANCH  39  42
ATOM     42  C   UNL     1       2.391  -7.187  24.927  0.00  0.00    +0.371 C 
ATOM     43  F   UNL     1       2.701  -8.504  24.747  0.00  0.00    -0.187 F 
ATOM     44  F   UNL     1       1.131  -7.023  24.428  0.00  0.00    -0.187 F 
BRANCH  42  45
ATOM     45  P   UNL     1       2.081  -7.009  26.722  0.00  0.00    +0.401 P 
ATOM     46  O   UNL     1       1.820  -6.859  28.241  0.00  0.00    -0.252 OA
BRANCH  45  47
ATOM     47  O   UNL     1       3.665  -7.481  26.952  0.00  0.00    -0.320 OA
ATOM     48  H   UNL     1       3.692  -8.374  27.351  0.00  0.00    +0.220 HD
ENDBRANCH  45  47
BRANCH  45  49
ATOM     49  O   UNL     1       1.472  -8.565  26.728  0.00  0.00    -0.320 OA
ATOM     50  H   UNL     1       2.016  -9.211  27.226  0.00  0.00    +0.220 HD
ENDBRANCH  45  49
ENDBRANCH  42  45
ENDBRANCH  39  42
ENDBRANCH  35  36
ENDBRANCH   1  35
TORSDOF 14
ENDMDL
MODEL 7
REMARK VINA RESULT:      -8.1      3.169      5.415
REMARK  Name = 
REMARK  14 active torsions:
REMARK  status: ('A' for Active; 'I' for Inactive)
REMARK    1  A    between atoms: O_1  and  P_2
REMARK    2  A    between atoms: P_2  and  O_3
REMARK    3  A    between atoms: P_2  and  C_5
REMARK    4  A    between atoms: C_5  and  C_8
REMARK    5  A    between atoms: C_11  and  C_12
REMARK    6  A    between atoms: C_12  and  C_13
REMARK    7  A    between atoms: C_13  and  C_14
REMARK    8  A    between atoms: C_13  and  N_28
REMARK    9  A    between atoms: C_13  and  C_37
REMARK   10  A    between atoms: C_14  and  C_15
REMARK   11  A    between atoms: C_18  and  C_21
REMARK   12  A    between atoms: C_21  and  P_24
REMARK   13  A    between atoms: P_24  and  O_25
REMARK   14  A    between atoms: P_24  and  O_26
REMARK                            x       y       z     vdW  Elec       q    Type
REMARK                         _______ _______ _______ _____ _____    ______ ____
ROOT
ATOM      1  C   UNL     1       7.032  -2.820  25.291  0.00  0.00    +0.099 C 
ENDROOT
BRANCH   1   2
ATOM      2  N   UNL     1       6.541  -3.231  23.948  0.00  0.00    -0.233 N 
ATOM      3  C   UNL     1       6.854  -4.328  23.160  0.00  0.00    +0.090 A 
ATOM      4  C   UNL     1       7.679  -5.447  23.294  0.00  0.00    +0.029 A 
ATOM      5  C   UNL     1       7.639  -6.390  22.257  0.00  0.00    +0.002 A 
ATOM      6  C   UNL     1       6.864  -6.195  21.113  0.00  0.00    +0.002 A 
ATOM      7  C   UNL     1       6.072  -5.059  20.972  0.00  0.00    +0.032 A 
ATOM      8  C   UNL     1       6.046  -4.142  22.025  0.00  0.00    +0.113 A 
ATOM      9  N   UNL     1       5.314  -3.012  22.157  0.00  0.00    -0.129 NA
ATOM     10  N   UNL     1       5.571  -2.509  23.347  0.00  0.00    -0.064 NA
ENDBRANCH   1   2
BRANCH   1  11
ATOM     11  C   UNL     1       6.495  -1.407  25.715  0.00  0.00    -0.016 A 
ATOM     12  C   UNL     1       6.345  -1.093  27.091  0.00  0.00    +0.047 A 
ATOM     13  C   UNL     1       5.869   0.151  27.510  0.00  0.00    +0.159 A 
ATOM     14  F   UNL     1       5.735   0.393  28.820  0.00  0.00    -0.202 F 
ATOM     15  C   UNL     1       5.533   1.119  26.580  0.00  0.00    +0.158 A 
ATOM     16  F   UNL     1       5.086   2.317  26.979  0.00  0.00    -0.202 F 
ATOM     17  C   UNL     1       5.643   0.844  25.224  0.00  0.00    +0.041 A 
ATOM     18  C   UNL     1       6.104  -0.411  24.796  0.00  0.00    +0.009 A 
ENDBRANCH   1  11
BRANCH   1  19
ATOM     19  C   UNL     1       6.617  -3.883  26.397  0.00  0.00    +0.070 C 
BRANCH  19  23
ATOM     20  C   UNL     1       2.817  -5.866  25.830  0.00  0.00    +0.033 A 
ATOM     21  C   UNL     1       3.999  -6.613  25.766  0.00  0.00    +0.010 A 
ATOM     22  C   UNL     1       5.229  -5.988  25.951  0.00  0.00    +0.004 A 
ATOM     23  C   UNL     1       5.296  -4.625  26.251  0.00  0.00    -0.045 A 
ATOM     24  C   UNL     1       4.093  -3.909  26.403  0.00  0.00    +0.004 A 
ATOM     25  C   UNL     1       2.860  -4.525  26.218  0.00  0.00    +0.010 A 
BRANCH  20  26
ATOM     26  C   UNL     1       1.610  -6.368  25.088  0.00  0.00    +0.371 C 
ATOM     27  F   UNL     1       1.343  -7.694  25.211  0.00  0.00    -0.187 F 
ATOM     28  F   UNL     1       0.452  -5.692  25.304  0.00  0.00    -0.187 F 
BRANCH  26  29
ATOM     29  P   UNL     1       1.904  -6.144  23.301  0.00  0.00    +0.401 P 
ATOM     30  O   UNL     1       2.977  -5.188  22.861  0.00  0.00    -0.252 OA
BRANCH  29  31
ATOM     31  O   UNL     1       0.548  -5.776  22.520  0.00  0.00    -0.320 OA
ATOM     32  H   UNL     1      -0.078  -5.336  23.127  0.00  0.00    +0.220 HD
ENDBRANCH  29  31
BRANCH  29  33
ATOM     33  O   UNL     1       2.239  -7.592  22.668  0.00  0.00    -0.320 OA
ATOM     34  H   UNL     1       2.484  -8.237  23.355  0.00  0.00    +0.220 HD
ENDBRANCH  29  33
ENDBRANCH  26  29
ENDBRANCH  20  26
ENDBRANCH  19  23
ENDBRANCH   1  19
BRANCH   1  35
ATOM     35  C   UNL     1       8.619  -2.723  25.292  0.00  0.00    +0.070 C 
BRANCH  35  36
ATOM     36  C   UNL     1       9.267  -1.469  24.738  0.00  0.00    -0.045 A 
ATOM     37  C   UNL     1       9.392  -1.306  23.351  0.00  0.00    +0.004 A 
ATOM     38  C   UNL     1       9.866  -0.108  22.814  0.00  0.00    +0.010 A 
ATOM     39  C   UNL     1      10.219   0.953  23.655  0.00  0.00    +0.033 A 
ATOM     40  C   UNL     1      10.198   0.756  25.038  0.00  0.00    +0.010 A 
ATOM     41  C   UNL     1       9.743  -0.450  25.571  0.00  0.00    +0.004 A 
BRANCH  39  42
ATOM     42  C   UNL     1      10.394   2.338  23.094  0.00  0.00    +0.371 C 
ATOM     43  F   UNL     1      10.524   2.409  21.737  0.00  0.00    -0.187 F 
ATOM     44  F   UNL     1      11.440   3.047  23.611  0.00  0.00    -0.187 F 
BRANCH  42  45
ATOM     45  P   UNL     1       8.992   3.443  23.498  0.00  0.00    +0.401 P 
ATOM     46  O   UNL     1       7.805   4.377  23.839  0.00  0.00    -0.252 OA
BRANCH  45  47
ATOM     47  O   UNL     1       8.453   3.183  21.940  0.00  0.00    -0.320 OA
ATOM     48  H   UNL     1       7.589   2.725  21.959  0.00  0.00    +0.220 HD
ENDBRANCH  45  47
BRANCH  45  49
ATOM     49  O   UNL     1       9.957   4.746  23.094  0.00  0.00    -0.320 OA
ATOM     50  H   UNL     1      10.194   5.323  23.850  0.00  0.00    +0.220 HD
ENDBRANCH  45  49
ENDBRANCH  42  45
ENDBRANCH  39  42
ENDBRANCH  35  36
ENDBRANCH   1  35
TORSDOF 14
ENDMDL
MODEL 8
REMARK VINA RESULT:      -7.9      4.369      7.459
REMARK  Name = 
REMARK  14 active torsions:
REMARK  status: ('A' for Active; 'I' for Inactive)
REMARK    1  A    between atoms: O_1  and  P_2
REMARK    2  A    between atoms: P_2  and  O_3
REMARK    3  A    between atoms: P_2  and  C_5
REMARK    4  A    between atoms: C_5  and  C_8
REMARK    5  A    between atoms: C_11  and  C_12
REMARK    6  A    between atoms: C_12  and  C_13
REMARK    7  A    between atoms: C_13  and  C_14
REMARK    8  A    between atoms: C_13  and  N_28
REMARK    9  A    between atoms: C_13  and  C_37
REMARK   10  A    between atoms: C_14  and  C_15
REMARK   11  A    between atoms: C_18  and  C_21
REMARK   12  A    between atoms: C_21  and  P_24
REMARK   13  A    between atoms: P_24  and  O_25
REMARK   14  A    between atoms: P_24  and  O_26
REMARK                            x       y       z     vdW  Elec       q    Type
REMARK                         _______ _______ _______ _____ _____    ______ ____
ROOT
ATOM      1  C   UNL     1       7.217  -0.084  26.058  0.00  0.00    +0.099 C 
ENDROOT
BRANCH   1   2
ATOM      2  N   UNL     1       7.174   0.829  27.233  0.00  0.00    -0.233 N 
ATOM      3  C   UNL     1       6.700   2.125  27.362  0.00  0.00    +0.090 A 
ATOM      4  C   UNL     1       6.081   3.048  26.516  0.00  0.00    +0.029 A 
ATOM      5  C   UNL     1       5.677   4.261  27.090  0.00  0.00    +0.002 A 
ATOM      6  C   UNL     1       5.936   4.566  28.427  0.00  0.00    +0.002 A 
ATOM      7  C   UNL     1       6.587   3.654  29.254  0.00  0.00    +0.032 A 
ATOM      8  C   UNL     1       6.935   2.413  28.718  0.00  0.00    +0.113 A 
ATOM      9  N   UNL     1       7.502   1.347  29.327  0.00  0.00    -0.129 NA
ATOM     10  N   UNL     1       7.579   0.377  28.439  0.00  0.00    -0.064 NA
ENDBRANCH   1   2
BRANCH   1  11
ATOM     11  C   UNL     1       7.951   0.561  24.829  0.00  0.00    -0.016 A 
ATOM     12  C   UNL     1       9.309   0.955  24.945  0.00  0.00    +0.047 A 
ATOM     13  C   UNL     1       9.998   1.534  23.878  0.00  0.00    +0.159 A 
ATOM     14  F   UNL     1      11.276   1.897  24.044  0.00  0.00    -0.202 F 
ATOM     15  C   UNL     1       9.362   1.735  22.665  0.00  0.00    +0.158 A 
ATOM     16  F   UNL     1      10.023   2.282  21.636  0.00  0.00    -0.202 F 
ATOM     17  C   UNL     1       8.028   1.387  22.517  0.00  0.00    +0.041 A 
ATOM     18  C   UNL     1       7.324   0.820  23.592  0.00  0.00    +0.009 A 
ENDBRANCH   1  11
BRANCH   1  19
ATOM     19  C   UNL     1       7.934  -1.452  26.429  0.00  0.00    +0.070 C 
BRANCH  19  23
ATOM     20  C   UNL     1       7.916  -4.641  23.509  0.00  0.00    +0.033 A 
ATOM     21  C   UNL     1       8.285  -3.349  23.116  0.00  0.00    +0.010 A 
ATOM     22  C   UNL     1       8.299  -2.314  24.046  0.00  0.00    +0.004 A 
ATOM     23  C   UNL     1       7.997  -2.561  25.388  0.00  0.00    -0.045 A 
ATOM     24  C   UNL     1       7.719  -3.883  25.783  0.00  0.00    +0.004 A 
ATOM     25  C   UNL     1       7.700  -4.922  24.860  0.00  0.00    +0.010 A 
BRANCH  20  26
ATOM     26  C   UNL     1       7.350  -5.572  22.475  0.00  0.00    +0.371 C 
ATOM     27  F   UNL     1       7.530  -5.206  21.179  0.00  0.00    -0.187 F 
ATOM     28  F   UNL     1       7.707  -6.878  22.587  0.00  0.00    -0.187 F 
BRANCH  26  29
ATOM     29  P   UNL     1       5.537  -5.611  22.671  0.00  0.00    +0.401 P 
ATOM     30  O   UNL     1       4.961  -6.183  23.937  0.00  0.00    -0.252 OA
BRANCH  29  31
ATOM     31  O   UNL     1       4.821  -6.327  21.422  0.00  0.00    -0.320 OA
ATOM     32  H   UNL     1       4.196  -5.708  20.998  0.00  0.00    +0.220 HD
ENDBRANCH  29  31
BRANCH  29  33
ATOM     33  O   UNL     1       4.988  -4.099  22.514  0.00  0.00    -0.320 OA
ATOM     34  H   UNL     1       4.601  -3.947  21.635  0.00  0.00    +0.220 HD
ENDBRANCH  29  33
ENDBRANCH  26  29
ENDBRANCH  20  26
ENDBRANCH  19  23
ENDBRANCH   1  19
BRANCH   1  35
ATOM     35  C   UNL     1       5.742  -0.431  25.576  0.00  0.00    +0.070 C 
BRANCH  35  36
ATOM     36  C   UNL     1       5.045  -1.631  26.187  0.00  0.00    -0.045 A 
ATOM     37  C   UNL     1       4.427  -2.574  25.353  0.00  0.00    +0.004 A 
ATOM     38  C   UNL     1       3.892  -3.750  25.882  0.00  0.00    +0.010 A 
ATOM     39  C   UNL     1       3.969  -4.008  27.256  0.00  0.00    +0.033 A 
ATOM     40  C   UNL     1       4.487  -3.022  28.100  0.00  0.00    +0.010 A 
ATOM     41  C   UNL     1       5.003  -1.839  27.570  0.00  0.00    +0.004 A 
BRANCH  39  42
ATOM     42  C   UNL     1       3.718  -5.395  27.781  0.00  0.00    +0.371 C 
ATOM     43  F   UNL     1       3.145  -6.262  26.896  0.00  0.00    -0.187 F 
ATOM     44  F   UNL     1       2.961  -5.457  28.916  0.00  0.00    -0.187 F 
BRANCH  42  45
ATOM     45  P   UNL     1       5.251  -6.224  28.340  0.00  0.00    +0.401 P 
ATOM     46  O   UNL     1       6.548  -6.926  28.811  0.00  0.00    -0.252 OA
BRANCH  45  47
ATOM     47  O   UNL     1       5.392  -6.814  26.786  0.00  0.00    -0.320 OA
ATOM     48  H   UNL     1       5.251  -7.782  26.782  0.00  0.00    +0.220 HD
ENDBRANCH  45  47
BRANCH  45  49
ATOM     49  O   UNL     1       4.314  -7.496  28.885  0.00  0.00    -0.320 OA
ATOM     50  H   UNL     1       3.457  -7.228  29.278  0.00  0.00    +0.220 HD
ENDBRANCH  45  49
ENDBRANCH  42  45
ENDBRANCH  39  42
ENDBRANCH  35  36
ENDBRANCH   1  35
TORSDOF 14
ENDMDL
MODEL 9
REMARK VINA RESULT:      -7.6      2.652      4.965
REMARK  Name = 
REMARK  14 active torsions:
REMARK  status: ('A' for Active; 'I' for Inactive)
REMARK    1  A    between atoms: O_1  and  P_2
REMARK    2  A    between atoms: P_2  and  O_3
REMARK    3  A    between atoms: P_2  and  C_5
REMARK    4  A    between atoms: C_5  and  C_8
REMARK    5  A    between atoms: C_11  and  C_12
REMARK    6  A    between atoms: C_12  and  C_13
REMARK    7  A    between atoms: C_13  and  C_14
REMARK    8  A    between atoms: C_13  and  N_28
REMARK    9  A    between atoms: C_13  and  C_37
REMARK   10  A    between atoms: C_14  and  C_15
REMARK   11  A    between atoms: C_18  and  C_21
REMARK   12  A    between atoms: C_21  and  P_24
REMARK   13  A    between atoms: P_24  and  O_25
REMARK   14  A    between atoms: P_24  and  O_26
REMARK                            x       y       z     vdW  Elec       q    Type
REMARK                         _______ _______ _______ _____ _____    ______ ____
ROOT
ATOM      1  C   UNL     1       7.068  -1.567  25.052  0.00  0.00    +0.099 C 
ENDROOT
BRANCH   1   2
ATOM      2  N   UNL     1       8.298  -0.778  24.771  0.00  0.00    -0.233 N 
ATOM      3  C   UNL     1       8.681  -0.054  23.653  0.00  0.00    +0.090 A 
ATOM      4  C   UNL     1       8.106   0.245  22.416  0.00  0.00    +0.029 A 
ATOM      5  C   UNL     1       8.823   1.110  21.577  0.00  0.00    +0.002 A 
ATOM      6  C   UNL     1      10.083   1.599  21.927  0.00  0.00    +0.002 A 
ATOM      7  C   UNL     1      10.665   1.265  23.146  0.00  0.00    +0.032 A 
ATOM      8  C   UNL     1       9.935   0.461  24.024  0.00  0.00    +0.113 A 
ATOM      9  N   UNL     1      10.248   0.061  25.279  0.00  0.00    -0.129 NA
ATOM     10  N   UNL     1       9.225  -0.628  25.742  0.00  0.00    -0.064 NA
ENDBRANCH   1   2
BRANCH   1  11
ATOM     11  C   UNL     1       6.788  -2.648  23.948  0.00  0.00    -0.016 A 
ATOM     12  C   UNL     1       7.580  -3.823  23.895  0.00  0.00    +0.047 A 
ATOM     13  C   UNL     1       7.366  -4.808  22.928  0.00  0.00    +0.159 A 
ATOM     14  F   UNL     1       8.150  -5.894  22.915  0.00  0.00    -0.202 F 
ATOM     15  C   UNL     1       6.360  -4.657  21.990  0.00  0.00    +0.158 A 
ATOM     16  F   UNL     1       6.146  -5.604  21.067  0.00  0.00    -0.202 F 
ATOM     17  C   UNL     1       5.578  -3.511  21.992  0.00  0.00    +0.041 A 
ATOM     18  C   UNL     1       5.800  -2.509  22.951  0.00  0.00    +0.009 A 
ENDBRANCH   1  11
BRANCH   1  19
ATOM     19  C   UNL     1       7.164  -2.285  26.466  0.00  0.00    +0.070 C 
BRANCH  19  23
ATOM     20  C   UNL     1       3.992  -5.059  27.435  0.00  0.00    +0.033 A 
ATOM     21  C   UNL     1       5.322  -5.496  27.462  0.00  0.00    +0.010 A 
ATOM     22  C   UNL     1       6.354  -4.613  27.157  0.00  0.00    +0.004 A 
ATOM     23  C   UNL     1       6.079  -3.273  26.870  0.00  0.00    -0.045 A 
ATOM     24  C   UNL     1       4.745  -2.829  26.937  0.00  0.00    +0.004 A 
ATOM     25  C   UNL     1       3.709  -3.706  27.239  0.00  0.00    +0.010 A 
BRANCH  20  26
ATOM     26  C   UNL     1       2.910  -6.070  27.186  0.00  0.00    +0.371 C 
ATOM     27  F   UNL     1       3.007  -7.233  27.883  0.00  0.00    -0.187 F 
ATOM     28  F   UNL     1       1.634  -5.622  27.309  0.00  0.00    -0.187 F 
BRANCH  26  29
ATOM     29  P   UNL     1       3.007  -6.596  25.442  0.00  0.00    +0.401 P 
ATOM     30  O   UNL     1       3.943  -5.865  24.520  0.00  0.00    -0.252 OA
BRANCH  29  31
ATOM     31  O   UNL     1       1.554  -6.641  24.754  0.00  0.00    -0.320 OA
ATOM     32  H   UNL     1       1.574  -6.162  23.904  0.00  0.00    +0.220 HD
ENDBRANCH  29  31
BRANCH  29  33
ATOM     33  O   UNL     1       3.407  -8.161  25.417  0.00  0.00    -0.320 OA
ATOM     34  H   UNL     1       2.725  -8.714  25.836  0.00  0.00    +0.220 HD
ENDBRANCH  29  33
ENDBRANCH  26  29
ENDBRANCH  20  26
ENDBRANCH  19  23
ENDBRANCH   1  19
BRANCH   1  35
ATOM     35  C   UNL     1       5.797  -0.611  25.085  0.00  0.00    +0.070 C 
BRANCH  35  36
ATOM     36  C   UNL     1       6.020   0.888  25.118  0.00  0.00    -0.045 A 
ATOM     37  C   UNL     1       6.664   1.470  26.220  0.00  0.00    +0.004 A 
ATOM     38  C   UNL     1       6.995   2.826  26.215  0.00  0.00    +0.010 A 
ATOM     39  C   UNL     1       6.694   3.625  25.107  0.00  0.00    +0.033 A 
ATOM     40  C   UNL     1       5.958   3.073  24.055  0.00  0.00    +0.010 A 
ATOM     41  C   UNL     1       5.611   1.722  24.072  0.00  0.00    +0.004 A 
BRANCH  39  42
ATOM     42  C   UNL     1       7.342   4.974  24.946  0.00  0.00    +0.371 C 
ATOM     43  F   UNL     1       8.632   5.060  25.386  0.00  0.00    -0.187 F 
ATOM     44  F   UNL     1       6.674   6.012  25.528  0.00  0.00    -0.187 F 
BRANCH  42  45
ATOM     45  P   UNL     1       7.393   5.526  23.202  0.00  0.00    +0.401 P 
ATOM     46  O   UNL     1       7.437   5.993  21.727  0.00  0.00    -0.252 OA
BRANCH  45  47
ATOM     47  O   UNL     1       8.844   4.712  23.080  0.00  0.00    -0.320 OA
ATOM     48  H   UNL     1       9.283   4.939  22.235  0.00  0.00    +0.220 HD
ENDBRANCH  45  47
BRANCH  45  49
ATOM     49  O   UNL     1       8.082   6.958  23.720  0.00  0.00    -0.320 OA
ATOM     50  H   UNL     1       8.500   6.908  24.605  0.00  0.00    +0.220 HD
ENDBRANCH  45  49
ENDBRANCH  42  45
ENDBRANCH  39  42
ENDBRANCH  35  36
ENDBRANCH   1  35
TORSDOF 14
ENDMDL
