MODEL 1
REMARK VINA RESULT:      -5.3      0.000      0.000
REMARK  Name = 
REMARK  13 active torsions:
REMARK  status: ('A' for Active; 'I' for Inactive)
REMARK    1  A    between atoms: C_2  and  O_3
REMARK    2  A    between atoms: C_4  and  O_6
REMARK    3  A    between atoms: C_7  and  C_9
REMARK    4  A    between atoms: C_9  and  O_10
REMARK    5  A    between atoms: C_12  and  O_14
REMARK    6  A    between atoms: O_14  and  C_15
REMARK    7  A    between atoms: C_15  and  C_16
REMARK    8  A    between atoms: C_16  and  C_17
REMARK    9  A    between atoms: C_17  and  C_18
REMARK   10  A    between atoms: C_18  and  C_19
REMARK   11  A    between atoms: C_19  and  C_20
REMARK   12  A    between atoms: C_20  and  C_21
REMARK   13  A    between atoms: C_22  and  O_24
REMARK                            x       y       z     vdW  Elec       q    Type
REMARK                         _______ _______ _______ _____ _____    ______ ____
ROOT
ATOM      1  C   UNL     1       8.608  -3.742  26.194  0.00  0.00    +0.179 C 
ATOM      2  C   UNL     1       8.996  -4.224  24.794  0.00  0.00    +0.201 C 
ATOM      3  C   UNL     1       7.755  -4.492  23.913  0.00  0.00    +0.282 C 
ATOM      4  O   UNL     1       6.742  -5.273  24.541  0.00  0.00    -0.341 OA
ATOM      5  C   UNL     1       6.374  -4.940  25.883  0.00  0.00    +0.178 C 
ATOM      6  C   UNL     1       7.582  -4.706  26.809  0.00  0.00    +0.177 C 
ENDROOT
BRANCH   1   7
ATOM      7  O   UNL     1       8.123  -2.402  26.186  0.00  0.00    -0.386 OA
ATOM      8  H   UNL     1       8.779  -1.849  26.657  0.00  0.00    +0.210 HD
ENDBRANCH   1   7
BRANCH   2   9
ATOM      9  O   UNL     1       9.786  -5.423  24.893  0.00  0.00    -0.384 OA
ATOM     10  H   UNL     1      10.697  -5.135  25.134  0.00  0.00    +0.210 HD
ENDBRANCH   2   9
BRANCH   6  11
ATOM     11  O   UNL     1       8.248  -5.974  27.013  0.00  0.00    -0.386 OA
ATOM     12  H   UNL     1       8.744  -5.902  27.850  0.00  0.00    +0.210 HD
ENDBRANCH   6  11
BRANCH   3  13
ATOM     13  O   UNL     1       7.250  -3.277  23.344  0.00  0.00    -0.349 OA
BRANCH  13  14
ATOM     14  C   UNL     1       8.182  -2.726  22.408  0.00  0.00    +0.163 C 
BRANCH  14  15
ATOM     15  C   UNL     1       8.312  -1.213  22.575  0.00  0.00    +0.028 C 
BRANCH  15  16
ATOM     16  C   UNL     1       9.292  -0.580  21.578  0.00  0.00    +0.002 C 
BRANCH  16  17
ATOM     17  C   UNL     1       9.072   0.936  21.470  0.00  0.00    +0.000 C 
BRANCH  17  18
ATOM     18  C   UNL     1      10.183   1.730  22.161  0.00  0.00    -0.000 C 
BRANCH  18  19
ATOM     19  C   UNL     1       9.941   1.832  23.667  0.00  0.00    -0.003 C 
ATOM     20  C   UNL     1      10.891   0.941  24.454  0.00  0.00    +0.004 C 
ENDBRANCH  18  19
ENDBRANCH  17  18
ENDBRANCH  16  17
ENDBRANCH  15  16
ENDBRANCH  14  15
ENDBRANCH  13  14
ENDBRANCH   3  13
BRANCH   5  21
ATOM     21  C   UNL     1       5.289  -3.864  25.981  0.00  0.00    +0.190 C 
BRANCH  21  22
ATOM     22  O   UNL     1       5.392  -3.223  27.257  0.00  0.00    -0.392 OA
ATOM     23  H   UNL     1       4.737  -2.504  27.275  0.00  0.00    +0.210 HD
ENDBRANCH  21  22
ENDBRANCH   5  21
TORSDOF 12
ENDMDL
MODEL 2
REMARK VINA RESULT:      -5.3      1.653      3.092
REMARK  Name = 
REMARK  13 active torsions:
REMARK  status: ('A' for Active; 'I' for Inactive)
REMARK    1  A    between atoms: C_2  and  O_3
REMARK    2  A    between atoms: C_4  and  O_6
REMARK    3  A    between atoms: C_7  and  C_9
REMARK    4  A    between atoms: C_9  and  O_10
REMARK    5  A    between atoms: C_12  and  O_14
REMARK    6  A    between atoms: O_14  and  C_15
REMARK    7  A    between atoms: C_15  and  C_16
REMARK    8  A    between atoms: C_16  and  C_17
REMARK    9  A    between atoms: C_17  and  C_18
REMARK   10  A    between atoms: C_18  and  C_19
REMARK   11  A    between atoms: C_19  and  C_20
REMARK   12  A    between atoms: C_20  and  C_21
REMARK   13  A    between atoms: C_22  and  O_24
REMARK                            x       y       z     vdW  Elec       q    Type
REMARK                         _______ _______ _______ _____ _____    ______ ____
ROOT
ATOM      1  C   UNL     1       7.409  -4.434  24.746  0.00  0.00    +0.179 C 
ATOM      2  C   UNL     1       8.686  -3.592  24.806  0.00  0.00    +0.201 C 
ATOM      3  C   UNL     1       8.677  -2.457  23.756  0.00  0.00    +0.282 C 
ATOM      4  O   UNL     1       8.310  -2.870  22.443  0.00  0.00    -0.341 OA
ATOM      5  C   UNL     1       7.172  -3.726  22.303  0.00  0.00    +0.178 C 
ATOM      6  C   UNL     1       7.161  -4.898  23.303  0.00  0.00    +0.177 C 
ENDROOT
BRANCH   1   7
ATOM      7  O   UNL     1       6.281  -3.737  25.270  0.00  0.00    -0.386 OA
ATOM      8  H   UNL     1       6.133  -4.061  26.180  0.00  0.00    +0.210 HD
ENDBRANCH   1   7
BRANCH   2   9
ATOM      9  O   UNL     1       9.835  -4.433  24.598  0.00  0.00    -0.384 OA
ATOM     10  H   UNL     1      10.589  -3.990  25.052  0.00  0.00    +0.210 HD
ENDBRANCH   2   9
BRANCH   6  11
ATOM     11  O   UNL     1       8.232  -5.804  22.950  0.00  0.00    -0.386 OA
ATOM     12  H   UNL     1       7.851  -6.702  22.940  0.00  0.00    +0.210 HD
ENDBRANCH   6  11
BRANCH   3  13
ATOM     13  O   UNL     1       7.924  -1.329  24.218  0.00  0.00    -0.349 OA
BRANCH  13  14
ATOM     14  C   UNL     1       8.746  -0.447  24.988  0.00  0.00    +0.163 C 
BRANCH  14  15
ATOM     15  C   UNL     1      10.178  -0.412  24.458  0.00  0.00    +0.028 C 
BRANCH  15  16
ATOM     16  C   UNL     1      10.779   1.001  24.443  0.00  0.00    +0.002 C 
BRANCH  16  17
ATOM     17  C   UNL     1       9.915   1.963  23.614  0.00  0.00    +0.000 C 
BRANCH  17  18
ATOM     18  C   UNL     1      10.087   1.740  22.110  0.00  0.00    -0.000 C 
BRANCH  18  19
ATOM     19  C   UNL     1       8.845   1.093  21.496  0.00  0.00    -0.003 C 
ATOM     20  C   UNL     1       7.578   1.860  21.844  0.00  0.00    +0.004 C 
ENDBRANCH  18  19
ENDBRANCH  17  18
ENDBRANCH  16  17
ENDBRANCH  15  16
ENDBRANCH  14  15
ENDBRANCH  13  14
ENDBRANCH   3  13
BRANCH   5  21
ATOM     21  C   UNL     1       5.841  -2.977  22.196  0.00  0.00    +0.190 C 
BRANCH  21  22
ATOM     22  O   UNL     1       4.776  -3.894  22.473  0.00  0.00    -0.392 OA
ATOM     23  H   UNL     1       4.249  -3.980  21.660  0.00  0.00    +0.210 HD
ENDBRANCH  21  22
ENDBRANCH   5  21
TORSDOF 12
ENDMDL
MODEL 3
REMARK VINA RESULT:      -5.2      3.279      6.711
REMARK  Name = 
REMARK  13 active torsions:
REMARK  status: ('A' for Active; 'I' for Inactive)
REMARK    1  A    between atoms: C_2  and  O_3
REMARK    2  A    between atoms: C_4  and  O_6
REMARK    3  A    between atoms: C_7  and  C_9
REMARK    4  A    between atoms: C_9  and  O_10
REMARK    5  A    between atoms: C_12  and  O_14
REMARK    6  A    between atoms: O_14  and  C_15
REMARK    7  A    between atoms: C_15  and  C_16
REMARK    8  A    between atoms: C_16  and  C_17
REMARK    9  A    between atoms: C_17  and  C_18
REMARK   10  A    between atoms: C_18  and  C_19
REMARK   11  A    between atoms: C_19  and  C_20
REMARK   12  A    between atoms: C_20  and  C_21
REMARK   13  A    between atoms: C_22  and  O_24
REMARK                            x       y       z     vdW  Elec       q    Type
REMARK                         _______ _______ _______ _____ _____    ______ ____
ROOT
ATOM      1  C   UNL     1       8.145   1.970  22.250  0.00  0.00    +0.179 C 
ATOM      2  C   UNL     1       9.530   1.359  22.020  0.00  0.00    +0.201 C 
ATOM      3  C   UNL     1      10.136   0.798  23.326  0.00  0.00    +0.282 C 
ATOM      4  O   UNL     1      10.064   1.685  24.439  0.00  0.00    -0.341 OA
ATOM      5  C   UNL     1       8.826   2.360  24.680  0.00  0.00    +0.178 C 
ATOM      6  C   UNL     1       8.206   2.974  23.411  0.00  0.00    +0.177 C 
ENDROOT
BRANCH   1   7
ATOM      7  O   UNL     1       7.150   0.974  22.475  0.00  0.00    -0.386 OA
ATOM      8  H   UNL     1       6.527   1.328  23.141  0.00  0.00    +0.210 HD
ENDBRANCH   1   7
BRANCH   2   9
ATOM      9  O   UNL     1      10.413   2.351  21.465  0.00  0.00    -0.384 OA
ATOM     10  H   UNL     1      10.723   2.901  22.222  0.00  0.00    +0.210 HD
ENDBRANCH   2   9
BRANCH   6  11
ATOM     11  O   UNL     1       9.042   4.076  22.986  0.00  0.00    -0.386 OA
ATOM     12  H   UNL     1       8.523   4.592  22.342  0.00  0.00    +0.210 HD
ENDBRANCH   6  11
BRANCH   3  13
ATOM     13  O   UNL     1       9.621  -0.507  23.618  0.00  0.00    -0.349 OA
BRANCH  13  14
ATOM     14  C   UNL     1       9.829  -1.396  22.517  0.00  0.00    +0.163 C 
BRANCH  14  15
ATOM     15  C   UNL     1       8.582  -2.231  22.230  0.00  0.00    +0.028 C 
BRANCH  15  16
ATOM     16  C   UNL     1       7.849  -2.673  23.505  0.00  0.00    +0.002 C 
BRANCH  16  17
ATOM     17  C   UNL     1       8.089  -4.163  23.794  0.00  0.00    +0.000 C 
BRANCH  17  18
ATOM     18  C   UNL     1       6.939  -5.039  23.292  0.00  0.00    -0.000 C 
BRANCH  18  19
ATOM     19  C   UNL     1       7.328  -5.796  22.022  0.00  0.00    -0.003 C 
ATOM     20  C   UNL     1       6.240  -5.717  20.961  0.00  0.00    +0.004 C 
ENDBRANCH  18  19
ENDBRANCH  17  18
ENDBRANCH  16  17
ENDBRANCH  15  16
ENDBRANCH  14  15
ENDBRANCH  13  14
ENDBRANCH   3  13
BRANCH   5  21
ATOM     21  C   UNL     1       7.841   1.563  25.540  0.00  0.00    +0.190 C 
BRANCH  21  22
ATOM     22  O   UNL     1       8.562   0.538  26.233  0.00  0.00    -0.392 OA
ATOM     23  H   UNL     1       8.013   0.255  26.985  0.00  0.00    +0.210 HD
ENDBRANCH  21  22
ENDBRANCH   5  21
TORSDOF 12
ENDMDL
MODEL 4
REMARK VINA RESULT:      -5.2      1.414      3.030
REMARK  Name = 
REMARK  13 active torsions:
REMARK  status: ('A' for Active; 'I' for Inactive)
REMARK    1  A    between atoms: C_2  and  O_3
REMARK    2  A    between atoms: C_4  and  O_6
REMARK    3  A    between atoms: C_7  and  C_9
REMARK    4  A    between atoms: C_9  and  O_10
REMARK    5  A    between atoms: C_12  and  O_14
REMARK    6  A    between atoms: O_14  and  C_15
REMARK    7  A    between atoms: C_15  and  C_16
REMARK    8  A    between atoms: C_16  and  C_17
REMARK    9  A    between atoms: C_17  and  C_18
REMARK   10  A    between atoms: C_18  and  C_19
REMARK   11  A    between atoms: C_19  and  C_20
REMARK   12  A    between atoms: C_20  and  C_21
REMARK   13  A    between atoms: C_22  and  O_24
REMARK                            x       y       z     vdW  Elec       q    Type
REMARK                         _______ _______ _______ _____ _____    ______ ____
ROOT
ATOM      1  C   UNL     1       7.539  -5.157  23.508  0.00  0.00    +0.179 C 
ATOM      2  C   UNL     1       7.644  -3.762  22.886  0.00  0.00    +0.201 C 
ATOM      3  C   UNL     1       8.005  -2.688  23.938  0.00  0.00    +0.282 C 
ATOM      4  O   UNL     1       7.223  -2.741  25.128  0.00  0.00    -0.341 OA
ATOM      5  C   UNL     1       7.009  -4.019  25.733  0.00  0.00    +0.178 C 
ATOM      6  C   UNL     1       6.604  -5.113  24.726  0.00  0.00    +0.177 C 
ENDROOT
BRANCH   1   7
ATOM      7  O   UNL     1       8.816  -5.689  23.852  0.00  0.00    -0.386 OA
ATOM      8  H   UNL     1       8.726  -6.128  24.721  0.00  0.00    +0.210 HD
ENDBRANCH   1   7
BRANCH   2   9
ATOM      9  O   UNL     1       6.399  -3.417  22.251  0.00  0.00    -0.384 OA
ATOM     10  H   UNL     1       6.625  -3.134  21.334  0.00  0.00    +0.210 HD
ENDBRANCH   2   9
BRANCH   6  11
ATOM     11  O   UNL     1       5.275  -4.811  24.240  0.00  0.00    -0.386 OA
ATOM     12  H   UNL     1       4.871  -5.659  23.976  0.00  0.00    +0.210 HD
ENDBRANCH   6  11
BRANCH   3  13
ATOM     13  O   UNL     1       9.414  -2.667  24.196  0.00  0.00    -0.349 OA
BRANCH  13  14
ATOM     14  C   UNL     1      10.005  -1.459  23.708  0.00  0.00    +0.163 C 
BRANCH  14  15
ATOM     15  C   UNL     1      10.018  -0.371  24.780  0.00  0.00    +0.028 C 
BRANCH  15  16
ATOM     16  C   UNL     1      10.782   0.888  24.350  0.00  0.00    +0.002 C 
BRANCH  16  17
ATOM     17  C   UNL     1       9.860   1.872  23.615  0.00  0.00    +0.000 C 
BRANCH  17  18
ATOM     18  C   UNL     1      10.005   1.771  22.094  0.00  0.00    -0.000 C 
BRANCH  18  19
ATOM     19  C   UNL     1       8.664   1.475  21.425  0.00  0.00    -0.003 C 
ATOM     20  C   UNL     1       7.572   1.192  22.447  0.00  0.00    +0.004 C 
ENDBRANCH  18  19
ENDBRANCH  17  18
ENDBRANCH  16  17
ENDBRANCH  15  16
ENDBRANCH  14  15
ENDBRANCH  13  14
ENDBRANCH   3  13
BRANCH   5  21
ATOM     21  C   UNL     1       8.112  -4.439  26.708  0.00  0.00    +0.190 C 
BRANCH  21  22
ATOM     22  O   UNL     1       8.089  -5.864  26.841  0.00  0.00    -0.392 OA
ATOM     23  H   UNL     1       9.009  -6.176  26.784  0.00  0.00    +0.210 HD
ENDBRANCH  21  22
ENDBRANCH   5  21
TORSDOF 12
ENDMDL
MODEL 5
REMARK VINA RESULT:      -5.1      3.090      6.616
REMARK  Name = 
REMARK  13 active torsions:
REMARK  status: ('A' for Active; 'I' for Inactive)
REMARK    1  A    between atoms: C_2  and  O_3
REMARK    2  A    between atoms: C_4  and  O_6
REMARK    3  A    between atoms: C_7  and  C_9
REMARK    4  A    between atoms: C_9  and  O_10
REMARK    5  A    between atoms: C_12  and  O_14
REMARK    6  A    between atoms: O_14  and  C_15
REMARK    7  A    between atoms: C_15  and  C_16
REMARK    8  A    between atoms: C_16  and  C_17
REMARK    9  A    between atoms: C_17  and  C_18
REMARK   10  A    between atoms: C_18  and  C_19
REMARK   11  A    between atoms: C_19  and  C_20
REMARK   12  A    between atoms: C_20  and  C_21
REMARK   13  A    between atoms: C_22  and  O_24
REMARK                            x       y       z     vdW  Elec       q    Type
REMARK                         _______ _______ _______ _____ _____    ______ ____
ROOT
ATOM      1  C   UNL     1      10.217   1.169  23.712  0.00  0.00    +0.179 C 
ATOM      2  C   UNL     1       8.905   1.743  24.255  0.00  0.00    +0.201 C 
ATOM      3  C   UNL     1       7.680   0.935  23.772  0.00  0.00    +0.282 C 
ATOM      4  O   UNL     1       7.666   0.663  22.373  0.00  0.00    -0.341 OA
ATOM      5  C   UNL     1       8.875   0.198  21.768  0.00  0.00    +0.178 C 
ATOM      6  C   UNL     1      10.120   1.003  22.188  0.00  0.00    +0.177 C 
ENDROOT
BRANCH   1   7
ATOM      7  O   UNL     1      10.571  -0.057  24.348  0.00  0.00    -0.386 OA
ATOM      8  H   UNL     1      10.847  -0.681  23.647  0.00  0.00    +0.210 HD
ENDBRANCH   1   7
BRANCH   2   9
ATOM      9  O   UNL     1       8.770   3.117  23.847  0.00  0.00    -0.384 OA
ATOM     10  H   UNL     1       8.320   3.583  24.590  0.00  0.00    +0.210 HD
ENDBRANCH   2   9
BRANCH   6  11
ATOM     11  O   UNL     1      10.017   2.327  21.614  0.00  0.00    -0.386 OA
ATOM     12  H   UNL     1       9.434   2.253  20.835  0.00  0.00    +0.210 HD
ENDBRANCH   6  11
BRANCH   3  13
ATOM     13  O   UNL     1       7.485  -0.239  24.571  0.00  0.00    -0.349 OA
BRANCH  13  14
ATOM     14  C   UNL     1       6.149  -0.733  24.434  0.00  0.00    +0.163 C 
BRANCH  14  15
ATOM     15  C   UNL     1       6.137  -2.177  23.934  0.00  0.00    +0.028 C 
BRANCH  15  16
ATOM     16  C   UNL     1       7.097  -3.089  24.709  0.00  0.00    +0.002 C 
BRANCH  16  17
ATOM     17  C   UNL     1       7.741  -4.131  23.782  0.00  0.00    +0.000 C 
BRANCH  17  18
ATOM     18  C   UNL     1       6.759  -5.236  23.387  0.00  0.00    -0.000 C 
BRANCH  18  19
ATOM     19  C   UNL     1       7.207  -5.950  22.112  0.00  0.00    -0.003 C 
ATOM     20  C   UNL     1       6.233  -5.722  20.964  0.00  0.00    +0.004 C 
ENDBRANCH  18  19
ENDBRANCH  17  18
ENDBRANCH  16  17
ENDBRANCH  15  16
ENDBRANCH  14  15
ENDBRANCH  13  14
ENDBRANCH   3  13
BRANCH   5  21
ATOM     21  C   UNL     1       9.058  -1.321  21.832  0.00  0.00    +0.190 C 
BRANCH  21  22
ATOM     22  O   UNL     1      10.452  -1.622  21.704  0.00  0.00    -0.392 OA
ATOM     23  H   UNL     1      10.797  -1.786  22.600  0.00  0.00    +0.210 HD
ENDBRANCH  21  22
ENDBRANCH   5  21
TORSDOF 12
ENDMDL
MODEL 6
REMARK VINA RESULT:      -5.0      1.352      2.463
REMARK  Name = 
REMARK  13 active torsions:
REMARK  status: ('A' for Active; 'I' for Inactive)
REMARK    1  A    between atoms: C_2  and  O_3
REMARK    2  A    between atoms: C_4  and  O_6
REMARK    3  A    between atoms: C_7  and  C_9
REMARK    4  A    between atoms: C_9  and  O_10
REMARK    5  A    between atoms: C_12  and  O_14
REMARK    6  A    between atoms: O_14  and  C_15
REMARK    7  A    between atoms: C_15  and  C_16
REMARK    8  A    between atoms: C_16  and  C_17
REMARK    9  A    between atoms: C_17  and  C_18
REMARK   10  A    between atoms: C_18  and  C_19
REMARK   11  A    between atoms: C_19  and  C_20
REMARK   12  A    between atoms: C_20  and  C_21
REMARK   13  A    between atoms: C_22  and  O_24
REMARK                            x       y       z     vdW  Elec       q    Type
REMARK                         _______ _______ _______ _____ _____    ______ ____
ROOT
ATOM      1  C   UNL     1       6.364  -4.218  26.838  0.00  0.00    +0.179 C 
ATOM      2  C   UNL     1       7.862  -4.530  26.895  0.00  0.00    +0.201 C 
ATOM      3  C   UNL     1       8.532  -4.391  25.509  0.00  0.00    +0.282 C 
ATOM      4  O   UNL     1       7.837  -5.044  24.449  0.00  0.00    -0.341 OA
ATOM      5  C   UNL     1       6.420  -4.870  24.369  0.00  0.00    +0.178 C 
ATOM      6  C   UNL     1       5.704  -5.042  25.723  0.00  0.00    +0.177 C 
ENDROOT
BRANCH   1   7
ATOM      7  O   UNL     1       6.111  -2.825  26.674  0.00  0.00    -0.386 OA
ATOM      8  H   UNL     1       6.778  -2.477  26.049  0.00  0.00    +0.210 HD
ENDBRANCH   1   7
BRANCH   2   9
ATOM      9  O   UNL     1       8.063  -5.863  27.398  0.00  0.00    -0.384 OA
ATOM     10  H   UNL     1       8.150  -6.447  26.608  0.00  0.00    +0.210 HD
ENDBRANCH   2   9
BRANCH   6  11
ATOM     11  O   UNL     1       5.789  -6.435  26.106  0.00  0.00    -0.386 OA
ATOM     12  H   UNL     1       5.473  -6.957  25.345  0.00  0.00    +0.210 HD
ENDBRANCH   6  11
BRANCH   3  13
ATOM     13  O   UNL     1       8.838  -3.023  25.215  0.00  0.00    -0.349 OA
BRANCH  13  14
ATOM     14  C   UNL     1       9.771  -2.929  24.134  0.00  0.00    +0.163 C 
BRANCH  14  15
ATOM     15  C   UNL     1       9.826  -1.512  23.565  0.00  0.00    +0.028 C 
BRANCH  15  16
ATOM     16  C   UNL     1       9.895  -0.430  24.652  0.00  0.00    +0.002 C 
BRANCH  16  17
ATOM     17  C   UNL     1      10.884   0.680  24.267  0.00  0.00    +0.000 C 
BRANCH  17  18
ATOM     18  C   UNL     1      10.178   1.898  23.667  0.00  0.00    -0.000 C 
BRANCH  18  19
ATOM     19  C   UNL     1      10.122   1.813  22.141  0.00  0.00    -0.003 C 
ATOM     20  C   UNL     1       8.709   1.543  21.642  0.00  0.00    +0.004 C 
ENDBRANCH  18  19
ENDBRANCH  17  18
ENDBRANCH  16  17
ENDBRANCH  15  16
ENDBRANCH  14  15
ENDBRANCH  13  14
ENDBRANCH   3  13
BRANCH   5  21
ATOM     21  C   UNL     1       5.989  -3.629  23.583  0.00  0.00    +0.190 C 
BRANCH  21  22
ATOM     22  O   UNL     1       4.662  -3.270  23.983  0.00  0.00    -0.392 OA
ATOM     23  H   UNL     1       4.119  -4.077  23.944  0.00  0.00    +0.210 HD
ENDBRANCH  21  22
ENDBRANCH   5  21
TORSDOF 12
ENDMDL
MODEL 7
REMARK VINA RESULT:      -5.0      2.740      6.330
REMARK  Name = 
REMARK  13 active torsions:
REMARK  status: ('A' for Active; 'I' for Inactive)
REMARK    1  A    between atoms: C_2  and  O_3
REMARK    2  A    between atoms: C_4  and  O_6
REMARK    3  A    between atoms: C_7  and  C_9
REMARK    4  A    between atoms: C_9  and  O_10
REMARK    5  A    between atoms: C_12  and  O_14
REMARK    6  A    between atoms: O_14  and  C_15
REMARK    7  A    between atoms: C_15  and  C_16
REMARK    8  A    between atoms: C_16  and  C_17
REMARK    9  A    between atoms: C_17  and  C_18
REMARK   10  A    between atoms: C_18  and  C_19
REMARK   11  A    between atoms: C_19  and  C_20
REMARK   12  A    between atoms: C_20  and  C_21
REMARK   13  A    between atoms: C_22  and  O_24
REMARK                            x       y       z     vdW  Elec       q    Type
REMARK                         _______ _______ _______ _____ _____    ______ ____
ROOT
ATOM      1  C   UNL     1       7.969   0.782  21.979  0.00  0.00    +0.179 C 
ATOM      2  C   UNL     1       8.729  -0.534  22.165  0.00  0.00    +0.201 C 
ATOM      3  C   UNL     1       9.241  -0.704  23.613  0.00  0.00    +0.282 C 
ATOM      4  O   UNL     1       9.912   0.438  24.140  0.00  0.00    -0.341 OA
ATOM      5  C   UNL     1       9.310   1.720  23.941  0.00  0.00    +0.178 C 
ATOM      6  C   UNL     1       8.822   1.951  22.498  0.00  0.00    +0.177 C 
ENDROOT
BRANCH   1   7
ATOM      7  O   UNL     1       6.688   0.757  22.602  0.00  0.00    -0.386 OA
ATOM      8  H   UNL     1       6.638  -0.061  23.136  0.00  0.00    +0.210 HD
ENDBRANCH   1   7
BRANCH   2   9
ATOM      9  O   UNL     1       9.838  -0.590  21.250  0.00  0.00    -0.384 OA
ATOM     10  H   UNL     1      10.443   0.147  21.503  0.00  0.00    +0.210 HD
ENDBRANCH   2   9
BRANCH   6  11
ATOM     11  O   UNL     1       9.982   2.055  21.639  0.00  0.00    -0.386 OA
ATOM     12  H   UNL     1      10.402   1.174  21.625  0.00  0.00    +0.210 HD
ENDBRANCH   6  11
BRANCH   3  13
ATOM     13  O   UNL     1       8.206  -1.191  24.476  0.00  0.00    -0.349 OA
BRANCH  13  14
ATOM     14  C   UNL     1       8.681  -2.270  25.285  0.00  0.00    +0.163 C 
BRANCH  14  15
ATOM     15  C   UNL     1       9.382  -3.334  24.442  0.00  0.00    +0.028 C 
BRANCH  15  16
ATOM     16  C   UNL     1       8.667  -4.692  24.472  0.00  0.00    +0.002 C 
BRANCH  16  17
ATOM     17  C   UNL     1       7.143  -4.515  24.547  0.00  0.00    +0.000 C 
BRANCH  17  18
ATOM     18  C   UNL     1       6.503  -4.441  23.158  0.00  0.00    -0.000 C 
BRANCH  18  19
ATOM     19  C   UNL     1       7.154  -5.429  22.191  0.00  0.00    -0.003 C 
ATOM     20  C   UNL     1       6.198  -5.848  21.083  0.00  0.00    +0.004 C 
ENDBRANCH  18  19
ENDBRANCH  17  18
ENDBRANCH  16  17
ENDBRANCH  15  16
ENDBRANCH  14  15
ENDBRANCH  13  14
ENDBRANCH   3  13
BRANCH   5  21
ATOM     21  C   UNL     1       8.291   2.103  25.018  0.00  0.00    +0.190 C 
BRANCH  21  22
ATOM     22  O   UNL     1       8.453   1.222  26.136  0.00  0.00    -0.392 OA
ATOM     23  H   UNL     1       7.697   0.609  26.134  0.00  0.00    +0.210 HD
ENDBRANCH  21  22
ENDBRANCH   5  21
TORSDOF 12
ENDMDL
MODEL 8
REMARK VINA RESULT:      -4.9      2.449      5.854
REMARK  Name = 
REMARK  13 active torsions:
REMARK  status: ('A' for Active; 'I' for Inactive)
REMARK    1  A    between atoms: C_2  and  O_3
REMARK    2  A    between atoms: C_4  and  O_6
REMARK    3  A    between atoms: C_7  and  C_9
REMARK    4  A    between atoms: C_9  and  O_10
REMARK    5  A    between atoms: C_12  and  O_14
REMARK    6  A    between atoms: O_14  and  C_15
REMARK    7  A    between atoms: C_15  and  C_16
REMARK    8  A    between atoms: C_16  and  C_17
REMARK    9  A    between atoms: C_17  and  C_18
REMARK   10  A    between atoms: C_18  and  C_19
REMARK   11  A    between atoms: C_19  and  C_20
REMARK   12  A    between atoms: C_20  and  C_21
REMARK   13  A    between atoms: C_22  and  O_24
REMARK                            x       y       z     vdW  Elec       q    Type
REMARK                         _______ _______ _______ _____ _____    ______ ____
ROOT
ATOM      1  C   UNL     1      10.297  -1.519  22.857  0.00  0.00    +0.179 C 
ATOM      2  C   UNL     1       9.226  -2.341  23.578  0.00  0.00    +0.201 C 
ATOM      3  C   UNL     1       7.830  -1.687  23.473  0.00  0.00    +0.282 C 
ATOM      4  O   UNL     1       7.805  -0.296  23.779  0.00  0.00    -0.341 OA
ATOM      5  C   UNL     1       8.820   0.535  23.209  0.00  0.00    +0.178 C 
ATOM      6  C   UNL     1      10.237  -0.058  23.330  0.00  0.00    +0.177 C 
ENDROOT
BRANCH   1   7
ATOM      7  O   UNL     1      10.182  -1.611  21.439  0.00  0.00    -0.386 OA
ATOM      8  H   UNL     1      10.578  -0.802  21.059  0.00  0.00    +0.210 HD
ENDBRANCH   1   7
BRANCH   2   9
ATOM      9  O   UNL     1       9.583  -2.497  24.963  0.00  0.00    -0.384 OA
ATOM     10  H   UNL     1      10.228  -1.779  25.166  0.00  0.00    +0.210 HD
ENDBRANCH   2   9
BRANCH   6  11
ATOM     11  O   UNL     1      10.617  -0.040  24.726  0.00  0.00    -0.386 OA
ATOM     12  H   UNL     1      11.379   0.566  24.803  0.00  0.00    +0.210 HD
ENDBRANCH   6  11
BRANCH   3  13
ATOM     13  O   UNL     1       7.207  -1.994  22.219  0.00  0.00    -0.349 OA
BRANCH  13  14
ATOM     14  C   UNL     1       6.215  -3.013  22.378  0.00  0.00    +0.163 C 
BRANCH  14  15
ATOM     15  C   UNL     1       6.711  -4.360  21.855  0.00  0.00    +0.028 C 
BRANCH  15  16
ATOM     16  C   UNL     1       6.493  -5.508  22.850  0.00  0.00    +0.002 C 
BRANCH  16  17
ATOM     17  C   UNL     1       5.453  -5.129  23.915  0.00  0.00    +0.000 C 
BRANCH  17  18
ATOM     18  C   UNL     1       5.896  -5.534  25.323  0.00  0.00    -0.000 C 
BRANCH  18  19
ATOM     19  C   UNL     1       6.854  -4.506  25.924  0.00  0.00    -0.003 C 
ATOM     20  C   UNL     1       7.947  -5.167  26.751  0.00  0.00    +0.004 C 
ENDBRANCH  18  19
ENDBRANCH  17  18
ENDBRANCH  16  17
ENDBRANCH  15  16
ENDBRANCH  14  15
ENDBRANCH  13  14
ENDBRANCH   3  13
BRANCH   5  21
ATOM     21  C   UNL     1       8.478   1.067  21.814  0.00  0.00    +0.190 C 
BRANCH  21  22
ATOM     22  O   UNL     1       9.548   1.907  21.368  0.00  0.00    -0.392 OA
ATOM     23  H   UNL     1      10.274   1.816  22.009  0.00  0.00    +0.210 HD
ENDBRANCH  21  22
ENDBRANCH   5  21
TORSDOF 12
ENDMDL
MODEL 9
REMARK VINA RESULT:      -4.9      3.242      6.626
REMARK  Name = 
REMARK  13 active torsions:
REMARK  status: ('A' for Active; 'I' for Inactive)
REMARK    1  A    between atoms: C_2  and  O_3
REMARK    2  A    between atoms: C_4  and  O_6
REMARK    3  A    between atoms: C_7  and  C_9
REMARK    4  A    between atoms: C_9  and  O_10
REMARK    5  A    between atoms: C_12  and  O_14
REMARK    6  A    between atoms: O_14  and  C_15
REMARK    7  A    between atoms: C_15  and  C_16
REMARK    8  A    between atoms: C_16  and  C_17
REMARK    9  A    between atoms: C_17  and  C_18
REMARK   10  A    between atoms: C_18  and  C_19
REMARK   11  A    between atoms: C_19  and  C_20
REMARK   12  A    between atoms: C_20  and  C_21
REMARK   13  A    between atoms: C_22  and  O_24
REMARK                            x       y       z     vdW  Elec       q    Type
REMARK                         _______ _______ _______ _____ _____    ______ ____
ROOT
ATOM      1  C   UNL     1       8.042   1.695  22.157  0.00  0.00    +0.179 C 
ATOM      2  C   UNL     1       9.520   1.298  22.181  0.00  0.00    +0.201 C 
ATOM      3  C   UNL     1      10.047   1.125  23.623  0.00  0.00    +0.282 C 
ATOM      4  O   UNL     1       9.714   2.194  24.505  0.00  0.00    -0.341 OA
ATOM      5  C   UNL     1       8.370   2.681  24.490  0.00  0.00    +0.178 C 
ATOM      6  C   UNL     1       7.816   2.909  23.070  0.00  0.00    +0.177 C 
ENDROOT
BRANCH   1   7
ATOM      7  O   UNL     1       7.188   0.611  22.513  0.00  0.00    -0.386 OA
ATOM      8  H   UNL     1       7.749  -0.089  22.903  0.00  0.00    +0.210 HD
ENDBRANCH   1   7
BRANCH   2   9
ATOM      9  O   UNL     1      10.303   2.292  21.496  0.00  0.00    -0.384 OA
ATOM     10  H   UNL     1       9.687   2.751  20.877  0.00  0.00    +0.210 HD
ENDBRANCH   2   9
BRANCH   6  11
ATOM     11  O   UNL     1       8.522   4.029  22.484  0.00  0.00    -0.386 OA
ATOM     12  H   UNL     1       8.288   4.817  23.010  0.00  0.00    +0.210 HD
ENDBRANCH   6  11
BRANCH   3  13
ATOM     13  O   UNL     1       9.703  -0.162  24.151  0.00  0.00    -0.349 OA
BRANCH  13  14
ATOM     14  C   UNL     1      10.181  -1.207  23.299  0.00  0.00    +0.163 C 
BRANCH  14  15
ATOM     15  C   UNL     1       9.602  -2.563  23.701  0.00  0.00    +0.028 C 
BRANCH  15  16
ATOM     16  C   UNL     1       8.108  -2.698  23.375  0.00  0.00    +0.002 C 
BRANCH  16  17
ATOM     17  C   UNL     1       7.722  -4.166  23.141  0.00  0.00    +0.000 C 
BRANCH  17  18
ATOM     18  C   UNL     1       8.216  -5.078  24.267  0.00  0.00    -0.000 C 
BRANCH  18  19
ATOM     19  C   UNL     1       7.247  -5.080  25.449  0.00  0.00    -0.003 C 
ATOM     20  C   UNL     1       7.981  -5.082  26.782  0.00  0.00    +0.004 C 
ENDBRANCH  18  19
ENDBRANCH  17  18
ENDBRANCH  16  17
ENDBRANCH  15  16
ENDBRANCH  14  15
ENDBRANCH  13  14
ENDBRANCH   3  13
BRANCH   5  21
ATOM     21  C   UNL     1       7.422   1.919  25.420  0.00  0.00    +0.190 C 
BRANCH  21  22
ATOM     22  O   UNL     1       8.202   1.189  26.373  0.00  0.00    -0.392 OA
ATOM     23  H   UNL     1       8.709   1.839  26.891  0.00  0.00    +0.210 HD
ENDBRANCH  21  22
ENDBRANCH   5  21
TORSDOF 12
ENDMDL
