MODEL 1
REMARK VINA RESULT:      -5.0      0.000      0.000
REMARK  Name = 
REMARK  13 active torsions:
REMARK  status: ('A' for Active; 'I' for Inactive)
REMARK    1  A    between atoms: C_1  and  C_2
REMARK    2  A    between atoms: C_2  and  O_4
REMARK    3  A    between atoms: O_4  and  C_5
REMARK    4  A    between atoms: C_5  and  C_6
REMARK    5  A    between atoms: C_6  and  O_8
REMARK    6  A    between atoms: C_6  and  C_9
REMARK    7  A    between atoms: C_9  and  O_10
REMARK    8  A    between atoms: O_10  and  P_11
REMARK    9  A    between atoms: P_11  and  O_12
REMARK   10  A    between atoms: P_11  and  O_14
REMARK   11  A    between atoms: O_14  and  C_15
REMARK   12  A    between atoms: C_15  and  C_16
REMARK   13  A    between atoms: C_16  and  N_17
REMARK                            x       y       z     vdW  Elec       q    Type
REMARK                         _______ _______ _______ _____ _____    ______ ____
ROOT
ATOM      1  P   UNL     1       9.570  -1.386  22.968  0.00  0.00    +0.475 P 
ATOM      2  O   UNL     1      10.188  -0.704  24.151  0.00  0.00    -0.227 OA
ENDROOT
BRANCH   1   3
ATOM      3  O   UNL     1      10.579  -1.710  21.780  0.00  0.00    -0.302 OA
ATOM      4  H   UNL     1      10.124  -1.858  20.927  0.00  0.00    +0.222 HD
ENDBRANCH   1   3
BRANCH   1   5
ATOM      5  O   UNL     1       8.840  -2.770  23.285  0.00  0.00    -0.284 OA
BRANCH   5   6
ATOM      6  C   UNL     1       9.093  -3.450  24.515  0.00  0.00    +0.207 C 
BRANCH   6   7
ATOM      7  C   UNL     1       8.575  -4.876  24.337  0.00  0.00    +0.178 C 
BRANCH   7   8
ATOM      8  O   UNL     1       9.668  -5.777  24.625  0.00  0.00    -0.386 OA
ATOM      9  H   UNL     1      10.469  -5.303  24.340  0.00  0.00    +0.210 HD
ENDBRANCH   7   8
BRANCH   7  10
ATOM     10  C   UNL     1       7.380  -5.195  25.245  0.00  0.00    +0.265 C 
BRANCH  10  11
ATOM     11  O   UNL     1       7.836  -5.720  26.509  0.00  0.00    -0.462 OA
BRANCH  11  13
ATOM     12  C   UNL     1       6.215  -4.249  27.378  0.00  0.00    +0.136 C 
ATOM     13  C   UNL     1       6.984  -5.522  27.552  0.00  0.00    +0.304 C 
ATOM     14  O   UNL     1       6.895  -6.260  28.529  0.00  0.00    -0.251 OA
ENDBRANCH  11  13
ENDBRANCH  10  11
ENDBRANCH   7  10
ENDBRANCH   6   7
ENDBRANCH   5   6
ENDBRANCH   1   5
BRANCH   1  15
ATOM     15  O   UNL     1       8.441  -0.446  22.325  0.00  0.00    -0.281 OA
BRANCH  15  16
ATOM     16  C   UNL     1       8.230   0.865  22.852  0.00  0.00    +0.223 C 
BRANCH  16  17
ATOM     17  C   UNL     1       8.476   2.010  21.860  0.00  0.00    +0.156 C 
BRANCH  17  18
ATOM     18  N   UNL     1       9.932   2.150  21.602  0.00  0.00    +0.220 N 
ATOM     19  H   UNL     1      10.255   1.478  20.891  0.00  0.00    +0.199 HD
ATOM     20  H   UNL     1      10.502   2.024  22.447  0.00  0.00    +0.199 HD
ATOM     21  H   UNL     1      10.136   3.086  21.200  0.00  0.00    +0.199 HD
ENDBRANCH  17  18
ENDBRANCH  16  17
ENDBRANCH  15  16
ENDBRANCH   1  15
TORSDOF 12
ENDMDL
MODEL 2
REMARK VINA RESULT:      -4.9      3.311      6.423
REMARK  Name = 
REMARK  13 active torsions:
REMARK  status: ('A' for Active; 'I' for Inactive)
REMARK    1  A    between atoms: C_1  and  C_2
REMARK    2  A    between atoms: C_2  and  O_4
REMARK    3  A    between atoms: O_4  and  C_5
REMARK    4  A    between atoms: C_5  and  C_6
REMARK    5  A    between atoms: C_6  and  O_8
REMARK    6  A    between atoms: C_6  and  C_9
REMARK    7  A    between atoms: C_9  and  O_10
REMARK    8  A    between atoms: O_10  and  P_11
REMARK    9  A    between atoms: P_11  and  O_12
REMARK   10  A    between atoms: P_11  and  O_14
REMARK   11  A    between atoms: O_14  and  C_15
REMARK   12  A    between atoms: C_15  and  C_16
REMARK   13  A    between atoms: C_16  and  N_17
REMARK                            x       y       z     vdW  Elec       q    Type
REMARK                         _______ _______ _______ _____ _____    ______ ____
ROOT
ATOM      1  P   UNL     1       7.538  -4.500  23.782  0.00  0.00    +0.475 P 
ATOM      2  O   UNL     1       6.363  -5.414  23.606  0.00  0.00    -0.227 OA
ENDROOT
BRANCH   1   3
ATOM      3  O   UNL     1       8.890  -5.223  24.211  0.00  0.00    -0.302 OA
ATOM      4  H   UNL     1       9.553  -5.243  23.493  0.00  0.00    +0.222 HD
ENDBRANCH   1   3
BRANCH   1   5
ATOM      5  O   UNL     1       7.920  -3.629  22.500  0.00  0.00    -0.284 OA
BRANCH   5   6
ATOM      6  C   UNL     1       8.160  -2.227  22.630  0.00  0.00    +0.207 C 
BRANCH   6   7
ATOM      7  C   UNL     1       9.664  -2.061  22.837  0.00  0.00    +0.178 C 
BRANCH   7   8
ATOM      8  O   UNL     1      10.232  -1.622  21.583  0.00  0.00    -0.386 OA
ATOM      9  H   UNL     1      10.573  -2.430  21.162  0.00  0.00    +0.210 HD
ENDBRANCH   7   8
BRANCH   7  10
ATOM     10  C   UNL     1      10.007  -1.060  23.948  0.00  0.00    +0.265 C 
BRANCH  10  11
ATOM     11  O   UNL     1      10.755   0.051  23.408  0.00  0.00    -0.462 OA
BRANCH  11  13
ATOM     12  C   UNL     1      10.041   1.939  22.194  0.00  0.00    +0.136 C 
ATOM     13  C   UNL     1      10.146   1.263  23.527  0.00  0.00    +0.304 C 
ATOM     14  O   UNL     1       9.778   1.757  24.588  0.00  0.00    -0.251 OA
ENDBRANCH  11  13
ENDBRANCH  10  11
ENDBRANCH   7  10
ENDBRANCH   6   7
ENDBRANCH   5   6
ENDBRANCH   1   5
BRANCH   1  15
ATOM     15  O   UNL     1       7.235  -3.438  24.944  0.00  0.00    -0.281 OA
BRANCH  15  16
ATOM     16  C   UNL     1       7.799  -3.632  26.243  0.00  0.00    +0.223 C 
BRANCH  16  17
ATOM     17  C   UNL     1       7.072  -4.663  27.118  0.00  0.00    +0.156 C 
BRANCH  17  18
ATOM     18  N   UNL     1       7.860  -5.920  27.178  0.00  0.00    +0.220 N 
ATOM     19  H   UNL     1       8.593  -5.941  26.455  0.00  0.00    +0.199 HD
ATOM     20  H   UNL     1       7.280  -6.761  27.074  0.00  0.00    +0.199 HD
ATOM     21  H   UNL     1       8.371  -5.979  28.081  0.00  0.00    +0.199 HD
ENDBRANCH  17  18
ENDBRANCH  16  17
ENDBRANCH  15  16
ENDBRANCH   1  15
TORSDOF 12
ENDMDL
MODEL 3
REMARK VINA RESULT:      -4.9      1.948      2.678
REMARK  Name = 
REMARK  13 active torsions:
REMARK  status: ('A' for Active; 'I' for Inactive)
REMARK    1  A    between atoms: C_1  and  C_2
REMARK    2  A    between atoms: C_2  and  O_4
REMARK    3  A    between atoms: O_4  and  C_5
REMARK    4  A    between atoms: C_5  and  C_6
REMARK    5  A    between atoms: C_6  and  O_8
REMARK    6  A    between atoms: C_6  and  C_9
REMARK    7  A    between atoms: C_9  and  O_10
REMARK    8  A    between atoms: O_10  and  P_11
REMARK    9  A    between atoms: P_11  and  O_12
REMARK   10  A    between atoms: P_11  and  O_14
REMARK   11  A    between atoms: O_14  and  C_15
REMARK   12  A    between atoms: C_15  and  C_16
REMARK   13  A    between atoms: C_16  and  N_17
REMARK                            x       y       z     vdW  Elec       q    Type
REMARK                         _______ _______ _______ _____ _____    ______ ____
ROOT
ATOM      1  P   UNL     1       9.422  -1.601  22.746  0.00  0.00    +0.475 P 
ATOM      2  O   UNL     1      10.153  -2.342  23.824  0.00  0.00    -0.227 OA
ENDROOT
BRANCH   1   3
ATOM      3  O   UNL     1      10.245  -1.397  21.399  0.00  0.00    -0.302 OA
ATOM      4  H   UNL     1       9.804  -1.796  20.622  0.00  0.00    +0.222 HD
ENDBRANCH   1   3
BRANCH   1   5
ATOM      5  O   UNL     1       8.035  -2.251  22.294  0.00  0.00    -0.284 OA
BRANCH   5   6
ATOM      6  C   UNL     1       6.863  -2.065  23.088  0.00  0.00    +0.207 C 
BRANCH   6   7
ATOM      7  C   UNL     1       6.075  -3.372  23.010  0.00  0.00    +0.178 C 
BRANCH   7   8
ATOM      8  O   UNL     1       5.309  -3.348  21.785  0.00  0.00    -0.386 OA
ATOM      9  H   UNL     1       5.639  -4.100  21.264  0.00  0.00    +0.210 HD
ENDBRANCH   7   8
BRANCH   7  10
ATOM     10  C   UNL     1       6.975  -4.614  23.042  0.00  0.00    +0.265 C 
BRANCH  10  11
ATOM     11  O   UNL     1       7.069  -5.132  24.386  0.00  0.00    -0.462 OA
BRANCH  11  13
ATOM     12  C   UNL     1       8.284  -4.255  26.203  0.00  0.00    +0.136 C 
ATOM     13  C   UNL     1       8.310  -5.060  24.941  0.00  0.00    +0.304 C 
ATOM     14  O   UNL     1       9.323  -5.547  24.448  0.00  0.00    -0.251 OA
ENDBRANCH  11  13
ENDBRANCH  10  11
ENDBRANCH   7  10
ENDBRANCH   6   7
ENDBRANCH   5   6
ENDBRANCH   1   5
BRANCH   1  15
ATOM     15  O   UNL     1       9.056  -0.123  23.250  0.00  0.00    -0.281 OA
BRANCH  15  16
ATOM     16  C   UNL     1      10.105   0.794  23.568  0.00  0.00    +0.223 C 
BRANCH  16  17
ATOM     17  C   UNL     1      10.099   2.093  22.751  0.00  0.00    +0.156 C 
BRANCH  17  18
ATOM     18  N   UNL     1       9.571   1.831  21.389  0.00  0.00    +0.220 N 
ATOM     19  H   UNL     1       9.929   2.514  20.707  0.00  0.00    +0.199 HD
ATOM     20  H   UNL     1       8.544   1.844  21.348  0.00  0.00    +0.199 HD
ATOM     21  H   UNL     1       9.905   0.909  21.047  0.00  0.00    +0.199 HD
ENDBRANCH  17  18
ENDBRANCH  16  17
ENDBRANCH  15  16
ENDBRANCH   1  15
TORSDOF 12
ENDMDL
MODEL 4
REMARK VINA RESULT:      -4.9      2.220      3.577
REMARK  Name = 
REMARK  13 active torsions:
REMARK  status: ('A' for Active; 'I' for Inactive)
REMARK    1  A    between atoms: C_1  and  C_2
REMARK    2  A    between atoms: C_2  and  O_4
REMARK    3  A    between atoms: O_4  and  C_5
REMARK    4  A    between atoms: C_5  and  C_6
REMARK    5  A    between atoms: C_6  and  O_8
REMARK    6  A    between atoms: C_6  and  C_9
REMARK    7  A    between atoms: C_9  and  O_10
REMARK    8  A    between atoms: O_10  and  P_11
REMARK    9  A    between atoms: P_11  and  O_12
REMARK   10  A    between atoms: P_11  and  O_14
REMARK   11  A    between atoms: O_14  and  C_15
REMARK   12  A    between atoms: C_15  and  C_16
REMARK   13  A    between atoms: C_16  and  N_17
REMARK                            x       y       z     vdW  Elec       q    Type
REMARK                         _______ _______ _______ _____ _____    ______ ____
ROOT
ATOM      1  P   UNL     1       9.669  -1.904  23.447  0.00  0.00    +0.475 P 
ATOM      2  O   UNL     1      10.183  -1.814  22.042  0.00  0.00    -0.227 OA
ENDROOT
BRANCH   1   3
ATOM      3  O   UNL     1       8.107  -1.646  23.606  0.00  0.00    -0.302 OA
ATOM      4  H   UNL     1       7.633  -2.412  23.988  0.00  0.00    +0.222 HD
ENDBRANCH   1   3
BRANCH   1   5
ATOM      5  O   UNL     1       9.940  -3.295  24.182  0.00  0.00    -0.284 OA
BRANCH   5   6
ATOM      6  C   UNL     1       9.125  -3.695  25.285  0.00  0.00    +0.207 C 
BRANCH   6   7
ATOM      7  C   UNL     1       8.687  -5.131  25.004  0.00  0.00    +0.178 C 
BRANCH   7   8
ATOM      8  O   UNL     1       8.545  -5.802  26.276  0.00  0.00    -0.386 OA
ATOM      9  H   UNL     1       9.289  -5.482  26.815  0.00  0.00    +0.210 HD
ENDBRANCH   7   8
BRANCH   7  10
ATOM     10  C   UNL     1       7.371  -5.211  24.219  0.00  0.00    +0.265 C 
BRANCH  10  11
ATOM     11  O   UNL     1       7.634  -5.459  22.821  0.00  0.00    -0.462 OA
BRANCH  11  13
ATOM     12  C   UNL     1       6.225  -5.714  20.951  0.00  0.00    +0.136 C 
ATOM     13  C   UNL     1       6.827  -4.783  21.958  0.00  0.00    +0.304 C 
ATOM     14  O   UNL     1       6.657  -3.568  21.971  0.00  0.00    -0.251 OA
ENDBRANCH  11  13
ENDBRANCH  10  11
ENDBRANCH   7  10
ENDBRANCH   6   7
ENDBRANCH   5   6
ENDBRANCH   1   5
BRANCH   1  15
ATOM     15  O   UNL     1      10.379  -0.794  24.360  0.00  0.00    -0.281 OA
BRANCH  15  16
ATOM     16  C   UNL     1      10.563   0.528  23.850  0.00  0.00    +0.223 C 
BRANCH  16  17
ATOM     17  C   UNL     1       9.718   1.610  24.537  0.00  0.00    +0.156 C 
BRANCH  17  18
ATOM     18  N   UNL     1       8.767   0.981  25.488  0.00  0.00    +0.220 N 
ATOM     19  H   UNL     1       8.012   1.630  25.752  0.00  0.00    +0.199 HD
ATOM     20  H   UNL     1       9.222   0.650  26.348  0.00  0.00    +0.199 HD
ATOM     21  H   UNL     1       8.287   0.178  25.036  0.00  0.00    +0.199 HD
ENDBRANCH  17  18
ENDBRANCH  16  17
ENDBRANCH  15  16
ENDBRANCH   1  15
TORSDOF 12
ENDMDL
MODEL 5
REMARK VINA RESULT:      -4.8      2.753      3.134
REMARK  Name = 
REMARK  13 active torsions:
REMARK  status: ('A' for Active; 'I' for Inactive)
REMARK    1  A    between atoms: C_1  and  C_2
REMARK    2  A    between atoms: C_2  and  O_4
REMARK    3  A    between atoms: O_4  and  C_5
REMARK    4  A    between atoms: C_5  and  C_6
REMARK    5  A    between atoms: C_6  and  O_8
REMARK    6  A    between atoms: C_6  and  C_9
REMARK    7  A    between atoms: C_9  and  O_10
REMARK    8  A    between atoms: O_10  and  P_11
REMARK    9  A    between atoms: P_11  and  O_12
REMARK   10  A    between atoms: P_11  and  O_14
REMARK   11  A    between atoms: O_14  and  C_15
REMARK   12  A    between atoms: C_15  and  C_16
REMARK   13  A    between atoms: C_16  and  N_17
REMARK                            x       y       z     vdW  Elec       q    Type
REMARK                         _______ _______ _______ _____ _____    ______ ____
ROOT
ATOM      1  P   UNL     1       9.473  -1.861  22.905  0.00  0.00    +0.475 P 
ATOM      2  O   UNL     1      10.236  -2.867  23.713  0.00  0.00    -0.227 OA
ENDROOT
BRANCH   1   3
ATOM      3  O   UNL     1      10.112  -1.519  21.487  0.00  0.00    -0.302 OA
ATOM      4  H   UNL     1      11.033  -1.835  21.401  0.00  0.00    +0.222 HD
ENDBRANCH   1   3
BRANCH   1   5
ATOM      5  O   UNL     1       7.955  -2.245  22.597  0.00  0.00    -0.284 OA
BRANCH   5   6
ATOM      6  C   UNL     1       7.260  -3.161  23.445  0.00  0.00    +0.207 C 
BRANCH   6   7
ATOM      7  C   UNL     1       7.392  -4.538  22.796  0.00  0.00    +0.178 C 
BRANCH   7   8
ATOM      8  O   UNL     1       8.369  -5.286  23.554  0.00  0.00    -0.386 OA
ATOM      9  H   UNL     1       8.566  -6.069  23.011  0.00  0.00    +0.210 HD
ENDBRANCH   7   8
BRANCH   7  10
ATOM     10  C   UNL     1       6.064  -5.306  22.750  0.00  0.00    +0.265 C 
BRANCH  10  11
ATOM     11  O   UNL     1       4.965  -4.395  22.531  0.00  0.00    -0.462 OA
BRANCH  11  13
ATOM     12  C   UNL     1       3.788  -3.977  24.528  0.00  0.00    +0.136 C 
ATOM     13  C   UNL     1       3.827  -4.696  23.215  0.00  0.00    +0.304 C 
ATOM     14  O   UNL     1       2.974  -5.490  22.831  0.00  0.00    -0.251 OA
ENDBRANCH  11  13
ENDBRANCH  10  11
ENDBRANCH   7  10
ENDBRANCH   6   7
ENDBRANCH   5   6
ENDBRANCH   1   5
BRANCH   1  15
ATOM     15  O   UNL     1       9.410  -0.465  23.691  0.00  0.00    -0.281 OA
BRANCH  15  16
ATOM     16  C   UNL     1      10.495   0.458  23.581  0.00  0.00    +0.223 C 
BRANCH  16  17
ATOM     17  C   UNL     1      10.115   1.844  23.043  0.00  0.00    +0.156 C 
BRANCH  17  18
ATOM     18  N   UNL     1       9.931   1.782  21.571  0.00  0.00    +0.220 N 
ATOM     19  H   UNL     1       9.985   0.813  21.225  0.00  0.00    +0.199 HD
ATOM     20  H   UNL     1      10.619   2.345  21.057  0.00  0.00    +0.199 HD
ATOM     21  H   UNL     1       8.978   2.107  21.315  0.00  0.00    +0.199 HD
ENDBRANCH  17  18
ENDBRANCH  16  17
ENDBRANCH  15  16
ENDBRANCH   1  15
TORSDOF 12
ENDMDL
MODEL 6
REMARK VINA RESULT:      -4.8      2.435      3.766
REMARK  Name = 
REMARK  13 active torsions:
REMARK  status: ('A' for Active; 'I' for Inactive)
REMARK    1  A    between atoms: C_1  and  C_2
REMARK    2  A    between atoms: C_2  and  O_4
REMARK    3  A    between atoms: O_4  and  C_5
REMARK    4  A    between atoms: C_5  and  C_6
REMARK    5  A    between atoms: C_6  and  O_8
REMARK    6  A    between atoms: C_6  and  C_9
REMARK    7  A    between atoms: C_9  and  O_10
REMARK    8  A    between atoms: O_10  and  P_11
REMARK    9  A    between atoms: P_11  and  O_12
REMARK   10  A    between atoms: P_11  and  O_14
REMARK   11  A    between atoms: O_14  and  C_15
REMARK   12  A    between atoms: C_15  and  C_16
REMARK   13  A    between atoms: C_16  and  N_17
REMARK                            x       y       z     vdW  Elec       q    Type
REMARK                         _______ _______ _______ _____ _____    ______ ____
ROOT
ATOM      1  P   UNL     1       9.831   2.329  23.014  0.00  0.00    +0.475 P 
ATOM      2  O   UNL     1      11.007   3.087  23.550  0.00  0.00    -0.227 OA
ENDROOT
BRANCH   1   3
ATOM      3  O   UNL     1       9.887   2.022  21.453  0.00  0.00    -0.302 OA
ATOM      4  H   UNL     1       9.661   1.095  21.241  0.00  0.00    +0.222 HD
ENDBRANCH   1   3
BRANCH   1   5
ATOM      5  O   UNL     1       9.559   0.917  23.707  0.00  0.00    -0.284 OA
BRANCH   5   6
ATOM      6  C   UNL     1      10.498  -0.149  23.556  0.00  0.00    +0.207 C 
BRANCH   6   7
ATOM      7  C   UNL     1       9.719  -1.338  22.994  0.00  0.00    +0.178 C 
BRANCH   7   8
ATOM      8  O   UNL     1      10.249  -1.625  21.681  0.00  0.00    -0.386 OA
ATOM      9  H   UNL     1       9.924  -0.905  21.113  0.00  0.00    +0.210 HD
ENDBRANCH   7   8
BRANCH   7  10
ATOM     10  C   UNL     1       9.811  -2.586  23.882  0.00  0.00    +0.265 C 
BRANCH  10  11
ATOM     11  O   UNL     1       8.700  -3.470  23.622  0.00  0.00    -0.462 OA
BRANCH  11  13
ATOM     12  C   UNL     1       7.269  -4.800  24.937  0.00  0.00    +0.136 C 
ATOM     13  C   UNL     1       8.653  -4.578  24.411  0.00  0.00    +0.304 C 
ATOM     14  O   UNL     1       9.624  -5.273  24.695  0.00  0.00    -0.251 OA
ENDBRANCH  11  13
ENDBRANCH  10  11
ENDBRANCH   7  10
ENDBRANCH   6   7
ENDBRANCH   5   6
ENDBRANCH   1   5
BRANCH   1  15
ATOM     15  O   UNL     1       8.488   3.177  23.233  0.00  0.00    -0.281 OA
BRANCH  15  16
ATOM     16  C   UNL     1       7.475   3.169  22.225  0.00  0.00    +0.223 C 
BRANCH  16  17
ATOM     17  C   UNL     1       6.203   2.392  22.592  0.00  0.00    +0.156 C 
BRANCH  17  18
ATOM     18  N   UNL     1       6.507   0.942  22.691  0.00  0.00    +0.220 N 
ATOM     19  H   UNL     1       7.520   0.773  22.762  0.00  0.00    +0.199 HD
ATOM     20  H   UNL     1       6.147   0.403  21.894  0.00  0.00    +0.199 HD
ATOM     21  H   UNL     1       6.106   0.551  23.565  0.00  0.00    +0.199 HD
ENDBRANCH  17  18
ENDBRANCH  16  17
ENDBRANCH  15  16
ENDBRANCH   1  15
TORSDOF 12
ENDMDL
MODEL 7
REMARK VINA RESULT:      -4.8      2.833      3.507
REMARK  Name = 
REMARK  13 active torsions:
REMARK  status: ('A' for Active; 'I' for Inactive)
REMARK    1  A    between atoms: C_1  and  C_2
REMARK    2  A    between atoms: C_2  and  O_4
REMARK    3  A    between atoms: O_4  and  C_5
REMARK    4  A    between atoms: C_5  and  C_6
REMARK    5  A    between atoms: C_6  and  O_8
REMARK    6  A    between atoms: C_6  and  C_9
REMARK    7  A    between atoms: C_9  and  O_10
REMARK    8  A    between atoms: O_10  and  P_11
REMARK    9  A    between atoms: P_11  and  O_12
REMARK   10  A    between atoms: P_11  and  O_14
REMARK   11  A    between atoms: O_14  and  C_15
REMARK   12  A    between atoms: C_15  and  C_16
REMARK   13  A    between atoms: C_16  and  N_17
REMARK                            x       y       z     vdW  Elec       q    Type
REMARK                         _______ _______ _______ _____ _____    ______ ____
ROOT
ATOM      1  P   UNL     1       9.436  -1.895  22.758  0.00  0.00    +0.475 P 
ATOM      2  O   UNL     1      10.168  -2.814  23.687  0.00  0.00    -0.227 OA
ENDROOT
BRANCH   1   3
ATOM      3  O   UNL     1      10.281  -1.399  21.503  0.00  0.00    -0.302 OA
ATOM      4  H   UNL     1       9.756  -1.377  20.678  0.00  0.00    +0.222 HD
ENDBRANCH   1   3
BRANCH   1   5
ATOM      5  O   UNL     1       8.084  -2.482  22.144  0.00  0.00    -0.284 OA
BRANCH   5   6
ATOM      6  C   UNL     1       6.819  -2.012  22.613  0.00  0.00    +0.207 C 
BRANCH   6   7
ATOM      7  C   UNL     1       6.418  -2.927  23.769  0.00  0.00    +0.178 C 
BRANCH   7   8
ATOM      8  O   UNL     1       6.538  -2.164  24.991  0.00  0.00    -0.386 OA
ATOM      9  H   UNL     1       7.402  -1.720  24.929  0.00  0.00    +0.210 HD
ENDBRANCH   7   8
BRANCH   7  10
ATOM     10  C   UNL     1       4.990  -3.472  23.630  0.00  0.00    +0.265 C 
BRANCH  10  11
ATOM     11  O   UNL     1       4.854  -4.214  22.399  0.00  0.00    -0.462 OA
BRANCH  11  13
ATOM     12  C   UNL     1       6.222  -5.696  21.183  0.00  0.00    +0.136 C 
ATOM     13  C   UNL     1       5.406  -5.458  22.416  0.00  0.00    +0.304 C 
ATOM     14  O   UNL     1       5.218  -6.291  23.297  0.00  0.00    -0.251 OA
ENDBRANCH  11  13
ENDBRANCH  10  11
ENDBRANCH   7  10
ENDBRANCH   6   7
ENDBRANCH   5   6
ENDBRANCH   1   5
BRANCH   1  15
ATOM     15  O   UNL     1       9.006  -0.560  23.536  0.00  0.00    -0.281 OA
BRANCH  15  16
ATOM     16  C   UNL     1       9.942   0.512  23.667  0.00  0.00    +0.223 C 
BRANCH  16  17
ATOM     17  C   UNL     1       9.512   1.830  23.008  0.00  0.00    +0.156 C 
BRANCH  17  18
ATOM     18  N   UNL     1       9.845   1.802  21.561  0.00  0.00    +0.220 N 
ATOM     19  H   UNL     1       9.029   2.044  20.981  0.00  0.00    +0.199 HD
ATOM     20  H   UNL     1      10.202   0.891  21.250  0.00  0.00    +0.199 HD
ATOM     21  H   UNL     1      10.555   2.529  21.342  0.00  0.00    +0.199 HD
ENDBRANCH  17  18
ENDBRANCH  16  17
ENDBRANCH  15  16
ENDBRANCH   1  15
TORSDOF 12
ENDMDL
MODEL 8
REMARK VINA RESULT:      -4.7      1.952      2.982
REMARK  Name = 
REMARK  13 active torsions:
REMARK  status: ('A' for Active; 'I' for Inactive)
REMARK    1  A    between atoms: C_1  and  C_2
REMARK    2  A    between atoms: C_2  and  O_4
REMARK    3  A    between atoms: O_4  and  C_5
REMARK    4  A    between atoms: C_5  and  C_6
REMARK    5  A    between atoms: C_6  and  O_8
REMARK    6  A    between atoms: C_6  and  C_9
REMARK    7  A    between atoms: C_9  and  O_10
REMARK    8  A    between atoms: O_10  and  P_11
REMARK    9  A    between atoms: P_11  and  O_12
REMARK   10  A    between atoms: P_11  and  O_14
REMARK   11  A    between atoms: O_14  and  C_15
REMARK   12  A    between atoms: C_15  and  C_16
REMARK   13  A    between atoms: C_16  and  N_17
REMARK                            x       y       z     vdW  Elec       q    Type
REMARK                         _______ _______ _______ _____ _____    ______ ____
ROOT
ATOM      1  P   UNL     1       9.407  -1.468  23.027  0.00  0.00    +0.475 P 
ATOM      2  O   UNL     1      10.184  -0.825  24.135  0.00  0.00    -0.227 OA
ENDROOT
BRANCH   1   3
ATOM      3  O   UNL     1      10.163  -1.530  21.627  0.00  0.00    -0.302 OA
ATOM      4  H   UNL     1      10.094  -0.696  21.123  0.00  0.00    +0.222 HD
ENDBRANCH   1   3
BRANCH   1   5
ATOM      5  O   UNL     1       8.930  -2.965  23.310  0.00  0.00    -0.284 OA
BRANCH   5   6
ATOM      6  C   UNL     1       9.252  -3.599  24.550  0.00  0.00    +0.207 C 
BRANCH   6   7
ATOM      7  C   UNL     1       8.691  -5.018  24.470  0.00  0.00    +0.178 C 
BRANCH   7   8
ATOM      8  O   UNL     1       8.683  -5.560  25.809  0.00  0.00    -0.386 OA
ATOM      9  H   UNL     1       7.871  -5.214  26.218  0.00  0.00    +0.210 HD
ENDBRANCH   7   8
BRANCH   7  10
ATOM     10  C   UNL     1       7.278  -5.069  23.875  0.00  0.00    +0.265 C 
BRANCH  10  11
ATOM     11  O   UNL     1       7.311  -5.651  22.554  0.00  0.00    -0.462 OA
BRANCH  11  13
ATOM     12  C   UNL     1       4.972  -5.758  22.814  0.00  0.00    +0.136 C 
ATOM     13  C   UNL     1       6.131  -5.601  21.877  0.00  0.00    +0.304 C 
ATOM     14  O   UNL     1       6.030  -5.494  20.659  0.00  0.00    -0.251 OA
ENDBRANCH  11  13
ENDBRANCH  10  11
ENDBRANCH   7  10
ENDBRANCH   6   7
ENDBRANCH   5   6
ENDBRANCH   1   5
BRANCH   1  15
ATOM     15  O   UNL     1       8.063  -0.639  22.749  0.00  0.00    -0.281 OA
BRANCH  15  16
ATOM     16  C   UNL     1       8.063   0.781  22.911  0.00  0.00    +0.223 C 
BRANCH  16  17
ATOM     17  C   UNL     1       8.352   1.580  21.633  0.00  0.00    +0.156 C 
BRANCH  17  18
ATOM     18  N   UNL     1       9.807   1.859  21.529  0.00  0.00    +0.220 N 
ATOM     19  H   UNL     1      10.217   1.418  20.694  0.00  0.00    +0.199 HD
ATOM     20  H   UNL     1      10.334   1.542  22.352  0.00  0.00    +0.199 HD
ATOM     21  H   UNL     1       9.968   2.877  21.403  0.00  0.00    +0.199 HD
ENDBRANCH  17  18
ENDBRANCH  16  17
ENDBRANCH  15  16
ENDBRANCH   1  15
TORSDOF 12
ENDMDL
MODEL 9
REMARK VINA RESULT:      -4.7      3.413      6.685
REMARK  Name = 
REMARK  13 active torsions:
REMARK  status: ('A' for Active; 'I' for Inactive)
REMARK    1  A    between atoms: C_1  and  C_2
REMARK    2  A    between atoms: C_2  and  O_4
REMARK    3  A    between atoms: O_4  and  C_5
REMARK    4  A    between atoms: C_5  and  C_6
REMARK    5  A    between atoms: C_6  and  O_8
REMARK    6  A    between atoms: C_6  and  C_9
REMARK    7  A    between atoms: C_9  and  O_10
REMARK    8  A    between atoms: O_10  and  P_11
REMARK    9  A    between atoms: P_11  and  O_12
REMARK   10  A    between atoms: P_11  and  O_14
REMARK   11  A    between atoms: O_14  and  C_15
REMARK   12  A    between atoms: C_15  and  C_16
REMARK   13  A    between atoms: C_16  and  N_17
REMARK                            x       y       z     vdW  Elec       q    Type
REMARK                         _______ _______ _______ _____ _____    ______ ____
ROOT
ATOM      1  P   UNL     1       9.625  -1.615  22.994  0.00  0.00    +0.475 P 
ATOM      2  O   UNL     1       8.132  -1.495  22.946  0.00  0.00    -0.227 OA
ENDROOT
BRANCH   1   3
ATOM      3  O   UNL     1      10.335  -1.702  21.572  0.00  0.00    -0.302 OA
ATOM      4  H   UNL     1      10.847  -2.527  21.455  0.00  0.00    +0.222 HD
ENDBRANCH   1   3
BRANCH   1   5
ATOM      5  O   UNL     1      10.377  -0.436  23.764  0.00  0.00    -0.284 OA
BRANCH   5   6
ATOM      6  C   UNL     1       9.725   0.256  24.830  0.00  0.00    +0.207 C 
BRANCH   6   7
ATOM      7  C   UNL     1       9.880   1.748  24.537  0.00  0.00    +0.178 C 
BRANCH   7   8
ATOM      8  O   UNL     1      10.651   1.876  23.322  0.00  0.00    -0.386 OA
ATOM      9  H   UNL     1      11.581   1.857  23.608  0.00  0.00    +0.210 HD
ENDBRANCH   7   8
BRANCH   7  10
ATOM     10  C   UNL     1       8.534   2.469  24.383  0.00  0.00    +0.265 C 
BRANCH  10  11
ATOM     11  O   UNL     1       7.646   1.700  23.544  0.00  0.00    -0.462 OA
BRANCH  11  13
ATOM     12  C   UNL     1       6.609   3.203  22.058  0.00  0.00    +0.136 C 
ATOM     13  C   UNL     1       7.601   2.097  22.243  0.00  0.00    +0.304 C 
ATOM     14  O   UNL     1       8.248   1.584  21.335  0.00  0.00    -0.251 OA
ENDBRANCH  11  13
ENDBRANCH  10  11
ENDBRANCH   7  10
ENDBRANCH   6   7
ENDBRANCH   5   6
ENDBRANCH   1   5
BRANCH   1  15
ATOM     15  O   UNL     1      10.041  -2.960  23.761  0.00  0.00    -0.281 OA
BRANCH  15  16
ATOM     16  C   UNL     1       9.194  -3.477  24.790  0.00  0.00    +0.223 C 
BRANCH  16  17
ATOM     17  C   UNL     1       9.107  -5.008  24.849  0.00  0.00    +0.156 C 
BRANCH  17  18
ATOM     18  N   UNL     1      10.218  -5.546  25.674  0.00  0.00    +0.220 N 
ATOM     19  H   UNL     1       9.922  -5.705  26.647  0.00  0.00    +0.199 HD
ATOM     20  H   UNL     1      11.042  -4.933  25.684  0.00  0.00    +0.199 HD
ATOM     21  H   UNL     1      10.504  -6.481  25.323  0.00  0.00    +0.199 HD
ENDBRANCH  17  18
ENDBRANCH  16  17
ENDBRANCH  15  16
ENDBRANCH   1  15
TORSDOF 12
ENDMDL
