MODEL 1
REMARK VINA RESULT:      -6.9      0.000      0.000
REMARK  Name = 
REMARK  4 active torsions:
REMARK  status: ('A' for Active; 'I' for Inactive)
REMARK    1  A    between atoms: C_2  and  C_3
REMARK    2  A    between atoms: C_2  and  C_4
REMARK    3  A    between atoms: C_2  and  C_9
REMARK    4  A    between atoms: C_12  and  N_13
REMARK                            x       y       z     vdW  Elec       q    Type
REMARK                         _______ _______ _______ _____ _____    ______ ____
ROOT
ATOM      1  C   UNL     1       8.348  -1.805  23.518  0.00  0.00    +0.034 C 
ATOM      2  C   UNL     1       9.782  -2.193  23.520  0.00  0.00    +0.265 C 
ATOM      3  O   UNL     1      10.190  -3.282  23.888  0.00  0.00    -0.268 OA
ATOM      4  N   UNL     1      10.535  -1.152  23.034  0.00  0.00    -0.176 NA
ATOM      5  C   UNL     1       9.685  -0.227  22.747  0.00  0.00    +0.065 A 
ATOM      6  C   UNL     1       9.946   1.100  22.168  0.00  0.00    +0.027 A 
ATOM      7  C   UNL     1       8.904   1.915  21.918  0.00  0.00    +0.025 A 
ATOM      8  C   UNL     1       7.514   1.564  22.210  0.00  0.00    +0.035 A 
ATOM      9  C   UNL     1       7.237   0.362  22.756  0.00  0.00    +0.033 A 
ATOM     10  C   UNL     1       8.291  -0.565  23.029  0.00  0.00    +0.009 A 
ENDROOT
BRANCH   8  11
ATOM     11  N   UNL     1       6.469   2.426  21.954  0.00  0.00    -0.270 N 
ATOM     12  H   UNL     1       5.866   2.183  21.181  0.00  0.00    +0.156 HD
ATOM     13  C   UNL     1       6.089   3.562  22.619  0.00  0.00    +0.301 C 
ATOM     14  O   UNL     1       6.605   4.076  23.599  0.00  0.00    -0.253 OA
ATOM     15  N   UNL     1       4.966   4.121  22.079  0.00  0.00    -0.313 N 
ATOM     16  H   UNL     1       4.724   5.010  22.503  0.00  0.00    +0.146 HD
ATOM     17  H   UNL     1       4.817   4.074  21.083  0.00  0.00    +0.146 HD
ENDBRANCH   8  11
BRANCH   1  18
ATOM     18  C   UNL     1       7.293  -2.757  23.989  0.00  0.00    +0.068 C 
ATOM     19  C   UNL     1       6.024  -2.010  24.418  0.00  0.00    +0.019 C 
BRANCH  18  20
ATOM     20  C   UNL     1       6.983  -3.856  23.000  0.00  0.00    +0.023 A 
ATOM     21  N   UNL     1       7.595  -5.088  23.095  0.00  0.00    -0.364 N 
ATOM     22  H   UNL     1       8.261  -5.358  23.809  0.00  0.00    +0.165 HD
ATOM     23  C   UNL     1       7.165  -5.897  22.076  0.00  0.00    +0.083 A 
ATOM     24  C   UNL     1       6.263  -5.186  21.318  0.00  0.00    +0.019 A 
ATOM     25  C   UNL     1       6.139  -3.907  21.905  0.00  0.00    +0.023 A 
ENDBRANCH  18  20
ENDBRANCH   1  18
TORSDOF 3
ENDMDL
MODEL 2
REMARK VINA RESULT:      -6.7      2.671      6.795
REMARK  Name = 
REMARK  4 active torsions:
REMARK  status: ('A' for Active; 'I' for Inactive)
REMARK    1  A    between atoms: C_2  and  C_3
REMARK    2  A    between atoms: C_2  and  C_4
REMARK    3  A    between atoms: C_2  and  C_9
REMARK    4  A    between atoms: C_12  and  N_13
REMARK                            x       y       z     vdW  Elec       q    Type
REMARK                         _______ _______ _______ _____ _____    ______ ____
ROOT
ATOM      1  C   UNL     1       9.295  -0.263  23.649  0.00  0.00    +0.034 C 
ATOM      2  C   UNL     1       9.370   0.073  22.204  0.00  0.00    +0.265 C 
ATOM      3  O   UNL     1       9.871   1.098  21.770  0.00  0.00    -0.268 OA
ATOM      4  N   UNL     1       8.814  -0.947  21.471  0.00  0.00    -0.176 NA
ATOM      5  C   UNL     1       8.447  -1.825  22.340  0.00  0.00    +0.065 A 
ATOM      6  C   UNL     1       7.812  -3.131  22.102  0.00  0.00    +0.027 A 
ATOM      7  C   UNL     1       7.530  -3.916  23.157  0.00  0.00    +0.025 A 
ATOM      8  C   UNL     1       7.799  -3.536  24.545  0.00  0.00    +0.035 A 
ATOM      9  C   UNL     1       8.364  -2.339  24.803  0.00  0.00    +0.033 A 
ATOM     10  C   UNL     1       8.713  -1.460  23.730  0.00  0.00    +0.009 A 
ENDROOT
BRANCH   8  11
ATOM     11  N   UNL     1       7.485  -4.358  25.606  0.00  0.00    -0.270 N 
ATOM     12  H   UNL     1       6.506  -4.566  25.739  0.00  0.00    +0.156 HD
ATOM     13  C   UNL     1       8.312  -4.984  26.502  0.00  0.00    +0.301 C 
ATOM     14  O   UNL     1       9.531  -4.944  26.566  0.00  0.00    -0.253 OA
ATOM     15  N   UNL     1       7.617  -5.755  27.389  0.00  0.00    -0.313 N 
ATOM     16  H   UNL     1       8.206  -6.152  28.113  0.00  0.00    +0.146 HD
ATOM     17  H   UNL     1       6.707  -5.455  27.703  0.00  0.00    +0.146 HD
ENDBRANCH   8  11
BRANCH   1  18
ATOM     18  C   UNL     1       9.840   0.670  24.684  0.00  0.00    +0.068 C 
ATOM     19  C   UNL     1      11.371   0.742  24.615  0.00  0.00    +0.019 C 
BRANCH  18  20
ATOM     20  C   UNL     1       9.218   2.047  24.648  0.00  0.00    +0.023 A 
ATOM     21  N   UNL     1       9.852   3.094  24.014  0.00  0.00    -0.364 N 
ATOM     22  H   UNL     1      10.738   3.035  23.528  0.00  0.00    +0.165 HD
ATOM     23  C   UNL     1       9.100   4.233  24.141  0.00  0.00    +0.083 A 
ATOM     24  C   UNL     1       7.967   3.920  24.856  0.00  0.00    +0.019 A 
ATOM     25  C   UNL     1       8.034   2.543  25.165  0.00  0.00    +0.023 A 
ENDBRANCH  18  20
ENDBRANCH   1  18
TORSDOF 3
ENDMDL
MODEL 3
REMARK VINA RESULT:      -6.4      2.503      3.569
REMARK  Name = 
REMARK  4 active torsions:
REMARK  status: ('A' for Active; 'I' for Inactive)
REMARK    1  A    between atoms: C_2  and  C_3
REMARK    2  A    between atoms: C_2  and  C_4
REMARK    3  A    between atoms: C_2  and  C_9
REMARK    4  A    between atoms: C_12  and  N_13
REMARK                            x       y       z     vdW  Elec       q    Type
REMARK                         _______ _______ _______ _____ _____    ______ ____
ROOT
ATOM      1  C   UNL     1       6.863  -3.933  25.278  0.00  0.00    +0.034 C 
ATOM      2  C   UNL     1       7.467  -4.455  26.532  0.00  0.00    +0.265 C 
ATOM      3  O   UNL     1       7.171  -5.527  27.033  0.00  0.00    -0.268 OA
ATOM      4  N   UNL     1       8.395  -3.555  26.997  0.00  0.00    -0.176 NA
ATOM      5  C   UNL     1       8.392  -2.594  26.139  0.00  0.00    +0.065 A 
ATOM      6  C   UNL     1       9.216  -1.375  26.135  0.00  0.00    +0.027 A 
ATOM      7  C   UNL     1       9.075  -0.500  25.123  0.00  0.00    +0.025 A 
ATOM      8  C   UNL     1       8.123  -0.679  24.025  0.00  0.00    +0.035 A 
ATOM      9  C   UNL     1       7.339  -1.775  24.004  0.00  0.00    +0.033 A 
ATOM     10  C   UNL     1       7.449  -2.761  25.034  0.00  0.00    +0.009 A 
ENDROOT
BRANCH   8  11
ATOM     11  N   UNL     1       7.993   0.243  23.009  0.00  0.00    -0.270 N 
ATOM     12  H   UNL     1       7.187   0.851  23.054  0.00  0.00    +0.156 HD
ATOM     13  C   UNL     1       8.821   0.499  21.947  0.00  0.00    +0.301 C 
ATOM     14  O   UNL     1       9.872  -0.050  21.657  0.00  0.00    -0.253 OA
ATOM     15  N   UNL     1       8.363   1.528  21.176  0.00  0.00    -0.313 N 
ATOM     16  H   UNL     1       8.916   1.670  20.338  0.00  0.00    +0.146 HD
ATOM     17  H   UNL     1       7.370   1.655  21.052  0.00  0.00    +0.146 HD
ENDBRANCH   8  11
BRANCH   1  18
ATOM     18  C   UNL     1       5.821  -4.718  24.544  0.00  0.00    +0.068 C 
ATOM     19  C   UNL     1       4.500  -3.943  24.461  0.00  0.00    +0.019 C 
BRANCH  18  20
ATOM     20  C   UNL     1       6.270  -5.196  23.182  0.00  0.00    +0.023 A 
ATOM     21  N   UNL     1       5.384  -5.267  22.129  0.00  0.00    -0.364 N 
ATOM     22  H   UNL     1       4.407  -5.003  22.166  0.00  0.00    +0.165 HD
ATOM     23  C   UNL     1       6.026  -5.748  21.018  0.00  0.00    +0.083 A 
ATOM     24  C   UNL     1       7.339  -5.986  21.352  0.00  0.00    +0.019 A 
ATOM     25  C   UNL     1       7.497  -5.627  22.710  0.00  0.00    +0.023 A 
ENDBRANCH  18  20
ENDBRANCH   1  18
TORSDOF 3
ENDMDL
MODEL 4
REMARK VINA RESULT:      -6.4      3.630      4.544
REMARK  Name = 
REMARK  4 active torsions:
REMARK  status: ('A' for Active; 'I' for Inactive)
REMARK    1  A    between atoms: C_2  and  C_3
REMARK    2  A    between atoms: C_2  and  C_4
REMARK    3  A    between atoms: C_2  and  C_9
REMARK    4  A    between atoms: C_12  and  N_13
REMARK                            x       y       z     vdW  Elec       q    Type
REMARK                         _______ _______ _______ _____ _____    ______ ____
ROOT
ATOM      1  C   UNL     1       7.876  -3.835  24.159  0.00  0.00    +0.034 C 
ATOM      2  C   UNL     1       7.485  -3.892  22.726  0.00  0.00    +0.265 C 
ATOM      3  O   UNL     1       7.408  -4.927  22.084  0.00  0.00    -0.268 OA
ATOM      4  N   UNL     1       7.217  -2.622  22.278  0.00  0.00    -0.176 NA
ATOM      5  C   UNL     1       7.401  -1.858  23.299  0.00  0.00    +0.065 A 
ATOM      6  C   UNL     1       7.230  -0.399  23.387  0.00  0.00    +0.027 A 
ATOM      7  C   UNL     1       7.450   0.210  24.567  0.00  0.00    +0.025 A 
ATOM      8  C   UNL     1       7.875  -0.497  25.776  0.00  0.00    +0.035 A 
ATOM      9  C   UNL     1       8.058  -1.832  25.729  0.00  0.00    +0.033 A 
ATOM     10  C   UNL     1       7.821  -2.551  24.516  0.00  0.00    +0.009 A 
ENDROOT
BRANCH   8  11
ATOM     11  N   UNL     1       8.105   0.157  26.967  0.00  0.00    -0.270 N 
ATOM     12  H   UNL     1       9.058   0.435  27.151  0.00  0.00    +0.156 HD
ATOM     13  C   UNL     1       7.220   0.534  27.943  0.00  0.00    +0.301 C 
ATOM     14  O   UNL     1       6.011   0.364  27.978  0.00  0.00    -0.253 OA
ATOM     15  N   UNL     1       7.834   1.207  28.960  0.00  0.00    -0.313 N 
ATOM     16  H   UNL     1       7.209   1.413  29.732  0.00  0.00    +0.146 HD
ATOM     17  H   UNL     1       8.770   0.949  29.234  0.00  0.00    +0.146 HD
ENDBRANCH   8  11
BRANCH   1  18
ATOM     18  C   UNL     1       8.214  -5.082  24.913  0.00  0.00    +0.068 C 
ATOM     19  C   UNL     1       9.663  -5.050  25.417  0.00  0.00    +0.019 C 
BRANCH  18  20
ATOM     20  C   UNL     1       7.246  -5.398  26.029  0.00  0.00    +0.023 A 
ATOM     21  N   UNL     1       7.700  -5.750  27.282  0.00  0.00    -0.364 N 
ATOM     22  H   UNL     1       8.672  -5.809  27.558  0.00  0.00    +0.165 HD
ATOM     23  C   UNL     1       6.633  -6.006  28.103  0.00  0.00    +0.083 A 
ATOM     24  C   UNL     1       5.479  -5.814  27.379  0.00  0.00    +0.019 A 
ATOM     25  C   UNL     1       5.863  -5.419  26.078  0.00  0.00    +0.023 A 
ENDBRANCH  18  20
ENDBRANCH   1  18
TORSDOF 3
ENDMDL
MODEL 5
REMARK VINA RESULT:      -6.4      1.948      2.354
REMARK  Name = 
REMARK  4 active torsions:
REMARK  status: ('A' for Active; 'I' for Inactive)
REMARK    1  A    between atoms: C_2  and  C_3
REMARK    2  A    between atoms: C_2  and  C_4
REMARK    3  A    between atoms: C_2  and  C_9
REMARK    4  A    between atoms: C_12  and  N_13
REMARK                            x       y       z     vdW  Elec       q    Type
REMARK                         _______ _______ _______ _____ _____    ______ ____
ROOT
ATOM      1  C   UNL     1       7.953  -3.585  24.815  0.00  0.00    +0.034 C 
ATOM      2  C   UNL     1       9.319  -4.168  24.767  0.00  0.00    +0.265 C 
ATOM      3  O   UNL     1       9.619  -5.237  25.272  0.00  0.00    -0.268 OA
ATOM      4  N   UNL     1      10.146  -3.327  24.063  0.00  0.00    -0.176 NA
ATOM      5  C   UNL     1       9.397  -2.345  23.698  0.00  0.00    +0.065 A 
ATOM      6  C   UNL     1       9.766  -1.168  22.895  0.00  0.00    +0.027 A 
ATOM      7  C   UNL     1       8.817  -0.261  22.600  0.00  0.00    +0.025 A 
ATOM      8  C   UNL     1       7.429  -0.364  23.053  0.00  0.00    +0.035 A 
ATOM      9  C   UNL     1       7.057  -1.420  23.805  0.00  0.00    +0.033 A 
ATOM     10  C   UNL     1       8.006  -2.436  24.140  0.00  0.00    +0.009 A 
ENDROOT
BRANCH   8  11
ATOM     11  N   UNL     1       6.483   0.589  22.744  0.00  0.00    -0.270 N 
ATOM     12  H   UNL     1       5.786   0.327  22.062  0.00  0.00    +0.156 HD
ATOM     13  C   UNL     1       6.309   1.849  23.256  0.00  0.00    +0.301 C 
ATOM     14  O   UNL     1       6.972   2.418  24.109  0.00  0.00    -0.253 OA
ATOM     15  N   UNL     1       5.222   2.476  22.719  0.00  0.00    -0.313 N 
ATOM     16  H   UNL     1       5.133   3.440  23.021  0.00  0.00    +0.146 HD
ATOM     17  H   UNL     1       4.979   2.312  21.754  0.00  0.00    +0.146 HD
ENDBRANCH   8  11
BRANCH   1  18
ATOM     18  C   UNL     1       6.838  -4.298  25.514  0.00  0.00    +0.068 C 
ATOM     19  C   UNL     1       6.379  -3.526  26.757  0.00  0.00    +0.019 C 
BRANCH  18  20
ATOM     20  C   UNL     1       5.675  -4.638  24.611  0.00  0.00    +0.023 A 
ATOM     21  N   UNL     1       5.773  -5.649  23.680  0.00  0.00    -0.364 N 
ATOM     22  H   UNL     1       6.585  -6.236  23.535  0.00  0.00    +0.165 HD
ATOM     23  C   UNL     1       4.600  -5.744  22.977  0.00  0.00    +0.083 A 
ATOM     24  C   UNL     1       3.733  -4.791  23.460  0.00  0.00    +0.019 A 
ATOM     25  C   UNL     1       4.404  -4.103  24.497  0.00  0.00    +0.023 A 
ENDBRANCH  18  20
ENDBRANCH   1  18
TORSDOF 3
ENDMDL
MODEL 6
REMARK VINA RESULT:      -6.4      2.428      6.201
REMARK  Name = 
REMARK  4 active torsions:
REMARK  status: ('A' for Active; 'I' for Inactive)
REMARK    1  A    between atoms: C_2  and  C_3
REMARK    2  A    between atoms: C_2  and  C_4
REMARK    3  A    between atoms: C_2  and  C_9
REMARK    4  A    between atoms: C_12  and  N_13
REMARK                            x       y       z     vdW  Elec       q    Type
REMARK                         _______ _______ _______ _____ _____    ______ ____
ROOT
ATOM      1  C   UNL     1       8.836  -1.736  24.648  0.00  0.00    +0.034 C 
ATOM      2  C   UNL     1       8.761  -1.421  26.098  0.00  0.00    +0.265 C 
ATOM      3  O   UNL     1       9.250  -0.423  26.602  0.00  0.00    -0.268 OA
ATOM      4  N   UNL     1       8.054  -2.407  26.741  0.00  0.00    -0.176 NA
ATOM      5  C   UNL     1       7.710  -3.234  25.815  0.00  0.00    +0.065 A 
ATOM      6  C   UNL     1       6.915  -4.465  25.943  0.00  0.00    +0.027 A 
ATOM      7  C   UNL     1       6.643  -5.180  24.835  0.00  0.00    +0.025 A 
ATOM      8  C   UNL     1       7.116  -4.814  23.499  0.00  0.00    +0.035 A 
ATOM      9  C   UNL     1       7.862  -3.702  23.345  0.00  0.00    +0.033 A 
ATOM     10  C   UNL     1       8.172  -2.879  24.473  0.00  0.00    +0.009 A 
ENDROOT
BRANCH   8  11
ATOM     11  N   UNL     1       6.831  -5.575  22.386  0.00  0.00    -0.270 N 
ATOM     12  H   UNL     1       7.142  -6.535  22.407  0.00  0.00    +0.156 HD
ATOM     13  C   UNL     1       6.145  -5.239  21.248  0.00  0.00    +0.301 C 
ATOM     14  O   UNL     1       5.631  -4.169  20.961  0.00  0.00    -0.253 OA
ATOM     15  N   UNL     1       6.036  -6.291  20.385  0.00  0.00    -0.313 N 
ATOM     16  H   UNL     1       5.610  -6.035  19.501  0.00  0.00    +0.146 HD
ATOM     17  H   UNL     1       6.792  -6.955  20.312  0.00  0.00    +0.146 HD
ENDBRANCH   8  11
BRANCH   1  18
ATOM     18  C   UNL     1       9.544  -0.821  23.698  0.00  0.00    +0.068 C 
ATOM     19  C   UNL     1      10.366  -1.613  22.674  0.00  0.00    +0.019 C 
BRANCH  18  20
ATOM     20  C   UNL     1       8.632   0.178  23.025  0.00  0.00    +0.023 A 
ATOM     21  N   UNL     1       9.083   0.958  21.981  0.00  0.00    -0.364 N 
ATOM     22  H   UNL     1      10.013   0.922  21.582  0.00  0.00    +0.165 HD
ATOM     23  C   UNL     1       8.080   1.792  21.562  0.00  0.00    +0.083 A 
ATOM     24  C   UNL     1       6.968   1.546  22.334  0.00  0.00    +0.019 A 
ATOM     25  C   UNL     1       7.310   0.523  23.247  0.00  0.00    +0.023 A 
ENDBRANCH  18  20
ENDBRANCH   1  18
TORSDOF 3
ENDMDL
MODEL 7
REMARK VINA RESULT:      -6.4      2.553      2.711
REMARK  Name = 
REMARK  4 active torsions:
REMARK  status: ('A' for Active; 'I' for Inactive)
REMARK    1  A    between atoms: C_2  and  C_3
REMARK    2  A    between atoms: C_2  and  C_4
REMARK    3  A    between atoms: C_2  and  C_9
REMARK    4  A    between atoms: C_12  and  N_13
REMARK                            x       y       z     vdW  Elec       q    Type
REMARK                         _______ _______ _______ _____ _____    ______ ____
ROOT
ATOM      1  C   UNL     1       9.208  -1.503  24.694  0.00  0.00    +0.034 C 
ATOM      2  C   UNL     1       9.883  -2.515  23.840  0.00  0.00    +0.265 C 
ATOM      3  O   UNL     1      10.125  -3.655  24.200  0.00  0.00    -0.268 OA
ATOM      4  N   UNL     1      10.157  -1.963  22.612  0.00  0.00    -0.176 NA
ATOM      5  C   UNL     1       9.701  -0.759  22.675  0.00  0.00    +0.065 A 
ATOM      6  C   UNL     1       9.709   0.272  21.625  0.00  0.00    +0.027 A 
ATOM      7  C   UNL     1       9.152   1.469  21.888  0.00  0.00    +0.025 A 
ATOM      8  C   UNL     1       8.552   1.818  23.177  0.00  0.00    +0.035 A 
ATOM      9  C   UNL     1       8.542   0.904  24.169  0.00  0.00    +0.033 A 
ATOM     10  C   UNL     1       9.095  -0.398  23.955  0.00  0.00    +0.009 A 
ENDROOT
BRANCH   8  11
ATOM     11  N   UNL     1       8.001   3.057  23.420  0.00  0.00    -0.270 N 
ATOM     12  H   UNL     1       6.993   3.106  23.431  0.00  0.00    +0.156 HD
ATOM     13  C   UNL     1       8.617   4.251  23.693  0.00  0.00    +0.301 C 
ATOM     14  O   UNL     1       9.813   4.485  23.777  0.00  0.00    -0.253 OA
ATOM     15  N   UNL     1       7.717   5.252  23.919  0.00  0.00    -0.313 N 
ATOM     16  H   UNL     1       8.156   6.159  24.033  0.00  0.00    +0.146 HD
ATOM     17  H   UNL     1       6.849   5.266  23.406  0.00  0.00    +0.146 HD
ENDBRANCH   8  11
BRANCH   1  18
ATOM     18  C   UNL     1       8.782  -1.836  26.089  0.00  0.00    +0.068 C 
ATOM     19  C   UNL     1       8.100  -0.639  26.762  0.00  0.00    +0.019 C 
BRANCH  18  20
ATOM     20  C   UNL     1       7.934  -3.083  26.183  0.00  0.00    +0.023 A 
ATOM     21  N   UNL     1       8.450  -4.255  26.692  0.00  0.00    -0.364 N 
ATOM     22  H   UNL     1       9.392  -4.376  27.046  0.00  0.00    +0.165 HD
ATOM     23  C   UNL     1       7.496  -5.237  26.649  0.00  0.00    +0.083 A 
ATOM     24  C   UNL     1       6.349  -4.696  26.115  0.00  0.00    +0.019 A 
ATOM     25  C   UNL     1       6.620  -3.338  25.832  0.00  0.00    +0.023 A 
ENDBRANCH  18  20
ENDBRANCH   1  18
TORSDOF 3
ENDMDL
MODEL 8
REMARK VINA RESULT:      -6.3      1.733      2.342
REMARK  Name = 
REMARK  4 active torsions:
REMARK  status: ('A' for Active; 'I' for Inactive)
REMARK    1  A    between atoms: C_2  and  C_3
REMARK    2  A    between atoms: C_2  and  C_4
REMARK    3  A    between atoms: C_2  and  C_9
REMARK    4  A    between atoms: C_12  and  N_13
REMARK                            x       y       z     vdW  Elec       q    Type
REMARK                         _______ _______ _______ _____ _____    ______ ____
ROOT
ATOM      1  C   UNL     1       7.730  -2.246  23.623  0.00  0.00    +0.034 C 
ATOM      2  C   UNL     1       8.986  -3.033  23.729  0.00  0.00    +0.265 C 
ATOM      3  O   UNL     1       9.032  -4.190  24.115  0.00  0.00    -0.268 OA
ATOM      4  N   UNL     1      10.043  -2.261  23.311  0.00  0.00    -0.176 NA
ATOM      5  C   UNL     1       9.522  -1.133  22.970  0.00  0.00    +0.065 A 
ATOM      6  C   UNL     1      10.199   0.055  22.427  0.00  0.00    +0.027 A 
ATOM      7  C   UNL     1       9.459   1.133  22.107  0.00  0.00    +0.025 A 
ATOM      8  C   UNL     1       8.009   1.204  22.291  0.00  0.00    +0.035 A 
ATOM      9  C   UNL     1       7.356   0.141  22.802  0.00  0.00    +0.033 A 
ATOM     10  C   UNL     1       8.072  -1.049  23.144  0.00  0.00    +0.009 A 
ENDROOT
BRANCH   8  11
ATOM     11  N   UNL     1       7.282   2.329  21.965  0.00  0.00    -0.270 N 
ATOM     12  H   UNL     1       6.545   2.206  21.286  0.00  0.00    +0.156 HD
ATOM     13  C   UNL     1       7.376   3.605  22.457  0.00  0.00    +0.301 C 
ATOM     14  O   UNL     1       8.145   4.037  23.301  0.00  0.00    -0.253 OA
ATOM     15  N   UNL     1       6.442   4.436  21.908  0.00  0.00    -0.313 N 
ATOM     16  H   UNL     1       6.557   5.402  22.194  0.00  0.00    +0.146 HD
ATOM     17  H   UNL     1       6.168   4.311  20.946  0.00  0.00    +0.146 HD
ENDBRANCH   8  11
BRANCH   1  18
ATOM     18  C   UNL     1       6.413  -2.846  24.003  0.00  0.00    +0.068 C 
ATOM     19  C   UNL     1       5.817  -3.656  22.845  0.00  0.00    +0.019 C 
BRANCH  18  20
ATOM     20  C   UNL     1       6.460  -3.654  25.279  0.00  0.00    +0.023 A 
ATOM     21  N   UNL     1       6.346  -5.028  25.252  0.00  0.00    -0.364 N 
ATOM     22  H   UNL     1       6.241  -5.591  24.416  0.00  0.00    +0.165 HD
ATOM     23  C   UNL     1       6.396  -5.520  26.529  0.00  0.00    +0.083 A 
ATOM     24  C   UNL     1       6.551  -4.459  27.391  0.00  0.00    +0.019 A 
ATOM     25  C   UNL     1       6.604  -3.286  26.605  0.00  0.00    +0.023 A 
ENDBRANCH  18  20
ENDBRANCH   1  18
TORSDOF 3
ENDMDL
MODEL 9
REMARK VINA RESULT:      -6.3      2.621      3.798
REMARK  Name = 
REMARK  4 active torsions:
REMARK  status: ('A' for Active; 'I' for Inactive)
REMARK    1  A    between atoms: C_2  and  C_3
REMARK    2  A    between atoms: C_2  and  C_4
REMARK    3  A    between atoms: C_2  and  C_9
REMARK    4  A    between atoms: C_12  and  N_13
REMARK                            x       y       z     vdW  Elec       q    Type
REMARK                         _______ _______ _______ _____ _____    ______ ____
ROOT
ATOM      1  C   UNL     1       7.045  -3.787  24.175  0.00  0.00    +0.034 C 
ATOM      2  C   UNL     1       7.209  -4.500  25.468  0.00  0.00    +0.265 C 
ATOM      3  O   UNL     1       6.869  -5.658  25.653  0.00  0.00    -0.268 OA
ATOM      4  N   UNL     1       7.805  -3.661  26.378  0.00  0.00    -0.176 NA
ATOM      5  C   UNL     1       8.007  -2.561  25.738  0.00  0.00    +0.065 A 
ATOM      6  C   UNL     1       8.642  -1.327  26.228  0.00  0.00    +0.027 A 
ATOM      7  C   UNL     1       8.782  -0.290  25.381  0.00  0.00    +0.025 A 
ATOM      8  C   UNL     1       8.315  -0.308  23.994  0.00  0.00    +0.035 A 
ATOM      9  C   UNL     1       7.714  -1.415  23.515  0.00  0.00    +0.033 A 
ATOM     10  C   UNL     1       7.550  -2.565  24.349  0.00  0.00    +0.009 A 
ENDROOT
BRANCH   8  11
ATOM     11  N   UNL     1       8.462   0.777  23.156  0.00  0.00    -0.270 N 
ATOM     12  H   UNL     1       7.905   1.591  23.373  0.00  0.00    +0.156 HD
ATOM     13  C   UNL     1       9.289   0.943  22.076  0.00  0.00    +0.301 C 
ATOM     14  O   UNL     1      10.088   0.149  21.604  0.00  0.00    -0.253 OA
ATOM     15  N   UNL     1       9.171   2.187  21.527  0.00  0.00    -0.313 N 
ATOM     16  H   UNL     1       9.710   2.294  20.674  0.00  0.00    +0.146 HD
ATOM     17  H   UNL     1       8.273   2.645  21.518  0.00  0.00    +0.146 HD
ENDBRANCH   8  11
BRANCH   1  18
ATOM     18  C   UNL     1       6.430  -4.470  22.994  0.00  0.00    +0.068 C 
ATOM     19  C   UNL     1       7.284  -5.657  22.533  0.00  0.00    +0.019 C 
BRANCH  18  20
ATOM     20  C   UNL     1       4.989  -4.873  23.208  0.00  0.00    +0.023 A 
ATOM     21  N   UNL     1       4.527  -6.101  22.787  0.00  0.00    -0.364 N 
ATOM     22  H   UNL     1       5.086  -6.814  22.334  0.00  0.00    +0.165 HD
ATOM     23  C   UNL     1       3.193  -6.215  23.076  0.00  0.00    +0.083 A 
ATOM     24  C   UNL     1       2.788  -5.055  23.695  0.00  0.00    +0.019 A 
ATOM     25  C   UNL     1       3.920  -4.215  23.790  0.00  0.00    +0.023 A 
ENDBRANCH  18  20
ENDBRANCH   1  18
TORSDOF 3
ENDMDL
