MODEL 1
REMARK VINA RESULT:      -7.1      0.000      0.000
REMARK  Name = 
REMARK  2 active torsions:
REMARK  status: ('A' for Active; 'I' for Inactive)
REMARK    1  A    between atoms: C_2  and  C_4
REMARK    2  A    between atoms: C_11  and  N_12
REMARK                            x       y       z     vdW  Elec       q    Type
REMARK                         _______ _______ _______ _____ _____    ______ ____
ROOT
ATOM      1  C   UNL     1      11.732   5.169  23.483  0.00  0.00    +0.065 A 
ATOM      2  C   UNL     1      11.368   6.204  24.340  0.00  0.00    +0.016 A 
ATOM      3  C   UNL     1      10.133   6.163  24.982  0.00  0.00    +0.009 A 
ATOM      4  C   UNL     1       9.248   5.094  24.777  0.00  0.00    -0.016 A 
ATOM      5  C   UNL     1       7.992   5.125  25.390  0.00  0.00    +0.008 A 
ATOM      6  C   UNL     1       7.079   4.102  25.180  0.00  0.00    +0.002 A 
ATOM      7  C   UNL     1       7.424   3.024  24.371  0.00  0.00    +0.024 A 
ATOM      8  C   UNL     1       8.683   2.934  23.751  0.00  0.00    +0.041 A 
ATOM      9  C   UNL     1       9.610   4.007  23.934  0.00  0.00    +0.004 A 
ATOM     10  C   UNL     1      10.875   4.073  23.302  0.00  0.00    +0.026 A 
ENDROOT
BRANCH   8  11
ATOM     11  N   UNL     1       8.980   1.864  22.884  0.00  0.00    -0.283 N 
ATOM     12  H   UNL     1       9.074   2.073  21.902  0.00  0.00    +0.155 HD
ATOM     13  C   UNL     1       9.344   0.540  23.128  0.00  0.00    +0.219 A 
ATOM     14  N   UNL     1       9.737  -0.173  22.059  0.00  0.00    -0.223 NA
ATOM     15  C   UNL     1      10.062  -1.465  22.271  0.00  0.00    +0.116 A 
ATOM     16  C   UNL     1      10.005  -2.078  23.496  0.00  0.00    +0.039 A 
ATOM     17  C   UNL     1       9.587  -1.274  24.525  0.00  0.00    +0.116 A 
ATOM     18  N   UNL     1       9.253   0.017  24.362  0.00  0.00    -0.223 NA
ENDBRANCH   8  11
BRANCH   1  22
ATOM     19  N   UNL     1      13.007   5.492  21.386  0.00  0.00    -0.247 N 
ATOM     20  H   UNL     1      12.159   5.220  20.901  0.00  0.00    +0.288 HD
ATOM     21  H   UNL     1      13.830   5.185  20.883  0.00  0.00    +0.288 HD
ATOM     22  C   UNL     1      13.015   5.241  22.730  0.00  0.00    +0.308 C 
ATOM     23  N   UNL     1      14.133   5.039  23.347  0.00  0.00    -0.099 NA
ATOM     24  H   UNL     1      14.912   5.156  22.697  0.00  0.00    +0.363 HD
ENDBRANCH   1  22
TORSDOF 2
ENDMDL
MODEL 2
REMARK VINA RESULT:      -6.8      5.084      9.902
REMARK  Name = 
REMARK  2 active torsions:
REMARK  status: ('A' for Active; 'I' for Inactive)
REMARK    1  A    between atoms: C_2  and  C_4
REMARK    2  A    between atoms: C_11  and  N_12
REMARK                            x       y       z     vdW  Elec       q    Type
REMARK                         _______ _______ _______ _____ _____    ______ ____
ROOT
ATOM      1  C   UNL     1       5.896  -5.793  26.522  0.00  0.00    +0.065 A 
ATOM      2  C   UNL     1       4.863  -6.567  25.998  0.00  0.00    +0.016 A 
ATOM      3  C   UNL     1       4.692  -6.642  24.618  0.00  0.00    +0.009 A 
ATOM      4  C   UNL     1       5.544  -5.948  23.746  0.00  0.00    -0.016 A 
ATOM      5  C   UNL     1       5.296  -6.000  22.371  0.00  0.00    +0.008 A 
ATOM      6  C   UNL     1       6.097  -5.296  21.483  0.00  0.00    +0.002 A 
ATOM      7  C   UNL     1       7.171  -4.553  21.963  0.00  0.00    +0.024 A 
ATOM      8  C   UNL     1       7.477  -4.488  23.334  0.00  0.00    +0.041 A 
ATOM      9  C   UNL     1       6.628  -5.179  24.254  0.00  0.00    +0.004 A 
ATOM     10  C   UNL     1       6.781  -5.129  25.661  0.00  0.00    +0.026 A 
ENDROOT
BRANCH   8  11
ATOM     11  N   UNL     1       8.530  -3.674  23.796  0.00  0.00    -0.283 N 
ATOM     12  H   UNL     1       9.437  -4.100  23.896  0.00  0.00    +0.155 HD
ATOM     13  C   UNL     1       8.622  -2.298  24.003  0.00  0.00    +0.219 A 
ATOM     14  N   UNL     1       9.847  -1.821  24.281  0.00  0.00    -0.223 NA
ATOM     15  C   UNL     1       9.950  -0.497  24.517  0.00  0.00    +0.116 A 
ATOM     16  C   UNL     1       8.887   0.369  24.495  0.00  0.00    +0.039 A 
ATOM     17  C   UNL     1       7.677  -0.208  24.210  0.00  0.00    +0.116 A 
ATOM     18  N   UNL     1       7.526  -1.521  23.968  0.00  0.00    -0.223 NA
ENDBRANCH   8  11
BRANCH   1  22
ATOM     19  N   UNL     1       5.314  -4.692  28.661  0.00  0.00    -0.247 N 
ATOM     20  H   UNL     1       5.035  -3.893  28.102  0.00  0.00    +0.288 HD
ATOM     21  H   UNL     1       5.697  -4.399  29.551  0.00  0.00    +0.288 HD
ATOM     22  C   UNL     1       6.039  -5.641  27.997  0.00  0.00    +0.308 C 
ATOM     23  N   UNL     1       6.871  -6.393  28.640  0.00  0.00    -0.099 NA
ATOM     24  H   UNL     1       6.824  -6.183  29.638  0.00  0.00    +0.363 HD
ENDBRANCH   1  22
TORSDOF 2
ENDMDL
MODEL 3
REMARK VINA RESULT:      -6.6      3.766      5.576
REMARK  Name = 
REMARK  2 active torsions:
REMARK  status: ('A' for Active; 'I' for Inactive)
REMARK    1  A    between atoms: C_2  and  C_4
REMARK    2  A    between atoms: C_11  and  N_12
REMARK                            x       y       z     vdW  Elec       q    Type
REMARK                         _______ _______ _______ _____ _____    ______ ____
ROOT
ATOM      1  C   UNL     1       8.648   0.406  23.147  0.00  0.00    +0.065 A 
ATOM      2  C   UNL     1       8.907   1.194  24.265  0.00  0.00    +0.016 A 
ATOM      3  C   UNL     1       8.139   1.030  25.415  0.00  0.00    +0.009 A 
ATOM      4  C   UNL     1       7.107   0.082  25.464  0.00  0.00    -0.016 A 
ATOM      5  C   UNL     1       6.319  -0.004  26.616  0.00  0.00    +0.008 A 
ATOM      6  C   UNL     1       5.266  -0.906  26.685  0.00  0.00    +0.002 A 
ATOM      7  C   UNL     1       5.007  -1.747  25.608  0.00  0.00    +0.024 A 
ATOM      8  C   UNL     1       5.785  -1.716  24.436  0.00  0.00    +0.041 A 
ATOM      9  C   UNL     1       6.844  -0.760  24.348  0.00  0.00    +0.004 A 
ATOM     10  C   UNL     1       7.646  -0.575  23.196  0.00  0.00    +0.026 A 
ENDROOT
BRANCH   8  11
ATOM     11  N   UNL     1       5.457  -2.534  23.337  0.00  0.00    -0.283 N 
ATOM     12  H   UNL     1       4.746  -2.200  22.706  0.00  0.00    +0.155 HD
ATOM     13  C   UNL     1       6.048  -3.688  22.826  0.00  0.00    +0.219 A 
ATOM     14  N   UNL     1       5.582  -4.117  21.640  0.00  0.00    -0.223 NA
ATOM     15  C   UNL     1       6.119  -5.252  21.145  0.00  0.00    +0.116 A 
ATOM     16  C   UNL     1       7.092  -5.979  21.781  0.00  0.00    +0.039 A 
ATOM     17  C   UNL     1       7.500  -5.469  22.986  0.00  0.00    +0.116 A 
ATOM     18  N   UNL     1       6.994  -4.343  23.519  0.00  0.00    -0.223 NA
ENDBRANCH   8  11
BRANCH   1  22
ATOM     19  N   UNL     1       9.788   1.891  21.528  0.00  0.00    -0.247 N 
ATOM     20  H   UNL     1       9.209   2.637  21.899  0.00  0.00    +0.288 HD
ATOM     21  H   UNL     1       9.969   2.026  20.541  0.00  0.00    +0.288 HD
ATOM     22  C   UNL     1       9.409   0.628  21.885  0.00  0.00    +0.308 C 
ATOM     23  N   UNL     1       9.685  -0.376  21.119  0.00  0.00    -0.099 NA
ATOM     24  H   UNL     1      10.233  -0.058  20.318  0.00  0.00    +0.363 HD
ENDBRANCH   1  22
TORSDOF 2
ENDMDL
MODEL 4
REMARK VINA RESULT:      -6.5      4.866      8.126
REMARK  Name = 
REMARK  2 active torsions:
REMARK  status: ('A' for Active; 'I' for Inactive)
REMARK    1  A    between atoms: C_2  and  C_4
REMARK    2  A    between atoms: C_11  and  N_12
REMARK                            x       y       z     vdW  Elec       q    Type
REMARK                         _______ _______ _______ _____ _____    ______ ____
ROOT
ATOM      1  C   UNL     1       8.781  -1.264  24.630  0.00  0.00    +0.065 A 
ATOM      2  C   UNL     1       8.596  -0.831  23.320  0.00  0.00    +0.016 A 
ATOM      3  C   UNL     1       8.043  -1.697  22.381  0.00  0.00    +0.009 A 
ATOM      4  C   UNL     1       7.669  -3.002  22.734  0.00  0.00    -0.016 A 
ATOM      5  C   UNL     1       7.178  -3.858  21.745  0.00  0.00    +0.008 A 
ATOM      6  C   UNL     1       6.833  -5.167  22.052  0.00  0.00    +0.002 A 
ATOM      7  C   UNL     1       6.955  -5.622  23.361  0.00  0.00    +0.024 A 
ATOM      8  C   UNL     1       7.421  -4.794  24.397  0.00  0.00    +0.041 A 
ATOM      9  C   UNL     1       7.815  -3.457  24.074  0.00  0.00    +0.004 A 
ATOM     10  C   UNL     1       8.373  -2.552  25.008  0.00  0.00    +0.026 A 
ENDROOT
BRANCH   8  11
ATOM     11  N   UNL     1       7.596  -5.303  25.699  0.00  0.00    -0.283 N 
ATOM     12  H   UNL     1       8.527  -5.283  26.084  0.00  0.00    +0.155 HD
ATOM     13  C   UNL     1       6.683  -5.704  26.673  0.00  0.00    +0.219 A 
ATOM     14  N   UNL     1       7.193  -5.971  27.888  0.00  0.00    -0.223 NA
ATOM     15  C   UNL     1       6.329  -6.392  28.835  0.00  0.00    +0.116 A 
ATOM     16  C   UNL     1       4.985  -6.565  28.623  0.00  0.00    +0.039 A 
ATOM     17  C   UNL     1       4.559  -6.274  27.353  0.00  0.00    +0.116 A 
ATOM     18  N   UNL     1       5.381  -5.852  26.378  0.00  0.00    -0.223 NA
ENDBRANCH   8  11
BRANCH   1  22
ATOM     19  N   UNL     1      10.477   0.435  25.235  0.00  0.00    -0.247 N 
ATOM     20  H   UNL     1      10.998   0.113  24.428  0.00  0.00    +0.288 HD
ATOM     21  H   UNL     1      11.099   0.729  25.978  0.00  0.00    +0.288 HD
ATOM     22  C   UNL     1       9.446  -0.374  25.623  0.00  0.00    +0.308 C 
ATOM     23  N   UNL     1       9.061  -0.392  26.857  0.00  0.00    -0.099 NA
ATOM     24  H   UNL     1       9.594   0.294  27.395  0.00  0.00    +0.363 HD
ENDBRANCH   1  22
TORSDOF 2
ENDMDL
MODEL 5
REMARK VINA RESULT:      -6.4      4.212      6.303
REMARK  Name = 
REMARK  2 active torsions:
REMARK  status: ('A' for Active; 'I' for Inactive)
REMARK    1  A    between atoms: C_2  and  C_4
REMARK    2  A    between atoms: C_11  and  N_12
REMARK                            x       y       z     vdW  Elec       q    Type
REMARK                         _______ _______ _______ _____ _____    ______ ____
ROOT
ATOM      1  C   UNL     1       7.232   1.780  22.309  0.00  0.00    +0.065 A 
ATOM      2  C   UNL     1       8.455   1.973  21.671  0.00  0.00    +0.016 A 
ATOM      3  C   UNL     1       9.441   0.995  21.765  0.00  0.00    +0.009 A 
ATOM      4  C   UNL     1       9.223  -0.183  22.494  0.00  0.00    -0.016 A 
ATOM      5  C   UNL     1      10.263  -1.109  22.616  0.00  0.00    +0.008 A 
ATOM      6  C   UNL     1      10.093  -2.267  23.361  0.00  0.00    +0.002 A 
ATOM      7  C   UNL     1       8.869  -2.521  23.971  0.00  0.00    +0.024 A 
ATOM      8  C   UNL     1       7.784  -1.633  23.859  0.00  0.00    +0.041 A 
ATOM      9  C   UNL     1       7.971  -0.420  23.126  0.00  0.00    +0.004 A 
ATOM     10  C   UNL     1       6.985   0.589  23.007  0.00  0.00    +0.026 A 
ENDROOT
BRANCH   8  11
ATOM     11  N   UNL     1       6.579  -1.885  24.544  0.00  0.00    -0.283 N 
ATOM     12  H   UNL     1       6.320  -1.247  25.280  0.00  0.00    +0.155 HD
ATOM     13  C   UNL     1       5.540  -2.783  24.302  0.00  0.00    +0.219 A 
ATOM     14  N   UNL     1       4.439  -2.632  25.058  0.00  0.00    -0.223 NA
ATOM     15  C   UNL     1       3.435  -3.513  24.860  0.00  0.00    +0.116 A 
ATOM     16  C   UNL     1       3.484  -4.537  23.950  0.00  0.00    +0.039 A 
ATOM     17  C   UNL     1       4.648  -4.616  23.230  0.00  0.00    +0.116 A 
ATOM     18  N   UNL     1       5.673  -3.762  23.392  0.00  0.00    -0.223 NA
ENDBRANCH   8  11
BRANCH   1  22
ATOM     19  N   UNL     1       6.530   4.111  21.860  0.00  0.00    -0.247 N 
ATOM     20  H   UNL     1       7.507   4.361  21.970  0.00  0.00    +0.288 HD
ATOM     21  H   UNL     1       5.924   4.852  22.190  0.00  0.00    +0.288 HD
ATOM     22  C   UNL     1       6.200   2.854  22.283  0.00  0.00    +0.308 C 
ATOM     23  N   UNL     1       4.999   2.598  22.688  0.00  0.00    -0.099 NA
ATOM     24  H   UNL     1       4.413   3.427  22.576  0.00  0.00    +0.363 HD
ENDBRANCH   1  22
TORSDOF 2
ENDMDL
MODEL 6
REMARK VINA RESULT:      -6.4      3.665      5.560
REMARK  Name = 
REMARK  2 active torsions:
REMARK  status: ('A' for Active; 'I' for Inactive)
REMARK    1  A    between atoms: C_2  and  C_4
REMARK    2  A    between atoms: C_11  and  N_12
REMARK                            x       y       z     vdW  Elec       q    Type
REMARK                         _______ _______ _______ _____ _____    ______ ____
ROOT
ATOM      1  C   UNL     1       7.545   1.211  26.343  0.00  0.00    +0.065 A 
ATOM      2  C   UNL     1       7.467   2.528  25.898  0.00  0.00    +0.016 A 
ATOM      3  C   UNL     1       8.037   2.876  24.676  0.00  0.00    +0.009 A 
ATOM      4  C   UNL     1       8.690   1.918  23.886  0.00  0.00    -0.016 A 
ATOM      5  C   UNL     1       9.304   2.325  22.698  0.00  0.00    +0.008 A 
ATOM      6  C   UNL     1       9.990   1.411  21.910  0.00  0.00    +0.002 A 
ATOM      7  C   UNL     1      10.047   0.075  22.295  0.00  0.00    +0.024 A 
ATOM      8  C   UNL     1       9.426  -0.388  23.468  0.00  0.00    +0.041 A 
ATOM      9  C   UNL     1       8.753   0.560  24.301  0.00  0.00    +0.004 A 
ATOM     10  C   UNL     1       8.158   0.235  25.544  0.00  0.00    +0.026 A 
ENDROOT
BRANCH   8  11
ATOM     11  N   UNL     1       9.557  -1.733  23.865  0.00  0.00    -0.283 N 
ATOM     12  H   UNL     1      10.255  -1.946  24.561  0.00  0.00    +0.155 HD
ATOM     13  C   UNL     1       8.783  -2.862  23.603  0.00  0.00    +0.219 A 
ATOM     14  N   UNL     1       9.095  -3.970  24.298  0.00  0.00    -0.223 NA
ATOM     15  C   UNL     1       8.377  -5.081  24.033  0.00  0.00    +0.116 A 
ATOM     16  C   UNL     1       7.370  -5.139  23.104  0.00  0.00    +0.039 A 
ATOM     17  C   UNL     1       7.128  -3.964  22.441  0.00  0.00    +0.116 A 
ATOM     18  N   UNL     1       7.816  -2.833  22.670  0.00  0.00    -0.223 NA
ENDBRANCH   8  11
BRANCH   1  22
ATOM     19  N   UNL     1       7.561   1.384  28.813  0.00  0.00    -0.247 N 
ATOM     20  H   UNL     1       8.529   1.673  28.724  0.00  0.00    +0.288 HD
ATOM     21  H   UNL     1       7.415   0.853  29.663  0.00  0.00    +0.288 HD
ATOM     22  C   UNL     1       7.010   0.844  27.685  0.00  0.00    +0.308 C 
ATOM     23  N   UNL     1       6.041  -0.007  27.777  0.00  0.00    -0.099 NA
ATOM     24  H   UNL     1       5.775  -0.122  28.756  0.00  0.00    +0.363 HD
ENDBRANCH   1  22
TORSDOF 2
ENDMDL
MODEL 7
REMARK VINA RESULT:      -6.3      2.331      6.648
REMARK  Name = 
REMARK  2 active torsions:
REMARK  status: ('A' for Active; 'I' for Inactive)
REMARK    1  A    between atoms: C_2  and  C_4
REMARK    2  A    between atoms: C_11  and  N_12
REMARK                            x       y       z     vdW  Elec       q    Type
REMARK                         _______ _______ _______ _____ _____    ______ ____
ROOT
ATOM      1  C   UNL     1       7.993  -0.140  26.488  0.00  0.00    +0.065 A 
ATOM      2  C   UNL     1       8.226  -1.503  26.330  0.00  0.00    +0.016 A 
ATOM      3  C   UNL     1       8.777  -1.974  25.141  0.00  0.00    +0.009 A 
ATOM      4  C   UNL     1       9.100  -1.094  24.097  0.00  0.00    -0.016 A 
ATOM      5  C   UNL     1       9.590  -1.616  22.897  0.00  0.00    +0.008 A 
ATOM      6  C   UNL     1       9.885  -0.778  21.831  0.00  0.00    +0.002 A 
ATOM      7  C   UNL     1       9.713   0.596  21.966  0.00  0.00    +0.024 A 
ATOM      8  C   UNL     1       9.246   1.173  23.161  0.00  0.00    +0.041 A 
ATOM      9  C   UNL     1       8.903   0.307  24.246  0.00  0.00    +0.004 A 
ATOM     10  C   UNL     1       8.349   0.756  25.469  0.00  0.00    +0.026 A 
ENDROOT
BRANCH   8  11
ATOM     11  N   UNL     1       9.019   2.561  23.246  0.00  0.00    -0.283 N 
ATOM     12  H   UNL     1       8.064   2.872  23.321  0.00  0.00    +0.155 HD
ATOM     13  C   UNL     1       9.888   3.638  23.414  0.00  0.00    +0.219 A 
ATOM     14  N   UNL     1       9.314   4.833  23.639  0.00  0.00    -0.223 NA
ATOM     15  C   UNL     1      10.139   5.893  23.771  0.00  0.00    +0.116 A 
ATOM     16  C   UNL     1      11.505   5.816  23.683  0.00  0.00    +0.039 A 
ATOM     17  C   UNL     1      11.999   4.560  23.445  0.00  0.00    +0.116 A 
ATOM     18  N   UNL     1      11.217   3.475  23.306  0.00  0.00    -0.223 NA
ENDBRANCH   8  11
BRANCH   1  22
ATOM     19  N   UNL     1       5.969   0.475  27.773  0.00  0.00    -0.247 N 
ATOM     20  H   UNL     1       5.512   0.599  26.876  0.00  0.00    +0.288 HD
ATOM     21  H   UNL     1       5.612   1.131  28.458  0.00  0.00    +0.288 HD
ATOM     22  C   UNL     1       7.330   0.366  27.723  0.00  0.00    +0.308 C 
ATOM     23  N   UNL     1       8.050   0.724  28.735  0.00  0.00    -0.099 NA
ATOM     24  H   UNL     1       7.444   1.014  29.504  0.00  0.00    +0.363 HD
ENDBRANCH   1  22
TORSDOF 2
ENDMDL
MODEL 8
REMARK VINA RESULT:      -6.3      6.842      9.411
REMARK  Name = 
REMARK  2 active torsions:
REMARK  status: ('A' for Active; 'I' for Inactive)
REMARK    1  A    between atoms: C_2  and  C_4
REMARK    2  A    between atoms: C_11  and  N_12
REMARK                            x       y       z     vdW  Elec       q    Type
REMARK                         _______ _______ _______ _____ _____    ______ ____
ROOT
ATOM      1  C   UNL     1       6.302  -4.596  22.687  0.00  0.00    +0.065 A 
ATOM      2  C   UNL     1       6.518  -3.441  21.939  0.00  0.00    +0.016 A 
ATOM      3  C   UNL     1       7.184  -2.363  22.517  0.00  0.00    +0.009 A 
ATOM      4  C   UNL     1       7.641  -2.422  23.842  0.00  0.00    -0.016 A 
ATOM      5  C   UNL     1       8.246  -1.293  24.401  0.00  0.00    +0.008 A 
ATOM      6  C   UNL     1       8.677  -1.305  25.721  0.00  0.00    +0.002 A 
ATOM      7  C   UNL     1       8.526  -2.458  26.485  0.00  0.00    +0.024 A 
ATOM      8  C   UNL     1       7.945  -3.627  25.961  0.00  0.00    +0.041 A 
ATOM      9  C   UNL     1       7.464  -3.603  24.615  0.00  0.00    +0.004 A 
ATOM     10  C   UNL     1       6.791  -4.685  23.999  0.00  0.00    +0.026 A 
ENDROOT
BRANCH   8  11
ATOM     11  N   UNL     1       7.745  -4.756  26.780  0.00  0.00    -0.283 N 
ATOM     12  H   UNL     1       8.495  -5.426  26.837  0.00  0.00    +0.155 HD
ATOM     13  C   UNL     1       6.743  -5.079  27.694  0.00  0.00    +0.219 A 
ATOM     14  N   UNL     1       6.959  -6.171  28.448  0.00  0.00    -0.223 NA
ATOM     15  C   UNL     1       5.985  -6.517  29.315  0.00  0.00    +0.116 A 
ATOM     16  C   UNL     1       4.807  -5.830  29.459  0.00  0.00    +0.039 A 
ATOM     17  C   UNL     1       4.674  -4.736  28.644  0.00  0.00    +0.116 A 
ATOM     18  N   UNL     1       5.615  -4.352  27.765  0.00  0.00    -0.223 NA
ENDBRANCH   8  11
BRANCH   1  22
ATOM     19  N   UNL     1       4.612  -6.394  22.876  0.00  0.00    -0.247 N 
ATOM     20  H   UNL     1       4.792  -6.374  23.874  0.00  0.00    +0.288 HD
ATOM     21  H   UNL     1       4.388  -7.332  22.565  0.00  0.00    +0.288 HD
ATOM     22  C   UNL     1       5.521  -5.725  22.107  0.00  0.00    +0.308 C 
ATOM     23  N   UNL     1       5.728  -6.084  20.882  0.00  0.00    -0.099 NA
ATOM     24  H   UNL     1       5.094  -6.845  20.634  0.00  0.00    +0.363 HD
ENDBRANCH   1  22
TORSDOF 2
ENDMDL
MODEL 9
REMARK VINA RESULT:      -6.1      3.787      5.336
REMARK  Name = 
REMARK  2 active torsions:
REMARK  status: ('A' for Active; 'I' for Inactive)
REMARK    1  A    between atoms: C_2  and  C_4
REMARK    2  A    between atoms: C_11  and  N_12
REMARK                            x       y       z     vdW  Elec       q    Type
REMARK                         _______ _______ _______ _____ _____    ______ ____
ROOT
ATOM      1  C   UNL     1       6.557   2.877  23.023  0.00  0.00    +0.065 A 
ATOM      2  C   UNL     1       7.645   3.733  22.875  0.00  0.00    +0.016 A 
ATOM      3  C   UNL     1       8.920   3.290  23.217  0.00  0.00    +0.009 A 
ATOM      4  C   UNL     1       9.125   1.993  23.710  0.00  0.00    -0.016 A 
ATOM      5  C   UNL     1      10.412   1.612  24.102  0.00  0.00    +0.008 A 
ATOM      6  C   UNL     1      10.644   0.349  24.628  0.00  0.00    +0.002 A 
ATOM      7  C   UNL     1       9.592  -0.554  24.744  0.00  0.00    +0.024 A 
ATOM      8  C   UNL     1       8.284  -0.227  24.342  0.00  0.00    +0.041 A 
ATOM      9  C   UNL     1       8.036   1.087  23.838  0.00  0.00    +0.004 A 
ATOM     10  C   UNL     1       6.753   1.564  23.475  0.00  0.00    +0.026 A 
ENDROOT
BRANCH   8  11
ATOM     11  N   UNL     1       7.227  -1.139  24.534  0.00  0.00    -0.283 N 
ATOM     12  H   UNL     1       6.620  -0.986  25.323  0.00  0.00    +0.155 HD
ATOM     13  C   UNL     1       6.725  -2.165  23.734  0.00  0.00    +0.219 A 
ATOM     14  N   UNL     1       5.576  -2.728  24.146  0.00  0.00    -0.223 NA
ATOM     15  C   UNL     1       5.093  -3.745  23.402  0.00  0.00    +0.116 A 
ATOM     16  C   UNL     1       5.705  -4.228  22.274  0.00  0.00    +0.039 A 
ATOM     17  C   UNL     1       6.873  -3.596  21.936  0.00  0.00    +0.116 A 
ATOM     18  N   UNL     1       7.394  -2.580  22.645  0.00  0.00    -0.223 NA
ENDBRANCH   8  11
BRANCH   1  22
ATOM     19  N   UNL     1       4.989   4.622  22.232  0.00  0.00    -0.247 N 
ATOM     20  H   UNL     1       5.720   5.290  22.450  0.00  0.00    +0.288 HD
ATOM     21  H   UNL     1       4.071   5.019  22.391  0.00  0.00    +0.288 HD
ATOM     22  C   UNL     1       5.179   3.366  22.737  0.00  0.00    +0.308 C 
ATOM     23  N   UNL     1       4.164   2.607  22.994  0.00  0.00    -0.099 NA
ATOM     24  H   UNL     1       3.302   3.078  22.712  0.00  0.00    +0.363 HD
ENDBRANCH   1  22
TORSDOF 2
ENDMDL
