MODEL 1
REMARK VINA RESULT:      -3.0      0.000      0.000
REMARK  Name = 
REMARK  2 active torsions:
REMARK  status: ('A' for Active; 'I' for Inactive)
REMARK    1  A    between atoms: O_1  and  C_2
REMARK    2  A    between atoms: C_2  and  C_4
REMARK                            x       y       z     vdW  Elec       q    Type
REMARK                         _______ _______ _______ _____ _____    ______ ____
ROOT
ATOM      1  C   UNL     1      13.257   5.383  22.699  0.00  0.00    +0.369 C 
ATOM      2  O   UNL     1      13.053   5.522  21.511  0.00  0.00    -0.242 OA
ENDROOT
BRANCH   1   3
ATOM      3  O   UNL     1      14.416   5.023  23.279  0.00  0.00    -0.475 OA
ATOM      4  H   UNL     1      14.884   4.379  22.697  0.00  0.00    +0.295 HD
ENDBRANCH   1   3
BRANCH   1   5
ATOM      5  C   UNL     1      12.179   5.611  23.740  0.00  0.00    +0.341 C 
ATOM      6  O   UNL     1      12.395   6.400  24.650  0.00  0.00    -0.289 OA
ENDBRANCH   1   5
TORSDOF 2
ENDMDL
MODEL 2
REMARK VINA RESULT:      -2.8     11.956     12.044
REMARK  Name = 
REMARK  2 active torsions:
REMARK  status: ('A' for Active; 'I' for Inactive)
REMARK    1  A    between atoms: O_1  and  C_2
REMARK    2  A    between atoms: C_2  and  C_4
REMARK                            x       y       z     vdW  Elec       q    Type
REMARK                         _______ _______ _______ _____ _____    ______ ____
ROOT
ATOM      1  C   UNL     1       9.199  -5.290  25.294  0.00  0.00    +0.369 C 
ATOM      2  O   UNL     1       8.814  -5.298  24.143  0.00  0.00    -0.242 OA
ENDROOT
BRANCH   1   3
ATOM      3  O   UNL     1      10.443  -5.561  25.728  0.00  0.00    -0.475 OA
ATOM      4  H   UNL     1      10.786  -6.354  25.254  0.00  0.00    +0.295 HD
ENDBRANCH   1   3
BRANCH   1   5
ATOM      5  C   UNL     1       8.281  -4.955  26.453  0.00  0.00    +0.341 C 
ATOM      6  O   UNL     1       7.616  -5.850  26.956  0.00  0.00    -0.289 OA
ENDBRANCH   1   5
TORSDOF 2
ENDMDL
MODEL 3
REMARK VINA RESULT:      -2.7      5.315      5.524
REMARK  Name = 
REMARK  2 active torsions:
REMARK  status: ('A' for Active; 'I' for Inactive)
REMARK    1  A    between atoms: O_1  and  C_2
REMARK    2  A    between atoms: C_2  and  C_4
REMARK                            x       y       z     vdW  Elec       q    Type
REMARK                         _______ _______ _______ _____ _____    ______ ____
ROOT
ATOM      1  C   UNL     1       9.917   1.022  21.981  0.00  0.00    +0.369 C 
ATOM      2  O   UNL     1       9.427   0.151  21.294  0.00  0.00    -0.242 OA
ENDROOT
BRANCH   1   3
ATOM      3  O   UNL     1      10.202   2.281  21.603  0.00  0.00    -0.475 OA
ATOM      4  H   UNL     1      11.178   2.419  21.641  0.00  0.00    +0.295 HD
ENDBRANCH   1   3
BRANCH   1   5
ATOM      5  C   UNL     1      10.292   0.794  23.433  0.00  0.00    +0.341 C 
ATOM      6  O   UNL     1      10.835   1.701  24.050  0.00  0.00    -0.289 OA
ENDBRANCH   1   5
TORSDOF 2
ENDMDL
MODEL 4
REMARK VINA RESULT:      -2.7      7.845      8.086
REMARK  Name = 
REMARK  2 active torsions:
REMARK  status: ('A' for Active; 'I' for Inactive)
REMARK    1  A    between atoms: O_1  and  C_2
REMARK    2  A    between atoms: C_2  and  C_4
REMARK                            x       y       z     vdW  Elec       q    Type
REMARK                         _______ _______ _______ _____ _____    ______ ____
ROOT
ATOM      1  C   UNL     1      10.218  -1.227  22.792  0.00  0.00    +0.369 C 
ATOM      2  O   UNL     1      10.664  -0.201  23.263  0.00  0.00    -0.242 OA
ENDROOT
BRANCH   1   3
ATOM      3  O   UNL     1      10.237  -1.592  21.498  0.00  0.00    -0.475 OA
ATOM      4  H   UNL     1       9.640  -2.366  21.370  0.00  0.00    +0.295 HD
ENDBRANCH   1   3
BRANCH   1   5
ATOM      5  C   UNL     1       9.549  -2.287  23.644  0.00  0.00    +0.341 C 
ATOM      6  O   UNL     1      10.198  -3.268  23.982  0.00  0.00    -0.289 OA
ENDBRANCH   1   5
TORSDOF 2
ENDMDL
MODEL 5
REMARK VINA RESULT:      -2.6      7.474      7.626
REMARK  Name = 
REMARK  2 active torsions:
REMARK  status: ('A' for Active; 'I' for Inactive)
REMARK    1  A    between atoms: O_1  and  C_2
REMARK    2  A    between atoms: C_2  and  C_4
REMARK                            x       y       z     vdW  Elec       q    Type
REMARK                         _______ _______ _______ _____ _____    ______ ____
ROOT
ATOM      1  C   UNL     1      10.247  -1.707  22.915  0.00  0.00    +0.369 C 
ATOM      2  O   UNL     1      10.172  -2.714  23.588  0.00  0.00    -0.242 OA
ENDROOT
BRANCH   1   3
ATOM      3  O   UNL     1      10.267  -1.635  21.573  0.00  0.00    -0.475 OA
ATOM      4  H   UNL     1      10.905  -0.936  21.294  0.00  0.00    +0.295 HD
ENDBRANCH   1   3
BRANCH   1   5
ATOM      5  C   UNL     1      10.330  -0.324  23.533  0.00  0.00    +0.341 C 
ATOM      6  O   UNL     1      10.415  -0.226  24.750  0.00  0.00    -0.289 OA
ENDBRANCH   1   5
TORSDOF 2
ENDMDL
MODEL 6
REMARK VINA RESULT:      -2.6     12.088     12.313
REMARK  Name = 
REMARK  2 active torsions:
REMARK  status: ('A' for Active; 'I' for Inactive)
REMARK    1  A    between atoms: O_1  and  C_2
REMARK    2  A    between atoms: C_2  and  C_4
REMARK                            x       y       z     vdW  Elec       q    Type
REMARK                         _______ _______ _______ _____ _____    ______ ____
ROOT
ATOM      1  C   UNL     1       8.018  -5.353  26.224  0.00  0.00    +0.369 C 
ATOM      2  O   UNL     1       7.138  -5.315  25.390  0.00  0.00    -0.242 OA
ENDROOT
BRANCH   1   3
ATOM      3  O   UNL     1       7.918  -5.830  27.478  0.00  0.00    -0.475 OA
ATOM      4  H   UNL     1       8.786  -5.725  27.935  0.00  0.00    +0.295 HD
ENDBRANCH   1   3
BRANCH   1   5
ATOM      5  C   UNL     1       9.419  -4.843  25.948  0.00  0.00    +0.341 C 
ATOM      6  O   UNL     1       9.890  -4.990  24.828  0.00  0.00    -0.289 OA
ENDBRANCH   1   5
TORSDOF 2
ENDMDL
MODEL 7
REMARK VINA RESULT:      -2.5      5.860      6.196
REMARK  Name = 
REMARK  2 active torsions:
REMARK  status: ('A' for Active; 'I' for Inactive)
REMARK    1  A    between atoms: O_1  and  C_2
REMARK    2  A    between atoms: C_2  and  C_4
REMARK                            x       y       z     vdW  Elec       q    Type
REMARK                         _______ _______ _______ _____ _____    ______ ____
ROOT
ATOM      1  C   UNL     1       9.502   1.070  21.743  0.00  0.00    +0.369 C 
ATOM      2  O   UNL     1       9.890  -0.064  21.552  0.00  0.00    -0.242 OA
ENDROOT
BRANCH   1   3
ATOM      3  O   UNL     1      10.214   2.200  21.588  0.00  0.00    -0.475 OA
ATOM      4  H   UNL     1       9.903   2.672  20.780  0.00  0.00    +0.295 HD
ENDBRANCH   1   3
BRANCH   1   5
ATOM      5  C   UNL     1       8.090   1.377  22.202  0.00  0.00    +0.341 C 
ATOM      6  O   UNL     1       7.434   2.203  21.580  0.00  0.00    -0.289 OA
ENDBRANCH   1   5
TORSDOF 2
ENDMDL
MODEL 8
REMARK VINA RESULT:      -2.5     11.561     11.792
REMARK  Name = 
REMARK  2 active torsions:
REMARK  status: ('A' for Active; 'I' for Inactive)
REMARK    1  A    between atoms: O_1  and  C_2
REMARK    2  A    between atoms: C_2  and  C_4
REMARK                            x       y       z     vdW  Elec       q    Type
REMARK                         _______ _______ _______ _____ _____    ______ ____
ROOT
ATOM      1  C   UNL     1       9.031  -5.247  25.249  0.00  0.00    +0.369 C 
ATOM      2  O   UNL     1      10.158  -4.908  24.952  0.00  0.00    -0.242 OA
ENDROOT
BRANCH   1   3
ATOM      3  O   UNL     1       8.655  -5.897  26.365  0.00  0.00    -0.475 OA
ATOM      4  H   UNL     1       9.431  -5.988  26.966  0.00  0.00    +0.295 HD
ENDBRANCH   1   3
BRANCH   1   5
ATOM      5  C   UNL     1       7.838  -4.966  24.357  0.00  0.00    +0.341 C 
ATOM      6  O   UNL     1       8.008  -4.317  23.333  0.00  0.00    -0.289 OA
ENDBRANCH   1   5
TORSDOF 2
ENDMDL
MODEL 9
REMARK VINA RESULT:      -2.4     12.607     12.834
REMARK  Name = 
REMARK  2 active torsions:
REMARK  status: ('A' for Active; 'I' for Inactive)
REMARK    1  A    between atoms: O_1  and  C_2
REMARK    2  A    between atoms: C_2  and  C_4
REMARK                            x       y       z     vdW  Elec       q    Type
REMARK                         _______ _______ _______ _____ _____    ______ ____
ROOT
ATOM      1  C   UNL     1       6.392  -5.438  21.645  0.00  0.00    +0.369 C 
ATOM      2  O   UNL     1       5.927  -4.834  20.700  0.00  0.00    -0.242 OA
ENDROOT
BRANCH   1   3
ATOM      3  O   UNL     1       6.223  -6.741  21.929  0.00  0.00    -0.475 OA
ATOM      4  H   UNL     1       5.740  -6.827  22.785  0.00  0.00    +0.295 HD
ENDBRANCH   1   3
BRANCH   1   5
ATOM      5  C   UNL     1       7.270  -4.767  22.682  0.00  0.00    +0.341 C 
ATOM      6  O   UNL     1       8.185  -5.408  23.184  0.00  0.00    -0.289 OA
ENDBRANCH   1   5
TORSDOF 2
ENDMDL
