MODEL 1
REMARK VINA RESULT:      -6.7      0.000      0.000
REMARK  Name = 
REMARK  22 active torsions:
REMARK  status: ('A' for Active; 'I' for Inactive)
REMARK    1  A    between atoms: N_1  and  C_2
REMARK    2  A    between atoms: C_2  and  C_3
REMARK    3  A    between atoms: C_6  and  O_8
REMARK    4  A    between atoms: O_8  and  C_9
REMARK    5  A    between atoms: C_11  and  C_13
REMARK    6  A    between atoms: C_13  and  O_14
REMARK    7  A    between atoms: C_16  and  O_18
REMARK    8  A    between atoms: O_18  and  C_19
REMARK    9  A    between atoms: C_21  and  O_23
REMARK   10  A    between atoms: C_24  and  N_26
REMARK   11  A    between atoms: C_28  and  N_30
REMARK   12  A    between atoms: C_31  and  O_33
REMARK   13  A    between atoms: O_33  and  C_34
REMARK   14  A    between atoms: C_37  and  C_39
REMARK   15  A    between atoms: C_39  and  O_40
REMARK   16  A    between atoms: C_41  and  O_43
REMARK   17  A    between atoms: C_44  and  O_46
REMARK   18  A    between atoms: C_47  and  N_49
REMARK   19  A    between atoms: C_50  and  O_52
REMARK   20  A    between atoms: C_53  and  N_55
REMARK   21  A    between atoms: C_56  and  O_58
REMARK   22  A    between atoms: C_59  and  O_61
REMARK                            x       y       z     vdW  Elec       q    Type
REMARK                         _______ _______ _______ _____ _____    ______ ____
ROOT
ATOM      1  C   UNL     1       3.856  -2.597  26.580  0.00  0.00    +0.182 C 
ATOM      2  C   UNL     1       4.787  -3.504  27.423  0.00  0.00    +0.169 C 
ATOM      3  C   UNL     1       4.252  -4.958  27.613  0.00  0.00    +0.084 C 
ATOM      4  C   UNL     1       2.741  -5.047  27.855  0.00  0.00    +0.042 C 
ATOM      5  C   UNL     1       1.951  -4.342  26.757  0.00  0.00    +0.084 C 
ATOM      6  C   UNL     1       2.365  -2.868  26.713  0.00  0.00    +0.163 C 
ENDROOT
BRANCH   3   7
ATOM      7  N   UNL     1       4.932  -5.604  28.765  0.00  0.00    -0.325 NA
ATOM      8  H   UNL     1       4.937  -6.618  28.636  0.00  0.00    +0.119 HD
ATOM      9  H   UNL     1       5.919  -5.333  28.758  0.00  0.00    +0.119 HD
ENDBRANCH   3   7
BRANCH   5  10
ATOM     10  N   UNL     1       0.502  -4.397  27.083  0.00  0.00    -0.325 NA
ATOM     11  H   UNL     1       0.225  -3.514  27.521  0.00  0.00    +0.119 HD
ATOM     12  H   UNL     1       0.010  -4.368  26.178  0.00  0.00    +0.119 HD
ENDBRANCH   5  10
BRANCH   6  13
ATOM     13  O   UNL     1       1.655  -2.173  25.675  0.00  0.00    -0.388 OA
ATOM     14  H   UNL     1       0.733  -2.499  25.746  0.00  0.00    +0.210 HD
ENDBRANCH   6  13
BRANCH   2  15
ATOM     15  O   UNL     1       6.123  -3.617  26.828  0.00  0.00    -0.342 OA
BRANCH  15  16
ATOM     16  C   UNL     1       6.286  -4.745  25.958  0.00  0.00    +0.270 C 
ATOM     17  C   UNL     1       7.634  -5.513  26.168  0.00  0.00    +0.139 C 
ATOM     18  C   UNL     1       8.832  -4.691  25.649  0.00  0.00    +0.167 C 
ATOM     19  C   UNL     1       8.560  -4.158  24.231  0.00  0.00    +0.176 C 
ATOM     20  C   UNL     1       7.222  -3.417  24.228  0.00  0.00    +0.178 C 
ATOM     21  O   UNL     1       6.171  -4.322  24.595  0.00  0.00    -0.342 OA
BRANCH  17  22
ATOM     22  N   UNL     1       7.880  -5.988  27.551  0.00  0.00    -0.321 NA
ATOM     23  H   UNL     1       7.326  -5.390  28.174  0.00  0.00    +0.119 HD
ATOM     24  H   UNL     1       7.483  -6.922  27.651  0.00  0.00    +0.119 HD
ENDBRANCH  17  22
BRANCH  19  25
ATOM     25  O   UNL     1       9.646  -3.316  23.825  0.00  0.00    -0.387 OA
ATOM     26  H   UNL     1       9.284  -2.584  23.292  0.00  0.00    +0.210 HD
ENDBRANCH  19  25
BRANCH  18  27
ATOM     27  O   UNL     1      10.016  -5.510  25.639  0.00  0.00    -0.387 OA
ATOM     28  H   UNL     1       9.762  -6.367  25.246  0.00  0.00    +0.210 HD
ENDBRANCH  18  27
BRANCH  20  29
ATOM     29  C   UNL     1       6.839  -2.777  22.892  0.00  0.00    +0.190 C 
BRANCH  29  30
ATOM     30  O   UNL     1       6.162  -1.538  23.065  0.00  0.00    -0.392 OA
ATOM     31  H   UNL     1       5.543  -1.441  22.320  0.00  0.00    +0.210 HD
ENDBRANCH  29  30
ENDBRANCH  20  29
ENDBRANCH  15  16
ENDBRANCH   2  15
BRANCH   1  32
ATOM     32  O   UNL     1       4.082  -1.172  26.786  0.00  0.00    -0.340 OA
BRANCH  32  35
ATOM     33  C   UNL     1       6.263   1.541  26.032  0.00  0.00    +0.186 C 
ATOM     34  C   UNL     1       4.825   1.045  26.153  0.00  0.00    +0.202 C 
ATOM     35  C   UNL     1       4.923  -0.459  25.856  0.00  0.00    +0.282 C 
ATOM     36  O   UNL     1       6.298  -0.818  25.965  0.00  0.00    -0.341 OA
ATOM     37  C   UNL     1       7.095   0.305  26.354  0.00  0.00    +0.178 C 
BRANCH  34  38
ATOM     38  O   UNL     1       3.908   1.728  25.299  0.00  0.00    -0.384 OA
ATOM     39  H   UNL     1       3.092   1.192  25.221  0.00  0.00    +0.210 HD
ENDBRANCH  34  38
BRANCH  37  40
ATOM     40  C   UNL     1       7.547   0.151  27.809  0.00  0.00    +0.190 C 
BRANCH  40  41
ATOM     41  O   UNL     1       8.925  -0.184  27.909  0.00  0.00    -0.392 OA
ATOM     42  H   UNL     1       9.040  -0.618  28.775  0.00  0.00    +0.210 HD
ENDBRANCH  40  41
ENDBRANCH  37  40
BRANCH  33  43
ATOM     43  O   UNL     1       6.664   1.907  24.698  0.00  0.00    -0.341 OA
BRANCH  43  48
ATOM     44  C   UNL     1       9.186   0.261  22.673  0.00  0.00    +0.166 C 
ATOM     45  C   UNL     1      10.349   1.275  22.731  0.00  0.00    +0.175 C 
ATOM     46  C   UNL     1      10.367   1.989  24.101  0.00  0.00    +0.167 C 
ATOM     47  C   UNL     1       8.975   2.547  24.469  0.00  0.00    +0.139 C 
ATOM     48  C   UNL     1       7.943   1.397  24.342  0.00  0.00    +0.270 C 
ATOM     49  O   UNL     1       7.944   0.916  22.996  0.00  0.00    -0.343 OA
BRANCH  47  50
ATOM     50  N   UNL     1       8.605   3.692  23.584  0.00  0.00    -0.321 NA
ATOM     51  H   UNL     1       8.026   4.324  24.156  0.00  0.00    +0.119 HD
ATOM     52  H   UNL     1       9.461   4.242  23.459  0.00  0.00    +0.119 HD
ENDBRANCH  47  50
BRANCH  46  53
ATOM     53  O   UNL     1      10.877   1.125  25.124  0.00  0.00    -0.387 OA
ATOM     54  H   UNL     1      11.565   0.536  24.769  0.00  0.00    +0.210 HD
ENDBRANCH  46  53
BRANCH  45  55
ATOM     55  O   UNL     1      10.213   2.218  21.654  0.00  0.00    -0.387 OA
ATOM     56  H   UNL     1       9.507   1.902  21.060  0.00  0.00    +0.210 HD
ENDBRANCH  45  55
BRANCH  44  57
ATOM     57  C   UNL     1       9.033  -0.368  21.277  0.00  0.00    +0.112 C 
BRANCH  57  58
ATOM     58  N   UNL     1       9.769  -1.639  21.191  0.00  0.00    -0.328 NA
ATOM     59  H   UNL     1      10.381  -1.699  22.007  0.00  0.00    +0.118 HD
ATOM     60  H   UNL     1       9.108  -2.410  21.273  0.00  0.00    +0.118 HD
ENDBRANCH  57  58
ENDBRANCH  44  57
ENDBRANCH  43  48
ENDBRANCH  33  43
ENDBRANCH  32  35
ENDBRANCH   1  32
TORSDOF 22
ENDMDL
MODEL 2
REMARK VINA RESULT:      -6.4      2.766      8.007
REMARK  Name = 
REMARK  22 active torsions:
REMARK  status: ('A' for Active; 'I' for Inactive)
REMARK    1  A    between atoms: N_1  and  C_2
REMARK    2  A    between atoms: C_2  and  C_3
REMARK    3  A    between atoms: C_6  and  O_8
REMARK    4  A    between atoms: O_8  and  C_9
REMARK    5  A    between atoms: C_11  and  C_13
REMARK    6  A    between atoms: C_13  and  O_14
REMARK    7  A    between atoms: C_16  and  O_18
REMARK    8  A    between atoms: O_18  and  C_19
REMARK    9  A    between atoms: C_21  and  O_23
REMARK   10  A    between atoms: C_24  and  N_26
REMARK   11  A    between atoms: C_28  and  N_30
REMARK   12  A    between atoms: C_31  and  O_33
REMARK   13  A    between atoms: O_33  and  C_34
REMARK   14  A    between atoms: C_37  and  C_39
REMARK   15  A    between atoms: C_39  and  O_40
REMARK   16  A    between atoms: C_41  and  O_43
REMARK   17  A    between atoms: C_44  and  O_46
REMARK   18  A    between atoms: C_47  and  N_49
REMARK   19  A    between atoms: C_50  and  O_52
REMARK   20  A    between atoms: C_53  and  N_55
REMARK   21  A    between atoms: C_56  and  O_58
REMARK   22  A    between atoms: C_59  and  O_61
REMARK                            x       y       z     vdW  Elec       q    Type
REMARK                         _______ _______ _______ _____ _____    ______ ____
ROOT
ATOM      1  C   UNL     1       7.995   3.055  24.087  0.00  0.00    +0.182 C 
ATOM      2  C   UNL     1       8.184   3.707  25.479  0.00  0.00    +0.169 C 
ATOM      3  C   UNL     1       7.709   5.192  25.552  0.00  0.00    +0.084 C 
ATOM      4  C   UNL     1       8.049   6.024  24.310  0.00  0.00    +0.042 C 
ATOM      5  C   UNL     1       7.525   5.372  23.034  0.00  0.00    +0.084 C 
ATOM      6  C   UNL     1       8.150   3.981  22.892  0.00  0.00    +0.163 C 
ENDROOT
BRANCH   3   7
ATOM      7  N   UNL     1       8.321   5.866  26.726  0.00  0.00    -0.325 NA
ATOM      8  H   UNL     1       7.875   6.774  26.873  0.00  0.00    +0.119 HD
ATOM      9  H   UNL     1       8.099   5.326  27.567  0.00  0.00    +0.119 HD
ENDBRANCH   3   7
BRANCH   5  10
ATOM     10  N   UNL     1       7.947   6.181  21.861  0.00  0.00    -0.325 NA
ATOM     11  H   UNL     1       8.527   5.603  21.247  0.00  0.00    +0.119 HD
ATOM     12  H   UNL     1       7.095   6.328  21.301  0.00  0.00    +0.119 HD
ENDBRANCH   5  10
BRANCH   6  13
ATOM     13  O   UNL     1       7.664   3.326  21.709  0.00  0.00    -0.388 OA
ATOM     14  H   UNL     1       7.685   4.020  21.016  0.00  0.00    +0.210 HD
ENDBRANCH   6  13
BRANCH   2  15
ATOM     15  O   UNL     1       7.460   2.978  26.527  0.00  0.00    -0.342 OA
BRANCH  15  16
ATOM     16  C   UNL     1       6.043   2.906  26.321  0.00  0.00    +0.270 C 
ATOM     17  C   UNL     1       5.204   3.503  27.500  0.00  0.00    +0.139 C 
ATOM     18  C   UNL     1       5.267   2.595  28.746  0.00  0.00    +0.167 C 
ATOM     19  C   UNL     1       4.981   1.129  28.374  0.00  0.00    +0.176 C 
ATOM     20  C   UNL     1       5.910   0.717  27.231  0.00  0.00    +0.178 C 
ATOM     21  O   UNL     1       5.659   1.547  26.086  0.00  0.00    -0.342 OA
BRANCH  17  22
ATOM     22  N   UNL     1       5.523   4.906  27.854  0.00  0.00    -0.321 NA
ATOM     23  H   UNL     1       5.263   5.484  27.047  0.00  0.00    +0.119 HD
ATOM     24  H   UNL     1       4.902   5.202  28.608  0.00  0.00    +0.119 HD
ENDBRANCH  17  22
BRANCH  19  25
ATOM     25  O   UNL     1       5.151   0.304  29.533  0.00  0.00    -0.387 OA
ATOM     26  H   UNL     1       5.997  -0.174  29.448  0.00  0.00    +0.210 HD
ENDBRANCH  19  25
BRANCH  18  27
ATOM     27  O   UNL     1       4.308   3.042  29.723  0.00  0.00    -0.387 OA
ATOM     28  H   UNL     1       3.427   2.774  29.396  0.00  0.00    +0.210 HD
ENDBRANCH  18  27
BRANCH  20  29
ATOM     29  C   UNL     1       5.782  -0.740  26.785  0.00  0.00    +0.190 C 
BRANCH  29  30
ATOM     30  O   UNL     1       4.944  -0.881  25.645  0.00  0.00    -0.392 OA
ATOM     31  H   UNL     1       4.476  -0.037  25.524  0.00  0.00    +0.210 HD
ENDBRANCH  29  30
ENDBRANCH  20  29
ENDBRANCH  15  16
ENDBRANCH   2  15
BRANCH   1  32
ATOM     32  O   UNL     1       8.835   1.883  23.871  0.00  0.00    -0.340 OA
BRANCH  32  35
ATOM     33  C   UNL     1       8.007  -1.531  23.285  0.00  0.00    +0.186 C 
ATOM     34  C   UNL     1       7.552  -0.075  23.251  0.00  0.00    +0.202 C 
ATOM     35  C   UNL     1       8.381   0.601  24.353  0.00  0.00    +0.282 C 
ATOM     36  O   UNL     1       9.453  -0.282  24.671  0.00  0.00    -0.341 OA
ATOM     37  C   UNL     1       9.423  -1.448  23.843  0.00  0.00    +0.178 C 
BRANCH  34  38
ATOM     38  O   UNL     1       6.144   0.090  23.425  0.00  0.00    -0.384 OA
ATOM     39  H   UNL     1       5.820   0.736  22.763  0.00  0.00    +0.210 HD
ENDBRANCH  34  38
BRANCH  37  40
ATOM     40  C   UNL     1      10.556  -1.392  22.814  0.00  0.00    +0.190 C 
BRANCH  40  41
ATOM     41  O   UNL     1      10.121  -1.781  21.517  0.00  0.00    -0.392 OA
ATOM     42  H   UNL     1       9.153  -1.889  21.573  0.00  0.00    +0.210 HD
ENDBRANCH  40  41
ENDBRANCH  37  40
BRANCH  33  43
ATOM     43  O   UNL     1       7.299  -2.362  24.225  0.00  0.00    -0.341 OA
BRANCH  43  48
ATOM     44  C   UNL     1       5.909  -5.714  24.120  0.00  0.00    +0.166 C 
ATOM     45  C   UNL     1       5.397  -5.797  22.665  0.00  0.00    +0.175 C 
ATOM     46  C   UNL     1       6.316  -4.984  21.728  0.00  0.00    +0.167 C 
ATOM     47  C   UNL     1       6.562  -3.559  22.268  0.00  0.00    +0.139 C 
ATOM     48  C   UNL     1       7.056  -3.675  23.734  0.00  0.00    +0.270 C 
ATOM     49  O   UNL     1       6.056  -4.335  24.512  0.00  0.00    -0.343 OA
BRANCH  47  50
ATOM     50  N   UNL     1       5.319  -2.735  22.192  0.00  0.00    -0.321 NA
ATOM     51  H   UNL     1       4.566  -3.372  21.895  0.00  0.00    +0.119 HD
ATOM     52  H   UNL     1       5.054  -2.529  23.161  0.00  0.00    +0.119 HD
ENDBRANCH  47  50
BRANCH  46  53
ATOM     53  O   UNL     1       7.548  -5.677  21.488  0.00  0.00    -0.387 OA
ATOM     54  H   UNL     1       8.268  -5.050  21.304  0.00  0.00    +0.210 HD
ENDBRANCH  46  53
BRANCH  45  55
ATOM     55  O   UNL     1       4.042  -5.319  22.609  0.00  0.00    -0.387 OA
ATOM     56  H   UNL     1       3.499  -5.872  23.203  0.00  0.00    +0.210 HD
ENDBRANCH  45  55
BRANCH  44  57
ATOM     57  C   UNL     1       4.945  -6.382  25.115  0.00  0.00    +0.112 C 
BRANCH  57  58
ATOM     58  N   UNL     1       4.247  -7.515  24.488  0.00  0.00    -0.328 NA
ATOM     59  H   UNL     1       3.975  -7.229  23.546  0.00  0.00    +0.118 HD
ATOM     60  H   UNL     1       4.903  -8.286  24.374  0.00  0.00    +0.118 HD
ENDBRANCH  57  58
ENDBRANCH  44  57
ENDBRANCH  43  48
ENDBRANCH  33  43
ENDBRANCH  32  35
ENDBRANCH   1  32
TORSDOF 22
ENDMDL
MODEL 3
REMARK VINA RESULT:      -6.4      3.325      8.813
REMARK  Name = 
REMARK  22 active torsions:
REMARK  status: ('A' for Active; 'I' for Inactive)
REMARK    1  A    between atoms: N_1  and  C_2
REMARK    2  A    between atoms: C_2  and  C_3
REMARK    3  A    between atoms: C_6  and  O_8
REMARK    4  A    between atoms: O_8  and  C_9
REMARK    5  A    between atoms: C_11  and  C_13
REMARK    6  A    between atoms: C_13  and  O_14
REMARK    7  A    between atoms: C_16  and  O_18
REMARK    8  A    between atoms: O_18  and  C_19
REMARK    9  A    between atoms: C_21  and  O_23
REMARK   10  A    between atoms: C_24  and  N_26
REMARK   11  A    between atoms: C_28  and  N_30
REMARK   12  A    between atoms: C_31  and  O_33
REMARK   13  A    between atoms: O_33  and  C_34
REMARK   14  A    between atoms: C_37  and  C_39
REMARK   15  A    between atoms: C_39  and  O_40
REMARK   16  A    between atoms: C_41  and  O_43
REMARK   17  A    between atoms: C_44  and  O_46
REMARK   18  A    between atoms: C_47  and  N_49
REMARK   19  A    between atoms: C_50  and  O_52
REMARK   20  A    between atoms: C_53  and  N_55
REMARK   21  A    between atoms: C_56  and  O_58
REMARK   22  A    between atoms: C_59  and  O_61
REMARK                            x       y       z     vdW  Elec       q    Type
REMARK                         _______ _______ _______ _____ _____    ______ ____
ROOT
ATOM      1  C   UNL     1       9.763   3.914  24.139  0.00  0.00    +0.182 C 
ATOM      2  C   UNL     1       8.922   4.741  25.143  0.00  0.00    +0.169 C 
ATOM      3  C   UNL     1       9.190   6.277  25.079  0.00  0.00    +0.084 C 
ATOM      4  C   UNL     1      10.665   6.652  24.888  0.00  0.00    +0.042 C 
ATOM      5  C   UNL     1      11.267   5.968  23.664  0.00  0.00    +0.084 C 
ATOM      6  C   UNL     1      11.154   4.450  23.837  0.00  0.00    +0.163 C 
ENDROOT
BRANCH   3   7
ATOM      7  N   UNL     1       8.718   6.930  26.328  0.00  0.00    -0.325 NA
ATOM      8  H   UNL     1       8.808   6.279  27.110  0.00  0.00    +0.119 HD
ATOM      9  H   UNL     1       9.351   7.702  26.553  0.00  0.00    +0.119 HD
ENDBRANCH   3   7
BRANCH   5  10
ATOM     10  N   UNL     1      12.710   6.308  23.572  0.00  0.00    -0.325 NA
ATOM     11  H   UNL     1      13.264   5.491  23.844  0.00  0.00    +0.119 HD
ATOM     12  H   UNL     1      12.913   6.399  22.567  0.00  0.00    +0.119 HD
ENDBRANCH   5  10
BRANCH   6  13
ATOM     13  O   UNL     1      11.694   3.769  22.692  0.00  0.00    -0.388 OA
ATOM     14  H   UNL     1      11.417   2.835  22.807  0.00  0.00    +0.210 HD
ENDBRANCH   6  13
BRANCH   2  15
ATOM     15  O   UNL     1       7.482   4.552  24.934  0.00  0.00    -0.342 OA
BRANCH  15  16
ATOM     16  C   UNL     1       6.965   5.216  23.773  0.00  0.00    +0.270 C 
ATOM     17  C   UNL     1       5.556   5.863  23.994  0.00  0.00    +0.139 C 
ATOM     18  C   UNL     1       4.458   4.786  24.110  0.00  0.00    +0.167 C 
ATOM     19  C   UNL     1       4.570   3.760  22.967  0.00  0.00    +0.176 C 
ATOM     20  C   UNL     1       6.000   3.219  22.925  0.00  0.00    +0.178 C 
ATOM     21  O   UNL     1       6.915   4.297  22.676  0.00  0.00    -0.342 OA
BRANCH  17  22
ATOM     22  N   UNL     1       5.473   6.823  25.120  0.00  0.00    -0.321 NA
ATOM     23  H   UNL     1       5.874   7.708  24.788  0.00  0.00    +0.119 HD
ATOM     24  H   UNL     1       4.490   7.026  25.304  0.00  0.00    +0.119 HD
ENDBRANCH  17  22
BRANCH  19  25
ATOM     25  O   UNL     1       3.605   2.722  23.165  0.00  0.00    -0.387 OA
ATOM     26  H   UNL     1       2.858   2.876  22.557  0.00  0.00    +0.210 HD
ENDBRANCH  19  25
BRANCH  18  27
ATOM     27  O   UNL     1       3.160   5.408  24.075  0.00  0.00    -0.387 OA
ATOM     28  H   UNL     1       2.818   5.295  23.166  0.00  0.00    +0.210 HD
ENDBRANCH  18  27
BRANCH  20  29
ATOM     29  C   UNL     1       6.255   2.142  21.869  0.00  0.00    +0.190 C 
BRANCH  29  30
ATOM     30  O   UNL     1       6.149   0.829  22.407  0.00  0.00    -0.392 OA
ATOM     31  H   UNL     1       5.258   0.745  22.789  0.00  0.00    +0.210 HD
ENDBRANCH  29  30
ENDBRANCH  20  29
ENDBRANCH  15  16
ENDBRANCH   2  15
BRANCH   1  32
ATOM     32  O   UNL     1       9.883   2.506  24.495  0.00  0.00    -0.340 OA
BRANCH  32  35
ATOM     33  C   UNL     1       9.054  -0.857  23.663  0.00  0.00    +0.186 C 
ATOM     34  C   UNL     1       9.864   0.390  23.317  0.00  0.00    +0.202 C 
ATOM     35  C   UNL     1       9.012   1.549  23.856  0.00  0.00    +0.282 C 
ATOM     36  O   UNL     1       8.057   0.985  24.752  0.00  0.00    -0.341 OA
ATOM     37  C   UNL     1       8.242  -0.428  24.879  0.00  0.00    +0.178 C 
BRANCH  34  38
ATOM     38  O   UNL     1      10.162   0.512  21.926  0.00  0.00    -0.384 OA
ATOM     39  H   UNL     1       9.325   0.649  21.436  0.00  0.00    +0.210 HD
ENDBRANCH  34  38
BRANCH  37  40
ATOM     40  C   UNL     1       8.845  -0.758  26.248  0.00  0.00    +0.190 C 
BRANCH  40  41
ATOM     41  O   UNL     1       8.513  -2.072  26.676  0.00  0.00    -0.392 OA
ATOM     42  H   UNL     1       8.783  -2.133  27.612  0.00  0.00    +0.210 HD
ENDBRANCH  40  41
ENDBRANCH  37  40
BRANCH  33  43
ATOM     43  O   UNL     1       8.065  -1.224  22.682  0.00  0.00    -0.341 OA
BRANCH  43  48
ATOM     44  C   UNL     1       8.080  -4.675  23.811  0.00  0.00    +0.166 C 
ATOM     45  C   UNL     1       6.596  -5.068  23.641  0.00  0.00    +0.175 C 
ATOM     46  C   UNL     1       5.985  -4.336  22.426  0.00  0.00    +0.167 C 
ATOM     47  C   UNL     1       6.273  -2.820  22.471  0.00  0.00    +0.139 C 
ATOM     48  C   UNL     1       7.799  -2.622  22.658  0.00  0.00    +0.270 C 
ATOM     49  O   UNL     1       8.204  -3.240  23.880  0.00  0.00    -0.343 OA
BRANCH  47  50
ATOM     50  N   UNL     1       5.514  -2.164  23.578  0.00  0.00    -0.321 NA
ATOM     51  H   UNL     1       5.918  -1.222  23.688  0.00  0.00    +0.119 HD
ATOM     52  H   UNL     1       4.584  -1.954  23.199  0.00  0.00    +0.119 HD
ENDBRANCH  47  50
BRANCH  46  53
ATOM     53  O   UNL     1       6.432  -4.921  21.196  0.00  0.00    -0.387 OA
ATOM     54  H   UNL     1       6.322  -5.888  21.211  0.00  0.00    +0.210 HD
ENDBRANCH  46  53
BRANCH  45  55
ATOM     55  O   UNL     1       5.880  -4.759  24.849  0.00  0.00    -0.387 OA
ATOM     56  H   UNL     1       6.076  -5.454  25.506  0.00  0.00    +0.210 HD
ENDBRANCH  45  55
BRANCH  44  57
ATOM     57  C   UNL     1       8.693  -5.259  25.095  0.00  0.00    +0.112 C 
BRANCH  57  58
ATOM     58  N   UNL     1      10.162  -5.281  25.012  0.00  0.00    -0.328 NA
ATOM     59  H   UNL     1      10.447  -6.241  24.810  0.00  0.00    +0.118 HD
ATOM     60  H   UNL     1      10.456  -4.722  24.213  0.00  0.00    +0.118 HD
ENDBRANCH  57  58
ENDBRANCH  44  57
ENDBRANCH  43  48
ENDBRANCH  33  43
ENDBRANCH  32  35
ENDBRANCH   1  32
TORSDOF 22
ENDMDL
MODEL 4
REMARK VINA RESULT:      -6.3      2.100      7.401
REMARK  Name = 
REMARK  22 active torsions:
REMARK  status: ('A' for Active; 'I' for Inactive)
REMARK    1  A    between atoms: N_1  and  C_2
REMARK    2  A    between atoms: C_2  and  C_3
REMARK    3  A    between atoms: C_6  and  O_8
REMARK    4  A    between atoms: O_8  and  C_9
REMARK    5  A    between atoms: C_11  and  C_13
REMARK    6  A    between atoms: C_13  and  O_14
REMARK    7  A    between atoms: C_16  and  O_18
REMARK    8  A    between atoms: O_18  and  C_19
REMARK    9  A    between atoms: C_21  and  O_23
REMARK   10  A    between atoms: C_24  and  N_26
REMARK   11  A    between atoms: C_28  and  N_30
REMARK   12  A    between atoms: C_31  and  O_33
REMARK   13  A    between atoms: O_33  and  C_34
REMARK   14  A    between atoms: C_37  and  C_39
REMARK   15  A    between atoms: C_39  and  O_40
REMARK   16  A    between atoms: C_41  and  O_43
REMARK   17  A    between atoms: C_44  and  O_46
REMARK   18  A    between atoms: C_47  and  N_49
REMARK   19  A    between atoms: C_50  and  O_52
REMARK   20  A    between atoms: C_53  and  N_55
REMARK   21  A    between atoms: C_56  and  O_58
REMARK   22  A    between atoms: C_59  and  O_61
REMARK                            x       y       z     vdW  Elec       q    Type
REMARK                         _______ _______ _______ _____ _____    ______ ____
ROOT
ATOM      1  C   UNL     1       7.963   0.820  25.177  0.00  0.00    +0.182 C 
ATOM      2  C   UNL     1       8.628   0.029  24.022  0.00  0.00    +0.169 C 
ATOM      3  C   UNL     1       9.830   0.769  23.358  0.00  0.00    +0.084 C 
ATOM      4  C   UNL     1       9.619   2.277  23.176  0.00  0.00    +0.042 C 
ATOM      5  C   UNL     1       9.252   2.958  24.491  0.00  0.00    +0.084 C 
ATOM      6  C   UNL     1       7.962   2.333  25.031  0.00  0.00    +0.163 C 
ENDROOT
BRANCH   3   7
ATOM      7  N   UNL     1      10.110   0.189  22.019  0.00  0.00    -0.325 NA
ATOM      8  H   UNL     1       9.776  -0.776  21.986  0.00  0.00    +0.119 HD
ATOM      9  H   UNL     1       9.547   0.685  21.323  0.00  0.00    +0.119 HD
ENDBRANCH   3   7
BRANCH   5  10
ATOM     10  N   UNL     1       8.988   4.398  24.239  0.00  0.00    -0.325 NA
ATOM     11  H   UNL     1       8.999   4.900  25.132  0.00  0.00    +0.119 HD
ATOM     12  H   UNL     1       9.828   4.758  23.764  0.00  0.00    +0.119 HD
ENDBRANCH   5  10
BRANCH   6  13
ATOM     13  O   UNL     1       7.593   2.936  26.282  0.00  0.00    -0.388 OA
ATOM     14  H   UNL     1       6.753   2.495  26.531  0.00  0.00    +0.210 HD
ENDBRANCH   6  13
BRANCH   2  15
ATOM     15  O   UNL     1       9.127  -1.275  24.471  0.00  0.00    -0.342 OA
BRANCH  15  16
ATOM     16  C   UNL     1       9.368  -2.210  23.411  0.00  0.00    +0.270 C 
ATOM     17  C   UNL     1       8.069  -2.657  22.659  0.00  0.00    +0.139 C 
ATOM     18  C   UNL     1       7.203  -3.579  23.541  0.00  0.00    +0.167 C 
ATOM     19  C   UNL     1       8.053  -4.700  24.166  0.00  0.00    +0.176 C 
ATOM     20  C   UNL     1       9.254  -4.073  24.877  0.00  0.00    +0.178 C 
ATOM     21  O   UNL     1      10.054  -3.356  23.925  0.00  0.00    -0.342 OA
BRANCH  17  22
ATOM     22  N   UNL     1       7.256  -1.553  22.094  0.00  0.00    -0.321 NA
ATOM     23  H   UNL     1       6.456  -1.420  22.723  0.00  0.00    +0.119 HD
ATOM     24  H   UNL     1       7.793  -0.688  22.154  0.00  0.00    +0.119 HD
ENDBRANCH  17  22
BRANCH  19  25
ATOM     25  O   UNL     1       7.239  -5.471  25.057  0.00  0.00    -0.387 OA
ATOM     26  H   UNL     1       6.303  -5.321  24.826  0.00  0.00    +0.210 HD
ENDBRANCH  19  25
BRANCH  18  27
ATOM     27  O   UNL     1       6.147  -4.158  22.750  0.00  0.00    -0.387 OA
ATOM     28  H   UNL     1       6.088  -3.631  21.930  0.00  0.00    +0.210 HD
ENDBRANCH  18  27
BRANCH  20  29
ATOM     29  C   UNL     1      10.168  -5.064  25.600  0.00  0.00    +0.190 C 
BRANCH  29  30
ATOM     30  O   UNL     1       9.743  -6.410  25.428  0.00  0.00    -0.392 OA
ATOM     31  H   UNL     1       9.414  -6.721  26.289  0.00  0.00    +0.210 HD
ENDBRANCH  29  30
ENDBRANCH  20  29
ENDBRANCH  15  16
ENDBRANCH   2  15
BRANCH   1  32
ATOM     32  O   UNL     1       6.603   0.387  25.476  0.00  0.00    -0.340 OA
BRANCH  32  35
ATOM     33  C   UNL     1       5.451  -2.545  27.138  0.00  0.00    +0.186 C 
ATOM     34  C   UNL     1       6.619  -1.603  26.855  0.00  0.00    +0.202 C 
ATOM     35  C   UNL     1       6.304  -1.024  25.468  0.00  0.00    +0.282 C 
ATOM     36  O   UNL     1       4.930  -1.297  25.203  0.00  0.00    -0.341 OA
ATOM     37  C   UNL     1       4.313  -1.958  26.311  0.00  0.00    +0.178 C 
BRANCH  34  38
ATOM     38  O   UNL     1       7.896  -2.237  26.923  0.00  0.00    -0.384 OA
ATOM     39  H   UNL     1       8.521  -1.746  26.351  0.00  0.00    +0.210 HD
ENDBRANCH  34  38
BRANCH  37  40
ATOM     40  C   UNL     1       3.372  -0.995  27.041  0.00  0.00    +0.190 C 
BRANCH  40  41
ATOM     41  O   UNL     1       3.510   0.342  26.578  0.00  0.00    -0.392 OA
ATOM     42  H   UNL     1       3.962   0.290  25.715  0.00  0.00    +0.210 HD
ENDBRANCH  40  41
ENDBRANCH  37  40
BRANCH  33  43
ATOM     43  O   UNL     1       5.616  -3.880  26.624  0.00  0.00    -0.341 OA
BRANCH  43  48
ATOM     44  C   UNL     1       3.005  -5.599  24.780  0.00  0.00    +0.166 C 
ATOM     45  C   UNL     1       2.732  -6.822  25.684  0.00  0.00    +0.175 C 
ATOM     46  C   UNL     1       2.930  -6.442  27.169  0.00  0.00    +0.167 C 
ATOM     47  C   UNL     1       4.280  -5.729  27.398  0.00  0.00    +0.139 C 
ATOM     48  C   UNL     1       4.380  -4.547  26.400  0.00  0.00    +0.270 C 
ATOM     49  O   UNL     1       4.308  -5.055  25.066  0.00  0.00    -0.343 OA
BRANCH  47  50
ATOM     50  N   UNL     1       5.423  -6.674  27.217  0.00  0.00    -0.321 NA
ATOM     51  H   UNL     1       6.280  -6.128  27.386  0.00  0.00    +0.119 HD
ATOM     52  H   UNL     1       5.405  -7.300  28.029  0.00  0.00    +0.119 HD
ENDBRANCH  47  50
BRANCH  46  53
ATOM     53  O   UNL     1       1.831  -5.658  27.649  0.00  0.00    -0.387 OA
ATOM     54  H   UNL     1       1.936  -5.456  28.595  0.00  0.00    +0.210 HD
ENDBRANCH  46  53
BRANCH  45  55
ATOM     55  O   UNL     1       3.603  -7.900  25.302  0.00  0.00    -0.387 OA
ATOM     56  H   UNL     1       4.499  -7.701  25.635  0.00  0.00    +0.210 HD
ENDBRANCH  45  55
BRANCH  44  57
ATOM     57  C   UNL     1       2.968  -5.962  23.285  0.00  0.00    +0.112 C 
BRANCH  57  58
ATOM     58  N   UNL     1       4.297  -6.381  22.815  0.00  0.00    -0.328 NA
ATOM     59  H   UNL     1       4.467  -7.326  23.165  0.00  0.00    +0.118 HD
ATOM     60  H   UNL     1       4.281  -6.452  21.799  0.00  0.00    +0.118 HD
ENDBRANCH  57  58
ENDBRANCH  44  57
ENDBRANCH  43  48
ENDBRANCH  33  43
ENDBRANCH  32  35
ENDBRANCH   1  32
TORSDOF 22
ENDMDL
MODEL 5
REMARK VINA RESULT:      -6.3      2.792      5.139
REMARK  Name = 
REMARK  22 active torsions:
REMARK  status: ('A' for Active; 'I' for Inactive)
REMARK    1  A    between atoms: N_1  and  C_2
REMARK    2  A    between atoms: C_2  and  C_3
REMARK    3  A    between atoms: C_6  and  O_8
REMARK    4  A    between atoms: O_8  and  C_9
REMARK    5  A    between atoms: C_11  and  C_13
REMARK    6  A    between atoms: C_13  and  O_14
REMARK    7  A    between atoms: C_16  and  O_18
REMARK    8  A    between atoms: O_18  and  C_19
REMARK    9  A    between atoms: C_21  and  O_23
REMARK   10  A    between atoms: C_24  and  N_26
REMARK   11  A    between atoms: C_28  and  N_30
REMARK   12  A    between atoms: C_31  and  O_33
REMARK   13  A    between atoms: O_33  and  C_34
REMARK   14  A    between atoms: C_37  and  C_39
REMARK   15  A    between atoms: C_39  and  O_40
REMARK   16  A    between atoms: C_41  and  O_43
REMARK   17  A    between atoms: C_44  and  O_46
REMARK   18  A    between atoms: C_47  and  N_49
REMARK   19  A    between atoms: C_50  and  O_52
REMARK   20  A    between atoms: C_53  and  N_55
REMARK   21  A    between atoms: C_56  and  O_58
REMARK   22  A    between atoms: C_59  and  O_61
REMARK                            x       y       z     vdW  Elec       q    Type
REMARK                         _______ _______ _______ _____ _____    ______ ____
ROOT
ATOM      1  C   UNL     1       6.739  -5.317  24.150  0.00  0.00    +0.182 C 
ATOM      2  C   UNL     1       5.307  -5.146  24.715  0.00  0.00    +0.169 C 
ATOM      3  C   UNL     1       4.193  -5.758  23.809  0.00  0.00    +0.084 C 
ATOM      4  C   UNL     1       4.411  -5.538  22.307  0.00  0.00    +0.042 C 
ATOM      5  C   UNL     1       5.780  -6.039  21.857  0.00  0.00    +0.084 C 
ATOM      6  C   UNL     1       6.865  -5.288  22.635  0.00  0.00    +0.163 C 
ENDROOT
BRANCH   3   7
ATOM      7  N   UNL     1       2.872  -5.176  24.162  0.00  0.00    -0.325 NA
ATOM      8  H   UNL     1       2.780  -5.124  25.178  0.00  0.00    +0.119 HD
ATOM      9  H   UNL     1       2.848  -4.203  23.846  0.00  0.00    +0.119 HD
ENDBRANCH   3   7
BRANCH   5  10
ATOM     10  N   UNL     1       5.963  -5.733  20.414  0.00  0.00    -0.325 NA
ATOM     11  H   UNL     1       5.636  -4.780  20.231  0.00  0.00    +0.119 HD
ATOM     12  H   UNL     1       6.980  -5.659  20.270  0.00  0.00    +0.119 HD
ENDBRANCH   5  10
BRANCH   6  13
ATOM     13  O   UNL     1       8.172  -5.747  22.252  0.00  0.00    -0.388 OA
ATOM     14  H   UNL     1       8.081  -6.721  22.184  0.00  0.00    +0.210 HD
ENDBRANCH   6  13
BRANCH   2  15
ATOM     15  O   UNL     1       5.165  -5.764  26.038  0.00  0.00    -0.342 OA
BRANCH  15  16
ATOM     16  C   UNL     1       5.368  -4.862  27.133  0.00  0.00    +0.270 C 
ATOM     17  C   UNL     1       6.392  -5.382  28.196  0.00  0.00    +0.139 C 
ATOM     18  C   UNL     1       5.805  -6.551  29.013  0.00  0.00    +0.167 C 
ATOM     19  C   UNL     1       4.395  -6.209  29.529  0.00  0.00    +0.176 C 
ATOM     20  C   UNL     1       3.534  -5.750  28.351  0.00  0.00    +0.178 C 
ATOM     21  O   UNL     1       4.113  -4.577  27.761  0.00  0.00    -0.342 OA
BRANCH  17  22
ATOM     22  N   UNL     1       7.731  -5.731  27.664  0.00  0.00    -0.321 NA
ATOM     23  H   UNL     1       7.579  -6.241  26.786  0.00  0.00    +0.119 HD
ATOM     24  H   UNL     1       8.211  -4.872  27.397  0.00  0.00    +0.119 HD
ENDBRANCH  17  22
BRANCH  19  25
ATOM     25  O   UNL     1       3.842  -7.352  30.190  0.00  0.00    -0.387 OA
ATOM     26  H   UNL     1       4.561  -7.989  30.357  0.00  0.00    +0.210 HD
ENDBRANCH  19  25
BRANCH  18  27
ATOM     27  O   UNL     1       6.667  -6.849  30.127  0.00  0.00    -0.387 OA
ATOM     28  H   UNL     1       6.836  -6.004  30.586  0.00  0.00    +0.210 HD
ENDBRANCH  18  27
BRANCH  20  29
ATOM     29  C   UNL     1       2.080  -5.426  28.698  0.00  0.00    +0.190 C 
BRANCH  29  30
ATOM     30  O   UNL     1       1.925  -5.052  30.062  0.00  0.00    -0.392 OA
ATOM     31  H   UNL     1       1.041  -5.348  30.343  0.00  0.00    +0.210 HD
ENDBRANCH  29  30
ENDBRANCH  20  29
ENDBRANCH  15  16
ENDBRANCH   2  15
BRANCH   1  32
ATOM     32  O   UNL     1       7.704  -4.376  24.707  0.00  0.00    -0.340 OA
BRANCH  32  35
ATOM     33  C   UNL     1       8.748  -0.977  24.919  0.00  0.00    +0.186 C 
ATOM     34  C   UNL     1       8.319  -2.239  25.665  0.00  0.00    +0.202 C 
ATOM     35  C   UNL     1       7.402  -2.966  24.671  0.00  0.00    +0.282 C 
ATOM     36  O   UNL     1       7.629  -2.384  23.389  0.00  0.00    -0.341 OA
ATOM     37  C   UNL     1       8.644  -1.379  23.452  0.00  0.00    +0.178 C 
BRANCH  34  38
ATOM     38  O   UNL     1       7.692  -1.977  26.920  0.00  0.00    -0.384 OA
ATOM     39  H   UNL     1       6.725  -2.092  26.818  0.00  0.00    +0.210 HD
ENDBRANCH  34  38
BRANCH  37  40
ATOM     40  C   UNL     1       9.931  -1.888  22.796  0.00  0.00    +0.190 C 
BRANCH  40  41
ATOM     41  O   UNL     1      10.027  -1.499  21.432  0.00  0.00    -0.392 OA
ATOM     42  H   UNL     1      10.159  -2.320  20.921  0.00  0.00    +0.210 HD
ENDBRANCH  40  41
ENDBRANCH  37  40
BRANCH  33  43
ATOM     43  O   UNL     1       7.845   0.137  25.051  0.00  0.00    -0.341 OA
BRANCH  43  48
ATOM     44  C   UNL     1       6.448   2.336  22.523  0.00  0.00    +0.166 C 
ATOM     45  C   UNL     1       7.480   3.485  22.501  0.00  0.00    +0.175 C 
ATOM     46  C   UNL     1       8.896   2.938  22.787  0.00  0.00    +0.167 C 
ATOM     47  C   UNL     1       8.916   2.047  24.048  0.00  0.00    +0.139 C 
ATOM     48  C   UNL     1       7.813   0.967  23.897  0.00  0.00    +0.270 C 
ATOM     49  O   UNL     1       6.545   1.612  23.766  0.00  0.00    -0.343 OA
BRANCH  47  50
ATOM     50  N   UNL     1       8.698   2.859  25.282  0.00  0.00    -0.321 NA
ATOM     51  H   UNL     1       8.840   2.221  26.078  0.00  0.00    +0.119 HD
ATOM     52  H   UNL     1       9.509   3.482  25.360  0.00  0.00    +0.119 HD
ENDBRANCH  47  50
BRANCH  46  53
ATOM     53  O   UNL     1       9.420   2.248  21.645  0.00  0.00    -0.387 OA
ATOM     54  H   UNL     1       9.643   1.328  21.868  0.00  0.00    +0.210 HD
ENDBRANCH  46  53
BRANCH  45  55
ATOM     55  O   UNL     1       7.103   4.483  23.464  0.00  0.00    -0.387 OA
ATOM     56  H   UNL     1       6.699   4.031  24.229  0.00  0.00    +0.210 HD
ENDBRANCH  45  55
BRANCH  44  57
ATOM     57  C   UNL     1       5.004   2.849  22.393  0.00  0.00    +0.112 C 
BRANCH  57  58
ATOM     58  N   UNL     1       4.238   2.578  23.619  0.00  0.00    -0.328 NA
ATOM     59  H   UNL     1       4.027   3.476  24.059  0.00  0.00    +0.118 HD
ATOM     60  H   UNL     1       3.341   2.167  23.365  0.00  0.00    +0.118 HD
ENDBRANCH  57  58
ENDBRANCH  44  57
ENDBRANCH  43  48
ENDBRANCH  33  43
ENDBRANCH  32  35
ENDBRANCH   1  32
TORSDOF 22
ENDMDL
MODEL 6
REMARK VINA RESULT:      -6.2      2.023      3.041
REMARK  Name = 
REMARK  22 active torsions:
REMARK  status: ('A' for Active; 'I' for Inactive)
REMARK    1  A    between atoms: N_1  and  C_2
REMARK    2  A    between atoms: C_2  and  C_3
REMARK    3  A    between atoms: C_6  and  O_8
REMARK    4  A    between atoms: O_8  and  C_9
REMARK    5  A    between atoms: C_11  and  C_13
REMARK    6  A    between atoms: C_13  and  O_14
REMARK    7  A    between atoms: C_16  and  O_18
REMARK    8  A    between atoms: O_18  and  C_19
REMARK    9  A    between atoms: C_21  and  O_23
REMARK   10  A    between atoms: C_24  and  N_26
REMARK   11  A    between atoms: C_28  and  N_30
REMARK   12  A    between atoms: C_31  and  O_33
REMARK   13  A    between atoms: O_33  and  C_34
REMARK   14  A    between atoms: C_37  and  C_39
REMARK   15  A    between atoms: C_39  and  O_40
REMARK   16  A    between atoms: C_41  and  O_43
REMARK   17  A    between atoms: C_44  and  O_46
REMARK   18  A    between atoms: C_47  and  N_49
REMARK   19  A    between atoms: C_50  and  O_52
REMARK   20  A    between atoms: C_53  and  N_55
REMARK   21  A    between atoms: C_56  and  O_58
REMARK   22  A    between atoms: C_59  and  O_61
REMARK                            x       y       z     vdW  Elec       q    Type
REMARK                         _______ _______ _______ _____ _____    ______ ____
ROOT
ATOM      1  C   UNL     1       4.462  -2.202  26.699  0.00  0.00    +0.182 C 
ATOM      2  C   UNL     1       5.521  -3.057  27.437  0.00  0.00    +0.169 C 
ATOM      3  C   UNL     1       5.095  -4.542  27.658  0.00  0.00    +0.084 C 
ATOM      4  C   UNL     1       3.621  -4.724  28.042  0.00  0.00    +0.042 C 
ATOM      5  C   UNL     1       2.689  -4.059  27.034  0.00  0.00    +0.084 C 
ATOM      6  C   UNL     1       3.010  -2.563  26.971  0.00  0.00    +0.163 C 
ENDROOT
BRANCH   3   7
ATOM      7  N   UNL     1       5.919  -5.155  28.731  0.00  0.00    -0.325 NA
ATOM      8  H   UNL     1       6.797  -5.499  28.337  0.00  0.00    +0.119 HD
ATOM      9  H   UNL     1       6.196  -4.423  29.390  0.00  0.00    +0.119 HD
ENDBRANCH   3   7
BRANCH   5  10
ATOM     10  N   UNL     1       1.284  -4.204  27.496  0.00  0.00    -0.325 NA
ATOM     11  H   UNL     1       1.246  -4.917  28.230  0.00  0.00    +0.119 HD
ATOM     12  H   UNL     1       1.067  -3.337  28.007  0.00  0.00    +0.119 HD
ENDBRANCH   5  10
BRANCH   6  13
ATOM     13  O   UNL     1       2.163  -1.904  26.014  0.00  0.00    -0.388 OA
ATOM     14  H   UNL     1       1.829  -2.626  25.441  0.00  0.00    +0.210 HD
ENDBRANCH   6  13
BRANCH   2  15
ATOM     15  O   UNL     1       6.798  -3.086  26.715  0.00  0.00    -0.342 OA
BRANCH  15  16
ATOM     16  C   UNL     1       6.792  -3.909  25.542  0.00  0.00    +0.270 C 
ATOM     17  C   UNL     1       8.019  -4.877  25.445  0.00  0.00    +0.139 C 
ATOM     18  C   UNL     1       9.318  -4.105  25.137  0.00  0.00    +0.167 C 
ATOM     19  C   UNL     1       9.116  -3.136  23.957  0.00  0.00    +0.176 C 
ATOM     20  C   UNL     1       7.897  -2.257  24.242  0.00  0.00    +0.178 C 
ATOM     21  O   UNL     1       6.730  -3.082  24.374  0.00  0.00    -0.342 OA
BRANCH  17  22
ATOM     22  N   UNL     1       8.205  -5.777  26.609  0.00  0.00    -0.321 NA
ATOM     23  H   UNL     1       8.842  -5.299  27.256  0.00  0.00    +0.119 HD
ATOM     24  H   UNL     1       7.319  -5.850  27.110  0.00  0.00    +0.119 HD
ENDBRANCH  17  22
BRANCH  19  25
ATOM     25  O   UNL     1      10.307  -2.365  23.768  0.00  0.00    -0.387 OA
ATOM     26  H   UNL     1      10.151  -1.731  23.043  0.00  0.00    +0.210 HD
ENDBRANCH  19  25
BRANCH  18  27
ATOM     27  O   UNL     1      10.374  -5.034  24.823  0.00  0.00    -0.387 OA
ATOM     28  H   UNL     1      11.175  -4.714  25.281  0.00  0.00    +0.210 HD
ENDBRANCH  18  27
BRANCH  20  29
ATOM     29  C   UNL     1       7.599  -1.198  23.179  0.00  0.00    +0.190 C 
BRANCH  29  30
ATOM     30  O   UNL     1       8.243   0.039  23.459  0.00  0.00    -0.392 OA
ATOM     31  H   UNL     1       9.044   0.078  22.907  0.00  0.00    +0.210 HD
ENDBRANCH  29  30
ENDBRANCH  20  29
ENDBRANCH  15  16
ENDBRANCH   2  15
BRANCH   1  32
ATOM     32  O   UNL     1       4.622  -0.767  26.901  0.00  0.00    -0.340 OA
BRANCH  32  35
ATOM     33  C   UNL     1       6.297   2.251  26.024  0.00  0.00    +0.186 C 
ATOM     34  C   UNL     1       5.071   1.361  25.837  0.00  0.00    +0.202 C 
ATOM     35  C   UNL     1       5.595  -0.057  26.107  0.00  0.00    +0.282 C 
ATOM     36  O   UNL     1       6.853   0.080  26.764  0.00  0.00    -0.341 OA
ATOM     37  C   UNL     1       7.170   1.457  26.988  0.00  0.00    +0.178 C 
BRANCH  34  38
ATOM     38  O   UNL     1       4.453   1.498  24.557  0.00  0.00    -0.384 OA
ATOM     39  H   UNL     1       4.968   2.140  24.027  0.00  0.00    +0.210 HD
ENDBRANCH  34  38
BRANCH  37  40
ATOM     40  C   UNL     1       7.021   1.796  28.474  0.00  0.00    +0.190 C 
BRANCH  40  41
ATOM     41  O   UNL     1       7.993   1.135  29.274  0.00  0.00    -0.392 OA
ATOM     42  H   UNL     1       8.839   1.204  28.792  0.00  0.00    +0.210 HD
ENDBRANCH  40  41
ENDBRANCH  37  40
BRANCH  33  43
ATOM     43  O   UNL     1       7.112   2.408  24.847  0.00  0.00    -0.341 OA
BRANCH  43  48
ATOM     44  C   UNL     1       7.653   5.982  24.507  0.00  0.00    +0.166 C 
ATOM     45  C   UNL     1       8.095   6.095  23.032  0.00  0.00    +0.175 C 
ATOM     46  C   UNL     1       7.375   5.029  22.175  0.00  0.00    +0.167 C 
ATOM     47  C   UNL     1       7.492   3.623  22.802  0.00  0.00    +0.139 C 
ATOM     48  C   UNL     1       7.020   3.708  24.276  0.00  0.00    +0.270 C 
ATOM     49  O   UNL     1       7.851   4.634  24.979  0.00  0.00    -0.343 OA
BRANCH  47  50
ATOM     50  N   UNL     1       8.895   3.116  22.722  0.00  0.00    -0.321 NA
ATOM     51  H   UNL     1       9.389   3.731  22.060  0.00  0.00    +0.119 HD
ATOM     52  H   UNL     1       9.337   3.363  23.614  0.00  0.00    +0.119 HD
ENDBRANCH  47  50
BRANCH  46  53
ATOM     53  O   UNL     1       6.008   5.393  21.946  0.00  0.00    -0.387 OA
ATOM     54  H   UNL     1       5.466   4.606  21.763  0.00  0.00    +0.210 HD
ENDBRANCH  46  53
BRANCH  45  55
ATOM     55  O   UNL     1       9.523   5.951  22.949  0.00  0.00    -0.387 OA
ATOM     56  H   UNL     1       9.771   5.114  23.387  0.00  0.00    +0.210 HD
ENDBRANCH  45  55
BRANCH  44  57
ATOM     57  C   UNL     1       8.452   6.921  25.427  0.00  0.00    +0.112 C 
BRANCH  57  58
ATOM     58  N   UNL     1       9.511   6.185  26.136  0.00  0.00    -0.328 NA
ATOM     59  H   UNL     1      10.408   6.582  25.852  0.00  0.00    +0.118 HD
ATOM     60  H   UNL     1       9.424   6.362  27.135  0.00  0.00    +0.118 HD
ENDBRANCH  57  58
ENDBRANCH  44  57
ENDBRANCH  43  48
ENDBRANCH  33  43
ENDBRANCH  32  35
ENDBRANCH   1  32
TORSDOF 22
ENDMDL
MODEL 7
REMARK VINA RESULT:      -6.2      2.789      8.264
REMARK  Name = 
REMARK  22 active torsions:
REMARK  status: ('A' for Active; 'I' for Inactive)
REMARK    1  A    between atoms: N_1  and  C_2
REMARK    2  A    between atoms: C_2  and  C_3
REMARK    3  A    between atoms: C_6  and  O_8
REMARK    4  A    between atoms: O_8  and  C_9
REMARK    5  A    between atoms: C_11  and  C_13
REMARK    6  A    between atoms: C_13  and  O_14
REMARK    7  A    between atoms: C_16  and  O_18
REMARK    8  A    between atoms: O_18  and  C_19
REMARK    9  A    between atoms: C_21  and  O_23
REMARK   10  A    between atoms: C_24  and  N_26
REMARK   11  A    between atoms: C_28  and  N_30
REMARK   12  A    between atoms: C_31  and  O_33
REMARK   13  A    between atoms: O_33  and  C_34
REMARK   14  A    between atoms: C_37  and  C_39
REMARK   15  A    between atoms: C_39  and  O_40
REMARK   16  A    between atoms: C_41  and  O_43
REMARK   17  A    between atoms: C_44  and  O_46
REMARK   18  A    between atoms: C_47  and  N_49
REMARK   19  A    between atoms: C_50  and  O_52
REMARK   20  A    between atoms: C_53  and  N_55
REMARK   21  A    between atoms: C_56  and  O_58
REMARK   22  A    between atoms: C_59  and  O_61
REMARK                            x       y       z     vdW  Elec       q    Type
REMARK                         _______ _______ _______ _____ _____    ______ ____
ROOT
ATOM      1  C   UNL     1       8.663   2.699  24.408  0.00  0.00    +0.182 C 
ATOM      2  C   UNL     1       8.033   3.323  25.679  0.00  0.00    +0.169 C 
ATOM      3  C   UNL     1       7.969   4.881  25.654  0.00  0.00    +0.084 C 
ATOM      4  C   UNL     1       9.210   5.554  25.056  0.00  0.00    +0.042 C 
ATOM      5  C   UNL     1       9.522   5.024  23.659  0.00  0.00    +0.084 C 
ATOM      6  C   UNL     1       9.761   3.513  23.743  0.00  0.00    +0.163 C 
ENDROOT
BRANCH   3   7
ATOM      7  N   UNL     1       7.792   5.407  27.032  0.00  0.00    -0.325 NA
ATOM      8  H   UNL     1       8.509   6.108  27.227  0.00  0.00    +0.119 HD
ATOM      9  H   UNL     1       6.906   5.918  27.077  0.00  0.00    +0.119 HD
ENDBRANCH   3   7
BRANCH   5  10
ATOM     10  N   UNL     1      10.772   5.655  23.163  0.00  0.00    -0.325 NA
ATOM     11  H   UNL     1      11.529   4.966  23.195  0.00  0.00    +0.119 HD
ATOM     12  H   UNL     1      10.633   5.795  22.153  0.00  0.00    +0.119 HD
ENDBRANCH   5  10
BRANCH   6  13
ATOM     13  O   UNL     1      10.039   2.972  22.440  0.00  0.00    -0.388 OA
ATOM     14  H   UNL     1      10.202   2.019  22.599  0.00  0.00    +0.210 HD
ENDBRANCH   6  13
BRANCH   2  15
ATOM     15  O   UNL     1       6.664   2.844  25.900  0.00  0.00    -0.342 OA
BRANCH  15  16
ATOM     16  C   UNL     1       6.552   1.821  26.897  0.00  0.00    +0.270 C 
ATOM     17  C   UNL     1       5.217   1.009  26.819  0.00  0.00    +0.139 C 
ATOM     18  C   UNL     1       4.016   1.861  27.279  0.00  0.00    +0.167 C 
ATOM     19  C   UNL     1       4.317   2.559  28.618  0.00  0.00    +0.176 C 
ATOM     20  C   UNL     1       5.637   3.321  28.494  0.00  0.00    +0.178 C 
ATOM     21  O   UNL     1       6.698   2.399  28.199  0.00  0.00    -0.342 OA
BRANCH  17  22
ATOM     22  N   UNL     1       4.940   0.373  25.508  0.00  0.00    -0.321 NA
ATOM     23  H   UNL     1       4.239   0.957  25.037  0.00  0.00    +0.119 HD
ATOM     24  H   UNL     1       5.778   0.440  24.930  0.00  0.00    +0.119 HD
ENDBRANCH  17  22
BRANCH  19  25
ATOM     25  O   UNL     1       3.225   3.421  28.959  0.00  0.00    -0.387 OA
ATOM     26  H   UNL     1       3.581   4.193  29.436  0.00  0.00    +0.210 HD
ENDBRANCH  19  25
BRANCH  18  27
ATOM     27  O   UNL     1       2.851   1.026  27.420  0.00  0.00    -0.387 OA
ATOM     28  H   UNL     1       2.632   0.695  26.528  0.00  0.00    +0.210 HD
ENDBRANCH  18  27
BRANCH  20  29
ATOM     29  C   UNL     1       6.045   4.117  29.735  0.00  0.00    +0.190 C 
BRANCH  29  30
ATOM     30  O   UNL     1       7.453   4.304  29.814  0.00  0.00    -0.392 OA
ATOM     31  H   UNL     1       7.807   3.598  30.382  0.00  0.00    +0.210 HD
ENDBRANCH  29  30
ENDBRANCH  20  29
ENDBRANCH  15  16
ENDBRANCH   2  15
BRANCH   1  32
ATOM     32  O   UNL     1       9.155   1.341  24.604  0.00  0.00    -0.340 OA
BRANCH  32  35
ATOM     33  C   UNL     1       7.660  -1.396  22.884  0.00  0.00    +0.186 C 
ATOM     34  C   UNL     1       7.680   0.110  23.130  0.00  0.00    +0.202 C 
ATOM     35  C   UNL     1       8.215   0.247  24.563  0.00  0.00    +0.282 C 
ATOM     36  O   UNL     1       8.806  -1.003  24.910  0.00  0.00    -0.341 OA
ATOM     37  C   UNL     1       8.745  -1.923  23.817  0.00  0.00    +0.178 C 
BRANCH  34  38
ATOM     38  O   UNL     1       6.412   0.738  22.941  0.00  0.00    -0.384 OA
ATOM     39  H   UNL     1       5.716   0.157  23.311  0.00  0.00    +0.210 HD
ENDBRANCH  34  38
BRANCH  37  40
ATOM     40  C   UNL     1      10.137  -2.105  23.204  0.00  0.00    +0.190 C 
BRANCH  40  41
ATOM     41  O   UNL     1      10.168  -1.746  21.829  0.00  0.00    -0.392 OA
ATOM     42  H   UNL     1       9.483  -2.284  21.389  0.00  0.00    +0.210 HD
ENDBRANCH  40  41
ENDBRANCH  37  40
BRANCH  33  43
ATOM     43  O   UNL     1       6.459  -2.062  23.317  0.00  0.00    -0.341 OA
BRANCH  43  48
ATOM     44  C   UNL     1       5.640  -5.491  24.181  0.00  0.00    +0.166 C 
ATOM     45  C   UNL     1       5.794  -6.205  22.820  0.00  0.00    +0.175 C 
ATOM     46  C   UNL     1       6.920  -5.543  21.995  0.00  0.00    +0.167 C 
ATOM     47  C   UNL     1       6.750  -4.010  21.930  0.00  0.00    +0.139 C 
ATOM     48  C   UNL     1       6.598  -3.476  23.378  0.00  0.00    +0.270 C 
ATOM     49  O   UNL     1       5.448  -4.077  23.977  0.00  0.00    -0.343 OA
BRANCH  47  50
ATOM     50  N   UNL     1       5.566  -3.636  21.100  0.00  0.00    -0.321 NA
ATOM     51  H   UNL     1       5.077  -4.516  20.880  0.00  0.00    +0.119 HD
ATOM     52  H   UNL     1       4.906  -3.178  21.737  0.00  0.00    +0.119 HD
ENDBRANCH  47  50
BRANCH  46  53
ATOM     53  O   UNL     1       8.210  -5.910  22.499  0.00  0.00    -0.387 OA
ATOM     54  H   UNL     1       8.824  -5.155  22.464  0.00  0.00    +0.210 HD
ENDBRANCH  46  53
BRANCH  45  55
ATOM     55  O   UNL     1       4.541  -6.166  22.116  0.00  0.00    -0.387 OA
ATOM     56  H   UNL     1       4.248  -7.085  21.965  0.00  0.00    +0.210 HD
ENDBRANCH  45  55
BRANCH  44  57
ATOM     57  C   UNL     1       4.433  -6.016  24.978  0.00  0.00    +0.112 C 
BRANCH  57  58
ATOM     58  N   UNL     1       4.156  -7.422  24.646  0.00  0.00    -0.328 NA
ATOM     59  H   UNL     1       3.157  -7.502  24.446  0.00  0.00    +0.118 HD
ATOM     60  H   UNL     1       4.639  -7.659  23.781  0.00  0.00    +0.118 HD
ENDBRANCH  57  58
ENDBRANCH  44  57
ENDBRANCH  43  48
ENDBRANCH  33  43
ENDBRANCH  32  35
ENDBRANCH   1  32
TORSDOF 22
ENDMDL
MODEL 8
REMARK VINA RESULT:      -6.2      2.768      5.344
REMARK  Name = 
REMARK  22 active torsions:
REMARK  status: ('A' for Active; 'I' for Inactive)
REMARK    1  A    between atoms: N_1  and  C_2
REMARK    2  A    between atoms: C_2  and  C_3
REMARK    3  A    between atoms: C_6  and  O_8
REMARK    4  A    between atoms: O_8  and  C_9
REMARK    5  A    between atoms: C_11  and  C_13
REMARK    6  A    between atoms: C_13  and  O_14
REMARK    7  A    between atoms: C_16  and  O_18
REMARK    8  A    between atoms: O_18  and  C_19
REMARK    9  A    between atoms: C_21  and  O_23
REMARK   10  A    between atoms: C_24  and  N_26
REMARK   11  A    between atoms: C_28  and  N_30
REMARK   12  A    between atoms: C_31  and  O_33
REMARK   13  A    between atoms: O_33  and  C_34
REMARK   14  A    between atoms: C_37  and  C_39
REMARK   15  A    between atoms: C_39  and  O_40
REMARK   16  A    between atoms: C_41  and  O_43
REMARK   17  A    between atoms: C_44  and  O_46
REMARK   18  A    between atoms: C_47  and  N_49
REMARK   19  A    between atoms: C_50  and  O_52
REMARK   20  A    between atoms: C_53  and  N_55
REMARK   21  A    between atoms: C_56  and  O_58
REMARK   22  A    between atoms: C_59  and  O_61
REMARK                            x       y       z     vdW  Elec       q    Type
REMARK                         _______ _______ _______ _____ _____    ______ ____
ROOT
ATOM      1  C   UNL     1       6.465  -4.797  24.707  0.00  0.00    +0.182 C 
ATOM      2  C   UNL     1       4.925  -4.724  24.558  0.00  0.00    +0.169 C 
ATOM      3  C   UNL     1       4.354  -5.642  23.433  0.00  0.00    +0.084 C 
ATOM      4  C   UNL     1       5.204  -5.679  22.158  0.00  0.00    +0.042 C 
ATOM      5  C   UNL     1       6.651  -6.060  22.455  0.00  0.00    +0.084 C 
ATOM      6  C   UNL     1       7.247  -5.035  23.424  0.00  0.00    +0.163 C 
ENDROOT
BRANCH   3   7
ATOM      7  N   UNL     1       2.990  -5.193  23.052  0.00  0.00    -0.325 NA
ATOM      8  H   UNL     1       2.727  -4.379  23.612  0.00  0.00    +0.119 HD
ATOM      9  H   UNL     1       3.015  -4.851  22.088  0.00  0.00    +0.119 HD
ENDBRANCH   3   7
BRANCH   5  10
ATOM     10  N   UNL     1       7.440  -6.008  21.197  0.00  0.00    -0.325 NA
ATOM     11  H   UNL     1       7.174  -6.798  20.603  0.00  0.00    +0.119 HD
ATOM     12  H   UNL     1       7.080  -5.197  20.674  0.00  0.00    +0.119 HD
ENDBRANCH   5  10
BRANCH   6  13
ATOM     13  O   UNL     1       8.606  -5.372  23.745  0.00  0.00    -0.388 OA
ATOM     14  H   UNL     1       8.759  -4.969  24.626  0.00  0.00    +0.210 HD
ENDBRANCH   6  13
BRANCH   2  15
ATOM     15  O   UNL     1       4.239  -5.097  25.800  0.00  0.00    -0.342 OA
BRANCH  15  16
ATOM     16  C   UNL     1       4.179  -6.509  26.037  0.00  0.00    +0.270 C 
ATOM     17  C   UNL     1       2.774  -7.008  26.514  0.00  0.00    +0.139 C 
ATOM     18  C   UNL     1       2.480  -6.554  27.959  0.00  0.00    +0.167 C 
ATOM     19  C   UNL     1       3.668  -6.865  28.886  0.00  0.00    +0.176 C 
ATOM     20  C   UNL     1       4.942  -6.279  28.274  0.00  0.00    +0.178 C 
ATOM     21  O   UNL     1       5.179  -6.880  26.992  0.00  0.00    -0.342 OA
BRANCH  17  22
ATOM     22  N   UNL     1       1.645  -6.667  25.615  0.00  0.00    -0.321 NA
ATOM     23  H   UNL     1       2.033  -6.105  24.850  0.00  0.00    +0.119 HD
ATOM     24  H   UNL     1       1.308  -7.524  25.175  0.00  0.00    +0.119 HD
ENDBRANCH  17  22
BRANCH  19  25
ATOM     25  O   UNL     1       3.403  -6.338  30.191  0.00  0.00    -0.387 OA
ATOM     26  H   UNL     1       2.509  -5.948  30.188  0.00  0.00    +0.210 HD
ENDBRANCH  19  25
BRANCH  18  27
ATOM     27  O   UNL     1       1.299  -7.219  28.448  0.00  0.00    -0.387 OA
ATOM     28  H   UNL     1       1.323  -8.130  28.096  0.00  0.00    +0.210 HD
ENDBRANCH  18  27
BRANCH  20  29
ATOM     29  C   UNL     1       6.207  -6.459  29.113  0.00  0.00    +0.190 C 
BRANCH  29  30
ATOM     30  O   UNL     1       7.384  -6.469  28.315  0.00  0.00    -0.392 OA
ATOM     31  H   UNL     1       7.272  -5.790  27.627  0.00  0.00    +0.210 HD
ENDBRANCH  29  30
ENDBRANCH  20  29
ENDBRANCH  15  16
ENDBRANCH   2  15
BRANCH   1  32
ATOM     32  O   UNL     1       7.043  -3.644  25.387  0.00  0.00    -0.340 OA
BRANCH  32  35
ATOM     33  C   UNL     1       7.479  -0.137  24.947  0.00  0.00    +0.186 C 
ATOM     34  C   UNL     1       6.547  -1.341  24.829  0.00  0.00    +0.202 C 
ATOM     35  C   UNL     1       7.497  -2.525  24.598  0.00  0.00    +0.282 C 
ATOM     36  O   UNL     1       8.806  -2.089  24.958  0.00  0.00    -0.341 OA
ATOM     37  C   UNL     1       8.784  -0.744  25.446  0.00  0.00    +0.178 C 
BRANCH  34  38
ATOM     38  O   UNL     1       5.560  -1.204  23.807  0.00  0.00    -0.384 OA
ATOM     39  H   UNL     1       4.777  -1.737  24.055  0.00  0.00    +0.210 HD
ENDBRANCH  34  38
BRANCH  37  40
ATOM     40  C   UNL     1       9.003  -0.732  26.962  0.00  0.00    +0.190 C 
BRANCH  40  41
ATOM     41  O   UNL     1       8.146   0.192  27.619  0.00  0.00    -0.392 OA
ATOM     42  H   UNL     1       7.939  -0.196  28.490  0.00  0.00    +0.210 HD
ENDBRANCH  40  41
ENDBRANCH  37  40
BRANCH  33  43
ATOM     43  O   UNL     1       7.826   0.482  23.694  0.00  0.00    -0.341 OA
BRANCH  43  48
ATOM     44  C   UNL     1       7.511   3.999  24.536  0.00  0.00    +0.166 C 
ATOM     45  C   UNL     1       7.721   4.672  23.162  0.00  0.00    +0.175 C 
ATOM     46  C   UNL     1       7.150   3.780  22.037  0.00  0.00    +0.167 C 
ATOM     47  C   UNL     1       7.656   2.326  22.153  0.00  0.00    +0.139 C 
ATOM     48  C   UNL     1       7.374   1.827  23.594  0.00  0.00    +0.270 C 
ATOM     49  O   UNL     1       8.063   2.668  24.522  0.00  0.00    -0.343 OA
BRANCH  47  50
ATOM     50  N   UNL     1       9.114   2.240  21.838  0.00  0.00    -0.321 NA
ATOM     51  H   UNL     1       9.609   2.645  22.645  0.00  0.00    +0.119 HD
ATOM     52  H   UNL     1       9.362   1.247  21.912  0.00  0.00    +0.119 HD
ENDBRANCH  47  50
BRANCH  46  53
ATOM     53  O   UNL     1       5.718   3.839  22.012  0.00  0.00    -0.387 OA
ATOM     54  H   UNL     1       5.394   4.002  21.109  0.00  0.00    +0.210 HD
ENDBRANCH  46  53
BRANCH  45  55
ATOM     55  O   UNL     1       9.122   4.926  22.964  0.00  0.00    -0.387 OA
ATOM     56  H   UNL     1       9.626   4.254  23.461  0.00  0.00    +0.210 HD
ENDBRANCH  45  55
BRANCH  44  57
ATOM     57  C   UNL     1       8.195   4.776  25.674  0.00  0.00    +0.112 C 
BRANCH  57  58
ATOM     58  N   UNL     1       8.076   6.227  25.464  0.00  0.00    -0.328 NA
ATOM     59  H   UNL     1       7.811   6.378  24.489  0.00  0.00    +0.118 HD
ATOM     60  H   UNL     1       7.305   6.581  26.027  0.00  0.00    +0.118 HD
ENDBRANCH  57  58
ENDBRANCH  44  57
ENDBRANCH  43  48
ENDBRANCH  33  43
ENDBRANCH  32  35
ENDBRANCH   1  32
TORSDOF 22
ENDMDL
MODEL 9
REMARK VINA RESULT:      -6.2      2.440      8.166
REMARK  Name = 
REMARK  22 active torsions:
REMARK  status: ('A' for Active; 'I' for Inactive)
REMARK    1  A    between atoms: N_1  and  C_2
REMARK    2  A    between atoms: C_2  and  C_3
REMARK    3  A    between atoms: C_6  and  O_8
REMARK    4  A    between atoms: O_8  and  C_9
REMARK    5  A    between atoms: C_11  and  C_13
REMARK    6  A    between atoms: C_13  and  O_14
REMARK    7  A    between atoms: C_16  and  O_18
REMARK    8  A    between atoms: O_18  and  C_19
REMARK    9  A    between atoms: C_21  and  O_23
REMARK   10  A    between atoms: C_24  and  N_26
REMARK   11  A    between atoms: C_28  and  N_30
REMARK   12  A    between atoms: C_31  and  O_33
REMARK   13  A    between atoms: O_33  and  C_34
REMARK   14  A    between atoms: C_37  and  C_39
REMARK   15  A    between atoms: C_39  and  O_40
REMARK   16  A    between atoms: C_41  and  O_43
REMARK   17  A    between atoms: C_44  and  O_46
REMARK   18  A    between atoms: C_47  and  N_49
REMARK   19  A    between atoms: C_50  and  O_52
REMARK   20  A    between atoms: C_53  and  N_55
REMARK   21  A    between atoms: C_56  and  O_58
REMARK   22  A    between atoms: C_59  and  O_61
REMARK                            x       y       z     vdW  Elec       q    Type
REMARK                         _______ _______ _______ _____ _____    ______ ____
ROOT
ATOM      1  C   UNL     1       8.630  -1.156  24.593  0.00  0.00    +0.182 C 
ATOM      2  C   UNL     1       8.267   0.342  24.438  0.00  0.00    +0.169 C 
ATOM      3  C   UNL     1       8.462   0.894  22.992  0.00  0.00    +0.084 C 
ATOM      4  C   UNL     1       9.720   0.376  22.284  0.00  0.00    +0.042 C 
ATOM      5  C   UNL     1       9.772  -1.148  22.270  0.00  0.00    +0.084 C 
ATOM      6  C   UNL     1       9.763  -1.660  23.714  0.00  0.00    +0.163 C 
ENDROOT
BRANCH   3   7
ATOM      7  N   UNL     1       8.539   2.378  23.019  0.00  0.00    -0.325 NA
ATOM      8  H   UNL     1       9.412   2.684  22.586  0.00  0.00    +0.119 HD
ATOM      9  H   UNL     1       7.801   2.755  22.418  0.00  0.00    +0.119 HD
ENDBRANCH   3   7
BRANCH   5  10
ATOM     10  N   UNL     1      11.043  -1.589  21.640  0.00  0.00    -0.325 NA
ATOM     11  H   UNL     1      11.806  -0.993  21.974  0.00  0.00    +0.119 HD
ATOM     12  H   UNL     1      11.264  -2.502  22.062  0.00  0.00    +0.119 HD
ENDBRANCH   5  10
BRANCH   6  13
ATOM     13  O   UNL     1       9.791  -3.097  23.741  0.00  0.00    -0.388 OA
ATOM     14  H   UNL     1       9.969  -3.322  24.679  0.00  0.00    +0.210 HD
ENDBRANCH   6  13
BRANCH   2  15
ATOM     15  O   UNL     1       6.873   0.606  24.810  0.00  0.00    -0.342 OA
BRANCH  15  16
ATOM     16  C   UNL     1       6.695   1.756  25.647  0.00  0.00    +0.270 C 
ATOM     17  C   UNL     1       5.627   1.555  26.774  0.00  0.00    +0.139 C 
ATOM     18  C   UNL     1       4.200   1.516  26.191  0.00  0.00    +0.167 C 
ATOM     19  C   UNL     1       3.966   2.694  25.227  0.00  0.00    +0.176 C 
ATOM     20  C   UNL     1       5.087   2.712  24.186  0.00  0.00    +0.178 C 
ATOM     21  O   UNL     1       6.350   2.889  24.843  0.00  0.00    -0.342 OA
BRANCH  17  22
ATOM     22  N   UNL     1       5.863   0.395  27.667  0.00  0.00    -0.321 NA
ATOM     23  H   UNL     1       6.801   0.512  28.066  0.00  0.00    +0.119 HD
ATOM     24  H   UNL     1       5.223   0.458  28.460  0.00  0.00    +0.119 HD
ENDBRANCH  17  22
BRANCH  19  25
ATOM     25  O   UNL     1       2.672   2.566  24.627  0.00  0.00    -0.387 OA
ATOM     26  H   UNL     1       2.159   3.370  24.831  0.00  0.00    +0.210 HD
ENDBRANCH  19  25
BRANCH  18  27
ATOM     27  O   UNL     1       3.235   1.567  27.259  0.00  0.00    -0.387 OA
ATOM     28  H   UNL     1       3.285   2.466  27.640  0.00  0.00    +0.210 HD
ENDBRANCH  18  27
BRANCH  20  29
ATOM     29  C   UNL     1       4.962   3.800  23.118  0.00  0.00    +0.190 C 
BRANCH  29  30
ATOM     30  O   UNL     1       5.845   3.582  22.025  0.00  0.00    -0.392 OA
ATOM     31  H   UNL     1       6.562   3.007  22.343  0.00  0.00    +0.210 HD
ENDBRANCH  29  30
ENDBRANCH  20  29
ENDBRANCH  15  16
ENDBRANCH   2  15
BRANCH   1  32
ATOM     32  O   UNL     1       8.907  -1.553  25.969  0.00  0.00    -0.340 OA
BRANCH  32  35
ATOM     33  C   UNL     1       6.536  -4.211  25.951  0.00  0.00    +0.186 C 
ATOM     34  C   UNL     1       6.809  -2.731  25.694  0.00  0.00    +0.202 C 
ATOM     35  C   UNL     1       7.955  -2.391  26.657  0.00  0.00    +0.282 C 
ATOM     36  O   UNL     1       8.518  -3.626  27.092  0.00  0.00    -0.341 OA
ATOM     37  C   UNL     1       7.873  -4.736  26.461  0.00  0.00    +0.178 C 
BRANCH  34  38
ATOM     38  O   UNL     1       5.663  -1.898  25.866  0.00  0.00    -0.384 OA
ATOM     39  H   UNL     1       5.940  -0.962  25.781  0.00  0.00    +0.210 HD
ENDBRANCH  34  38
BRANCH  37  40
ATOM     40  C   UNL     1       8.801  -5.358  25.414  0.00  0.00    +0.190 C 
BRANCH  40  41
ATOM     41  O   UNL     1      10.157  -5.373  25.841  0.00  0.00    -0.392 OA
ATOM     42  H   UNL     1      10.493  -6.271  25.659  0.00  0.00    +0.210 HD
ENDBRANCH  40  41
ENDBRANCH  37  40
BRANCH  33  43
ATOM     43  O   UNL     1       5.613  -4.475  27.025  0.00  0.00    -0.341 OA
BRANCH  43  48
ATOM     44  C   UNL     1       3.172  -5.823  24.701  0.00  0.00    +0.166 C 
ATOM     45  C   UNL     1       2.629  -7.039  25.484  0.00  0.00    +0.175 C 
ATOM     46  C   UNL     1       2.621  -6.738  26.999  0.00  0.00    +0.167 C 
ATOM     47  C   UNL     1       3.982  -6.189  27.477  0.00  0.00    +0.139 C 
ATOM     48  C   UNL     1       4.367  -4.990  26.572  0.00  0.00    +0.270 C 
ATOM     49  O   UNL     1       4.461  -5.439  25.219  0.00  0.00    -0.343 OA
BRANCH  47  50
ATOM     50  N   UNL     1       5.034  -7.249  27.429  0.00  0.00    -0.321 NA
ATOM     51  H   UNL     1       5.443  -7.208  26.484  0.00  0.00    +0.119 HD
ATOM     52  H   UNL     1       5.807  -6.908  28.011  0.00  0.00    +0.119 HD
ENDBRANCH  47  50
BRANCH  46  53
ATOM     53  O   UNL     1       1.546  -5.854  27.341  0.00  0.00    -0.387 OA
ATOM     54  H   UNL     1       0.848  -5.878  26.664  0.00  0.00    +0.210 HD
ENDBRANCH  46  53
BRANCH  45  55
ATOM     55  O   UNL     1       3.433  -8.194  25.187  0.00  0.00    -0.387 OA
ATOM     56  H   UNL     1       3.872  -8.479  26.011  0.00  0.00    +0.210 HD
ENDBRANCH  45  55
BRANCH  44  57
ATOM     57  C   UNL     1       3.342  -6.125  23.202  0.00  0.00    +0.112 C 
BRANCH  57  58
ATOM     58  N   UNL     1       4.745  -6.433  22.885  0.00  0.00    -0.328 NA
ATOM     59  H   UNL     1       5.325  -5.703  23.303  0.00  0.00    +0.118 HD
ATOM     60  H   UNL     1       5.005  -7.303  23.347  0.00  0.00    +0.118 HD
ENDBRANCH  57  58
ENDBRANCH  44  57
ENDBRANCH  43  48
ENDBRANCH  33  43
ENDBRANCH  32  35
ENDBRANCH   1  32
TORSDOF 22
ENDMDL
