MODEL 1
REMARK VINA RESULT:      -4.9      0.000      0.000
REMARK  Name = 
REMARK  13 active torsions:
REMARK  status: ('A' for Active; 'I' for Inactive)
REMARK    1  A    between atoms: N_1  and  C_2
REMARK    2  A    between atoms: C_2  and  C_3
REMARK    3  A    between atoms: C_3  and  C_4
REMARK    4  A    between atoms: C_4  and  C_6
REMARK    5  A    between atoms: C_4  and  C_10
REMARK    6  A    between atoms: C_6  and  C_7
REMARK    7  A    between atoms: C_7  and  O_8
REMARK    8  A    between atoms: C_10  and  C_12
REMARK    9  A    between atoms: C_10  and  C_14
REMARK   10  A    between atoms: C_12  and  N_13
REMARK   11  A    between atoms: C_14  and  C_15
REMARK   12  A    between atoms: C_15  and  C_16
REMARK   13  A    between atoms: C_16  and  O_17
REMARK                            x       y       z     vdW  Elec       q    Type
REMARK                         _______ _______ _______ _____ _____    ______ ____
ROOT
ATOM      1  C   UNL     1       7.998  -3.762  22.845  0.00  0.00    +0.005 C 
ENDROOT
BRANCH   1   2
ATOM      2  C   UNL     1       6.633  -4.019  22.148  0.00  0.00    +0.019 C 
BRANCH   2   3
ATOM      3  C   UNL     1       6.501  -5.345  21.393  0.00  0.00    +0.078 C 
BRANCH   3   4
ATOM      4  N   UNL     1       5.745  -6.324  22.165  0.00  0.00    -0.330 NA
ATOM      5  H   UNL     1       5.445  -5.890  23.042  0.00  0.00    +0.118 HD
ATOM      6  H   UNL     1       4.875  -6.528  21.667  0.00  0.00    +0.118 HD
ENDBRANCH   3   4
ENDBRANCH   2   3
ENDBRANCH   1   2
BRANCH   1   7
ATOM      7  C   UNL     1       8.100  -4.509  24.230  0.00  0.00    +0.007 C 
BRANCH   7   8
ATOM      8  C   UNL     1       6.948  -4.135  25.206  0.00  0.00    +0.016 C 
BRANCH   8   9
ATOM      9  C   UNL     1       6.341  -5.315  25.967  0.00  0.00    +0.121 C 
BRANCH   9  10
ATOM     10  C   UNL     1       6.849  -5.351  27.392  0.00  0.00    +0.305 C 
ATOM     11  O   UNL     1       6.253  -4.890  28.354  0.00  0.00    -0.251 OA
BRANCH  10  12
ATOM     12  O   UNL     1       8.023  -6.004  27.522  0.00  0.00    -0.481 OA
ATOM     13  H   UNL     1       8.007  -6.927  27.212  0.00  0.00    +0.295 HD
ENDBRANCH  10  12
ENDBRANCH   9  10
ENDBRANCH   8   9
ENDBRANCH   7   8
BRANCH   7  14
ATOM     14  C   UNL     1       9.479  -4.291  24.906  0.00  0.00    +0.081 C 
BRANCH  14  15
ATOM     15  N   UNL     1      10.113  -5.536  25.332  0.00  0.00    -0.330 NA
ATOM     16  H   UNL     1       9.411  -6.277  25.353  0.00  0.00    +0.118 HD
ATOM     17  H   UNL     1      10.799  -5.837  24.641  0.00  0.00    +0.118 HD
ENDBRANCH  14  15
ENDBRANCH   7  14
ENDBRANCH   1   7
BRANCH   1  18
ATOM     18  C   UNL     1       8.265  -2.242  22.949  0.00  0.00    +0.124 C 
BRANCH  18  19
ATOM     19  C   UNL     1       9.506  -1.775  22.227  0.00  0.00    +0.305 C 
ATOM     20  O   UNL     1      10.643  -2.006  22.608  0.00  0.00    -0.251 OA
BRANCH  19  21
ATOM     21  O   UNL     1       9.244  -1.035  21.127  0.00  0.00    -0.481 OA
ATOM     22  H   UNL     1      10.046  -0.753  20.649  0.00  0.00    +0.295 HD
ENDBRANCH  19  21
ENDBRANCH  18  19
ENDBRANCH   1  18
TORSDOF 13
ENDMDL
MODEL 2
REMARK VINA RESULT:      -4.9      1.931      2.176
REMARK  Name = 
REMARK  13 active torsions:
REMARK  status: ('A' for Active; 'I' for Inactive)
REMARK    1  A    between atoms: N_1  and  C_2
REMARK    2  A    between atoms: C_2  and  C_3
REMARK    3  A    between atoms: C_3  and  C_4
REMARK    4  A    between atoms: C_4  and  C_6
REMARK    5  A    between atoms: C_4  and  C_10
REMARK    6  A    between atoms: C_6  and  C_7
REMARK    7  A    between atoms: C_7  and  O_8
REMARK    8  A    between atoms: C_10  and  C_12
REMARK    9  A    between atoms: C_10  and  C_14
REMARK   10  A    between atoms: C_12  and  N_13
REMARK   11  A    between atoms: C_14  and  C_15
REMARK   12  A    between atoms: C_15  and  C_16
REMARK   13  A    between atoms: C_16  and  O_17
REMARK                            x       y       z     vdW  Elec       q    Type
REMARK                         _______ _______ _______ _____ _____    ______ ____
ROOT
ATOM      1  C   UNL     1       7.941  -4.238  23.503  0.00  0.00    +0.005 C 
ENDROOT
BRANCH   1   2
ATOM      2  C   UNL     1       7.147  -4.530  22.199  0.00  0.00    +0.019 C 
BRANCH   2   3
ATOM      3  C   UNL     1       7.008  -6.005  21.810  0.00  0.00    +0.078 C 
BRANCH   3   4
ATOM      4  N   UNL     1       5.611  -6.377  21.621  0.00  0.00    -0.330 NA
ATOM      5  H   UNL     1       5.555  -7.070  20.871  0.00  0.00    +0.118 HD
ATOM      6  H   UNL     1       5.291  -6.873  22.456  0.00  0.00    +0.118 HD
ENDBRANCH   3   4
ENDBRANCH   2   3
ENDBRANCH   1   2
BRANCH   1   7
ATOM      7  C   UNL     1       7.413  -5.097  24.716  0.00  0.00    +0.007 C 
BRANCH   7   8
ATOM      8  C   UNL     1       6.130  -4.504  25.365  0.00  0.00    +0.016 C 
BRANCH   8   9
ATOM      9  C   UNL     1       4.823  -5.170  24.930  0.00  0.00    +0.121 C 
BRANCH   9  10
ATOM     10  C   UNL     1       4.837  -6.645  25.267  0.00  0.00    +0.305 C 
ATOM     11  O   UNL     1       5.075  -7.103  26.375  0.00  0.00    -0.251 OA
BRANCH  10  12
ATOM     12  O   UNL     1       4.498  -7.432  24.223  0.00  0.00    -0.481 OA
ATOM     13  H   UNL     1       4.844  -8.340  24.274  0.00  0.00    +0.295 HD
ENDBRANCH  10  12
ENDBRANCH   9  10
ENDBRANCH   8   9
ENDBRANCH   7   8
BRANCH   7  14
ATOM     14  C   UNL     1       8.512  -5.321  25.789  0.00  0.00    +0.081 C 
BRANCH  14  15
ATOM     15  N   UNL     1       9.805  -5.685  25.218  0.00  0.00    -0.330 NA
ATOM     16  H   UNL     1      10.031  -6.643  25.486  0.00  0.00    +0.118 HD
ATOM     17  H   UNL     1       9.751  -5.698  24.200  0.00  0.00    +0.118 HD
ENDBRANCH  14  15
ENDBRANCH   7  14
ENDBRANCH   1   7
BRANCH   1  18
ATOM     18  C   UNL     1       7.955  -2.719  23.789  0.00  0.00    +0.124 C 
BRANCH  18  19
ATOM     19  C   UNL     1       9.328  -2.092  23.772  0.00  0.00    +0.305 C 
ATOM     20  O   UNL     1       9.526  -0.889  23.695  0.00  0.00    -0.251 OA
BRANCH  19  21
ATOM     21  O   UNL     1      10.333  -2.994  23.811  0.00  0.00    -0.481 OA
ATOM     22  H   UNL     1      11.100  -2.745  23.262  0.00  0.00    +0.295 HD
ENDBRANCH  19  21
ENDBRANCH  18  19
ENDBRANCH   1  18
TORSDOF 13
ENDMDL
MODEL 3
REMARK VINA RESULT:      -4.9      3.081      3.784
REMARK  Name = 
REMARK  13 active torsions:
REMARK  status: ('A' for Active; 'I' for Inactive)
REMARK    1  A    between atoms: N_1  and  C_2
REMARK    2  A    between atoms: C_2  and  C_3
REMARK    3  A    between atoms: C_3  and  C_4
REMARK    4  A    between atoms: C_4  and  C_6
REMARK    5  A    between atoms: C_4  and  C_10
REMARK    6  A    between atoms: C_6  and  C_7
REMARK    7  A    between atoms: C_7  and  O_8
REMARK    8  A    between atoms: C_10  and  C_12
REMARK    9  A    between atoms: C_10  and  C_14
REMARK   10  A    between atoms: C_12  and  N_13
REMARK   11  A    between atoms: C_14  and  C_15
REMARK   12  A    between atoms: C_15  and  C_16
REMARK   13  A    between atoms: C_16  and  O_17
REMARK                            x       y       z     vdW  Elec       q    Type
REMARK                         _______ _______ _______ _____ _____    ______ ____
ROOT
ATOM      1  C   UNL     1       7.410  -4.190  23.512  0.00  0.00    +0.005 C 
ENDROOT
BRANCH   1   2
ATOM      2  C   UNL     1       8.482  -3.066  23.440  0.00  0.00    +0.019 C 
BRANCH   2   3
ATOM      3  C   UNL     1       8.413  -2.147  22.217  0.00  0.00    +0.078 C 
BRANCH   3   4
ATOM      4  N   UNL     1       9.746  -1.794  21.741  0.00  0.00    -0.330 NA
ATOM      5  H   UNL     1       9.738  -1.790  20.718  0.00  0.00    +0.118 HD
ATOM      6  H   UNL     1       9.938  -0.825  22.002  0.00  0.00    +0.118 HD
ENDBRANCH   3   4
ENDBRANCH   2   3
ENDBRANCH   1   2
BRANCH   1   7
ATOM      7  C   UNL     1       7.582  -5.084  24.800  0.00  0.00    +0.007 C 
BRANCH   7   8
ATOM      8  C   UNL     1       6.395  -4.945  25.795  0.00  0.00    +0.016 C 
BRANCH   8   9
ATOM      9  C   UNL     1       5.473  -6.164  25.871  0.00  0.00    +0.121 C 
BRANCH   9  10
ATOM     10  C   UNL     1       4.576  -6.233  24.655  0.00  0.00    +0.305 C 
ATOM     11  O   UNL     1       3.973  -5.282  24.181  0.00  0.00    -0.251 OA
BRANCH  10  12
ATOM     12  O   UNL     1       4.542  -7.458  24.088  0.00  0.00    -0.481 OA
ATOM     13  H   UNL     1       4.404  -7.453  23.125  0.00  0.00    +0.295 HD
ENDBRANCH  10  12
ENDBRANCH   9  10
ENDBRANCH   8   9
ENDBRANCH   7   8
BRANCH   7  14
ATOM     14  C   UNL     1       8.930  -4.813  25.518  0.00  0.00    +0.081 C 
BRANCH  14  15
ATOM     15  N   UNL     1       9.945  -5.822  25.233  0.00  0.00    -0.330 NA
ATOM     16  H   UNL     1       9.906  -6.064  24.242  0.00  0.00    +0.118 HD
ATOM     17  H   UNL     1      10.878  -5.436  25.377  0.00  0.00    +0.118 HD
ENDBRANCH  14  15
ENDBRANCH   7  14
ENDBRANCH   1   7
BRANCH   1  18
ATOM     18  C   UNL     1       7.403  -5.004  22.198  0.00  0.00    +0.124 C 
BRANCH  18  19
ATOM     19  C   UNL     1       6.095  -4.968  21.446  0.00  0.00    +0.305 C 
ATOM     20  O   UNL     1       5.662  -3.976  20.880  0.00  0.00    -0.251 OA
BRANCH  19  21
ATOM     21  O   UNL     1       5.417  -6.136  21.487  0.00  0.00    -0.481 OA
ATOM     22  H   UNL     1       5.981  -6.905  21.692  0.00  0.00    +0.295 HD
ENDBRANCH  19  21
ENDBRANCH  18  19
ENDBRANCH   1  18
TORSDOF 13
ENDMDL
MODEL 4
REMARK VINA RESULT:      -4.9      3.759      5.122
REMARK  Name = 
REMARK  13 active torsions:
REMARK  status: ('A' for Active; 'I' for Inactive)
REMARK    1  A    between atoms: N_1  and  C_2
REMARK    2  A    between atoms: C_2  and  C_3
REMARK    3  A    between atoms: C_3  and  C_4
REMARK    4  A    between atoms: C_4  and  C_6
REMARK    5  A    between atoms: C_4  and  C_10
REMARK    6  A    between atoms: C_6  and  C_7
REMARK    7  A    between atoms: C_7  and  O_8
REMARK    8  A    between atoms: C_10  and  C_12
REMARK    9  A    between atoms: C_10  and  C_14
REMARK   10  A    between atoms: C_12  and  N_13
REMARK   11  A    between atoms: C_14  and  C_15
REMARK   12  A    between atoms: C_15  and  C_16
REMARK   13  A    between atoms: C_16  and  O_17
REMARK                            x       y       z     vdW  Elec       q    Type
REMARK                         _______ _______ _______ _____ _____    ______ ____
ROOT
ATOM      1  C   UNL     1       9.310   0.357  24.558  0.00  0.00    +0.005 C 
ENDROOT
BRANCH   1   2
ATOM      2  C   UNL     1      10.575   1.057  23.988  0.00  0.00    +0.019 C 
BRANCH   2   3
ATOM      3  C   UNL     1      10.336   2.362  23.223  0.00  0.00    +0.078 C 
BRANCH   3   4
ATOM      4  N   UNL     1      10.186   2.120  21.792  0.00  0.00    -0.330 NA
ATOM      5  H   UNL     1      10.047   1.118  21.642  0.00  0.00    +0.118 HD
ATOM      6  H   UNL     1       9.313   2.552  21.481  0.00  0.00    +0.118 HD
ENDBRANCH   3   4
ENDBRANCH   2   3
ENDBRANCH   1   2
BRANCH   1   7
ATOM      7  C   UNL     1       9.086  -1.066  23.916  0.00  0.00    +0.007 C 
BRANCH   7   8
ATOM      8  C   UNL     1       9.040  -2.206  24.973  0.00  0.00    +0.016 C 
BRANCH   8   9
ATOM      9  C   UNL     1       9.418  -3.591  24.443  0.00  0.00    +0.121 C 
BRANCH   9  10
ATOM     10  C   UNL     1       9.499  -4.593  25.574  0.00  0.00    +0.305 C 
ATOM     11  O   UNL     1       8.944  -4.467  26.655  0.00  0.00    -0.251 OA
BRANCH  10  12
ATOM     12  O   UNL     1      10.210  -5.696  25.257  0.00  0.00    -0.481 OA
ATOM     13  H   UNL     1       9.712  -6.530  25.322  0.00  0.00    +0.295 HD
ENDBRANCH  10  12
ENDBRANCH   9  10
ENDBRANCH   8   9
ENDBRANCH   7   8
BRANCH   7  14
ATOM     14  C   UNL     1      10.139  -1.380  22.821  0.00  0.00    +0.081 C 
BRANCH  14  15
ATOM     15  N   UNL     1       9.668  -1.085  21.471  0.00  0.00    -0.330 NA
ATOM     16  H   UNL     1      10.336  -1.457  20.795  0.00  0.00    +0.118 HD
ATOM     17  H   UNL     1       8.796  -1.580  21.285  0.00  0.00    +0.118 HD
ENDBRANCH  14  15
ENDBRANCH   7  14
ENDBRANCH   1   7
BRANCH   1  18
ATOM     18  C   UNL     1       8.081   1.287  24.427  0.00  0.00    +0.124 C 
BRANCH  18  19
ATOM     19  C   UNL     1       7.100   0.881  23.354  0.00  0.00    +0.305 C 
ATOM     20  O   UNL     1       7.297   1.035  22.158  0.00  0.00    -0.251 OA
BRANCH  19  21
ATOM     21  O   UNL     1       5.954   0.360  23.842  0.00  0.00    -0.481 OA
ATOM     22  H   UNL     1       5.844   0.493  24.802  0.00  0.00    +0.295 HD
ENDBRANCH  19  21
ENDBRANCH  18  19
ENDBRANCH   1  18
TORSDOF 13
ENDMDL
MODEL 5
REMARK VINA RESULT:      -4.8      3.242      6.000
REMARK  Name = 
REMARK  13 active torsions:
REMARK  status: ('A' for Active; 'I' for Inactive)
REMARK    1  A    between atoms: N_1  and  C_2
REMARK    2  A    between atoms: C_2  and  C_3
REMARK    3  A    between atoms: C_3  and  C_4
REMARK    4  A    between atoms: C_4  and  C_6
REMARK    5  A    between atoms: C_4  and  C_10
REMARK    6  A    between atoms: C_6  and  C_7
REMARK    7  A    between atoms: C_7  and  O_8
REMARK    8  A    between atoms: C_10  and  C_12
REMARK    9  A    between atoms: C_10  and  C_14
REMARK   10  A    between atoms: C_12  and  N_13
REMARK   11  A    between atoms: C_14  and  C_15
REMARK   12  A    between atoms: C_15  and  C_16
REMARK   13  A    between atoms: C_16  and  O_17
REMARK                            x       y       z     vdW  Elec       q    Type
REMARK                         _______ _______ _______ _____ _____    ______ ____
ROOT
ATOM      1  C   UNL     1       8.396  -3.244  23.225  0.00  0.00    +0.005 C 
ENDROOT
BRANCH   1   2
ATOM      2  C   UNL     1       9.326  -3.391  24.462  0.00  0.00    +0.019 C 
BRANCH   2   3
ATOM      3  C   UNL     1       9.100  -4.632  25.330  0.00  0.00    +0.078 C 
BRANCH   3   4
ATOM      4  N   UNL     1      10.254  -5.523  25.295  0.00  0.00    -0.330 NA
ATOM      5  H   UNL     1      10.183  -6.182  26.074  0.00  0.00    +0.118 HD
ATOM      6  H   UNL     1      10.188  -6.106  24.457  0.00  0.00    +0.118 HD
ENDBRANCH   3   4
ENDBRANCH   2   3
ENDBRANCH   1   2
BRANCH   1   7
ATOM      7  C   UNL     1       8.063  -1.733  22.917  0.00  0.00    +0.007 C 
BRANCH   7   8
ATOM      8  C   UNL     1       9.331  -0.833  22.863  0.00  0.00    +0.016 C 
BRANCH   8   9
ATOM      9  C   UNL     1       9.592  -0.169  21.509  0.00  0.00    +0.121 C 
BRANCH   9  10
ATOM     10  C   UNL     1       9.120   1.269  21.520  0.00  0.00    +0.305 C 
ATOM     11  O   UNL     1       7.949   1.617  21.516  0.00  0.00    -0.251 OA
BRANCH  10  12
ATOM     12  O   UNL     1      10.133   2.159  21.593  0.00  0.00    -0.481 OA
ATOM     13  H   UNL     1      10.999   1.807  21.323  0.00  0.00    +0.295 HD
ENDBRANCH  10  12
ENDBRANCH   9  10
ENDBRANCH   8   9
ENDBRANCH   7   8
BRANCH   7  14
ATOM     14  C   UNL     1       7.025  -1.153  23.912  0.00  0.00    +0.081 C 
BRANCH  14  15
ATOM     15  N   UNL     1       6.260  -0.040  23.360  0.00  0.00    -0.330 NA
ATOM     16  H   UNL     1       6.004  -0.256  22.396  0.00  0.00    +0.118 HD
ATOM     17  H   UNL     1       5.374   0.061  23.855  0.00  0.00    +0.118 HD
ENDBRANCH  14  15
ENDBRANCH   7  14
ENDBRANCH   1   7
BRANCH   1  18
ATOM     18  C   UNL     1       7.137  -4.125  23.397  0.00  0.00    +0.124 C 
BRANCH  18  19
ATOM     19  C   UNL     1       6.630  -4.747  22.119  0.00  0.00    +0.305 C 
ATOM     20  O   UNL     1       7.243  -5.589  21.481  0.00  0.00    -0.251 OA
BRANCH  19  21
ATOM     21  O   UNL     1       5.437  -4.256  21.717  0.00  0.00    -0.481 OA
ATOM     22  H   UNL     1       5.193  -4.522  20.811  0.00  0.00    +0.295 HD
ENDBRANCH  19  21
ENDBRANCH  18  19
ENDBRANCH   1  18
TORSDOF 13
ENDMDL
MODEL 6
REMARK VINA RESULT:      -4.8      3.362      6.228
REMARK  Name = 
REMARK  13 active torsions:
REMARK  status: ('A' for Active; 'I' for Inactive)
REMARK    1  A    between atoms: N_1  and  C_2
REMARK    2  A    between atoms: C_2  and  C_3
REMARK    3  A    between atoms: C_3  and  C_4
REMARK    4  A    between atoms: C_4  and  C_6
REMARK    5  A    between atoms: C_4  and  C_10
REMARK    6  A    between atoms: C_6  and  C_7
REMARK    7  A    between atoms: C_7  and  O_8
REMARK    8  A    between atoms: C_10  and  C_12
REMARK    9  A    between atoms: C_10  and  C_14
REMARK   10  A    between atoms: C_12  and  N_13
REMARK   11  A    between atoms: C_14  and  C_15
REMARK   12  A    between atoms: C_15  and  C_16
REMARK   13  A    between atoms: C_16  and  O_17
REMARK                            x       y       z     vdW  Elec       q    Type
REMARK                         _______ _______ _______ _____ _____    ______ ____
ROOT
ATOM      1  C   UNL     1       9.101  -2.069  24.821  0.00  0.00    +0.005 C 
ENDROOT
BRANCH   1   2
ATOM      2  C   UNL     1       7.657  -1.506  24.941  0.00  0.00    +0.019 C 
BRANCH   2   3
ATOM      3  C   UNL     1       6.624  -2.092  23.974  0.00  0.00    +0.078 C 
BRANCH   3   4
ATOM      4  N   UNL     1       6.437  -1.234  22.809  0.00  0.00    -0.330 NA
ATOM      5  H   UNL     1       6.032  -1.791  22.054  0.00  0.00    +0.118 HD
ATOM      6  H   UNL     1       5.722  -0.538  23.031  0.00  0.00    +0.118 HD
ENDBRANCH   3   4
ENDBRANCH   2   3
ENDBRANCH   1   2
BRANCH   1   7
ATOM      7  C   UNL     1      10.041  -1.106  24.000  0.00  0.00    +0.007 C 
BRANCH   7   8
ATOM      8  C   UNL     1       9.539   0.367  23.991  0.00  0.00    +0.016 C 
BRANCH   8   9
ATOM      9  C   UNL     1      10.645   1.424  24.008  0.00  0.00    +0.121 C 
BRANCH   9  10
ATOM     10  C   UNL     1      10.309   2.565  23.072  0.00  0.00    +0.305 C 
ATOM     11  O   UNL     1      10.150   3.725  23.421  0.00  0.00    -0.251 OA
BRANCH  10  12
ATOM     12  O   UNL     1      10.254   2.191  21.776  0.00  0.00    -0.481 OA
ATOM     13  H   UNL     1      10.418   2.910  21.142  0.00  0.00    +0.295 HD
ENDBRANCH  10  12
ENDBRANCH   9  10
ENDBRANCH   8   9
ENDBRANCH   7   8
BRANCH   7  14
ATOM     14  C   UNL     1      10.269  -1.613  22.552  0.00  0.00    +0.081 C 
BRANCH  14  15
ATOM     15  N   UNL     1       9.475  -0.894  21.561  0.00  0.00    -0.330 NA
ATOM     16  H   UNL     1      10.101  -0.460  20.881  0.00  0.00    +0.118 HD
ATOM     17  H   UNL     1       8.907  -1.547  21.021  0.00  0.00    +0.118 HD
ENDBRANCH  14  15
ENDBRANCH   7  14
ENDBRANCH   1   7
BRANCH   1  18
ATOM     18  C   UNL     1       9.066  -3.511  24.264  0.00  0.00    +0.124 C 
BRANCH  18  19
ATOM     19  C   UNL     1       9.337  -4.585  25.290  0.00  0.00    +0.305 C 
ATOM     20  O   UNL     1       9.161  -4.440  26.490  0.00  0.00    -0.251 OA
BRANCH  19  21
ATOM     21  O   UNL     1       9.835  -5.724  24.760  0.00  0.00    -0.481 OA
ATOM     22  H   UNL     1       9.702  -6.506  25.327  0.00  0.00    +0.295 HD
ENDBRANCH  19  21
ENDBRANCH  18  19
ENDBRANCH   1  18
TORSDOF 13
ENDMDL
MODEL 7
REMARK VINA RESULT:      -4.8      2.567      3.239
REMARK  Name = 
REMARK  13 active torsions:
REMARK  status: ('A' for Active; 'I' for Inactive)
REMARK    1  A    between atoms: N_1  and  C_2
REMARK    2  A    between atoms: C_2  and  C_3
REMARK    3  A    between atoms: C_3  and  C_4
REMARK    4  A    between atoms: C_4  and  C_6
REMARK    5  A    between atoms: C_4  and  C_10
REMARK    6  A    between atoms: C_6  and  C_7
REMARK    7  A    between atoms: C_7  and  O_8
REMARK    8  A    between atoms: C_10  and  C_12
REMARK    9  A    between atoms: C_10  and  C_14
REMARK   10  A    between atoms: C_12  and  N_13
REMARK   11  A    between atoms: C_14  and  C_15
REMARK   12  A    between atoms: C_15  and  C_16
REMARK   13  A    between atoms: C_16  and  O_17
REMARK                            x       y       z     vdW  Elec       q    Type
REMARK                         _______ _______ _______ _____ _____    ______ ____
ROOT
ATOM      1  C   UNL     1       7.477  -3.880  23.541  0.00  0.00    +0.005 C 
ENDROOT
BRANCH   1   2
ATOM      2  C   UNL     1       8.342  -2.759  22.900  0.00  0.00    +0.019 C 
BRANCH   2   3
ATOM      3  C   UNL     1       7.698  -1.371  22.824  0.00  0.00    +0.078 C 
BRANCH   3   4
ATOM      4  N   UNL     1       6.244  -1.454  22.898  0.00  0.00    -0.330 NA
ATOM      5  H   UNL     1       5.863  -1.390  21.951  0.00  0.00    +0.118 HD
ATOM      6  H   UNL     1       5.989  -2.392  23.216  0.00  0.00    +0.118 HD
ENDBRANCH   3   4
ENDBRANCH   2   3
ENDBRANCH   1   2
BRANCH   1   7
ATOM      7  C   UNL     1       8.039  -4.324  24.946  0.00  0.00    +0.007 C 
BRANCH   7   8
ATOM      8  C   UNL     1       7.504  -3.448  26.115  0.00  0.00    +0.016 C 
BRANCH   8   9
ATOM      9  C   UNL     1       6.416  -4.105  26.967  0.00  0.00    +0.121 C 
BRANCH   9  10
ATOM     10  C   UNL     1       6.648  -5.597  27.073  0.00  0.00    +0.305 C 
ATOM     11  O   UNL     1       5.900  -6.451  26.621  0.00  0.00    -0.251 OA
BRANCH  10  12
ATOM     12  O   UNL     1       7.814  -5.912  27.677  0.00  0.00    -0.481 OA
ATOM     13  H   UNL     1       7.806  -5.809  28.645  0.00  0.00    +0.295 HD
ENDBRANCH  10  12
ENDBRANCH   9  10
ENDBRANCH   8   9
ENDBRANCH   7   8
BRANCH   7  14
ATOM     14  C   UNL     1       9.589  -4.369  24.963  0.00  0.00    +0.081 C 
BRANCH  14  15
ATOM     15  N   UNL     1      10.121  -5.648  25.422  0.00  0.00    -0.330 NA
ATOM     16  H   UNL     1      11.135  -5.576  25.511  0.00  0.00    +0.118 HD
ATOM     17  H   UNL     1       9.785  -5.854  26.362  0.00  0.00    +0.118 HD
ENDBRANCH  14  15
ENDBRANCH   7  14
ENDBRANCH   1   7
BRANCH   1  18
ATOM     18  C   UNL     1       7.309  -5.055  22.550  0.00  0.00    +0.124 C 
BRANCH  18  19
ATOM     19  C   UNL     1       5.978  -5.087  21.838  0.00  0.00    +0.305 C 
ATOM     20  O   UNL     1       5.243  -4.118  21.725  0.00  0.00    -0.251 OA
BRANCH  19  21
ATOM     21  O   UNL     1       5.650  -6.309  21.364  0.00  0.00    -0.481 OA
ATOM     22  H   UNL     1       6.093  -6.531  20.524  0.00  0.00    +0.295 HD
ENDBRANCH  19  21
ENDBRANCH  18  19
ENDBRANCH   1  18
TORSDOF 13
ENDMDL
MODEL 8
REMARK VINA RESULT:      -4.7      2.631      5.026
REMARK  Name = 
REMARK  13 active torsions:
REMARK  status: ('A' for Active; 'I' for Inactive)
REMARK    1  A    between atoms: N_1  and  C_2
REMARK    2  A    between atoms: C_2  and  C_3
REMARK    3  A    between atoms: C_3  and  C_4
REMARK    4  A    between atoms: C_4  and  C_6
REMARK    5  A    between atoms: C_4  and  C_10
REMARK    6  A    between atoms: C_6  and  C_7
REMARK    7  A    between atoms: C_7  and  O_8
REMARK    8  A    between atoms: C_10  and  C_12
REMARK    9  A    between atoms: C_10  and  C_14
REMARK   10  A    between atoms: C_12  and  N_13
REMARK   11  A    between atoms: C_14  and  C_15
REMARK   12  A    between atoms: C_15  and  C_16
REMARK   13  A    between atoms: C_16  and  O_17
REMARK                            x       y       z     vdW  Elec       q    Type
REMARK                         _______ _______ _______ _____ _____    ______ ____
ROOT
ATOM      1  C   UNL     1       6.283  -4.922  23.893  0.00  0.00    +0.005 C 
ENDROOT
BRANCH   1   2
ATOM      2  C   UNL     1       7.045  -5.711  22.792  0.00  0.00    +0.019 C 
BRANCH   2   3
ATOM      3  C   UNL     1       6.731  -5.321  21.344  0.00  0.00    +0.078 C 
BRANCH   3   4
ATOM      4  N   UNL     1       5.848  -4.162  21.285  0.00  0.00    -0.330 NA
ATOM      5  H   UNL     1       4.884  -4.489  21.182  0.00  0.00    +0.118 HD
ATOM      6  H   UNL     1       5.867  -3.693  22.194  0.00  0.00    +0.118 HD
ENDBRANCH   3   4
ENDBRANCH   2   3
ENDBRANCH   1   2
BRANCH   1   7
ATOM      7  C   UNL     1       7.270  -4.241  24.917  0.00  0.00    +0.007 C 
BRANCH   7   8
ATOM      8  C   UNL     1       8.728  -4.151  24.383  0.00  0.00    +0.016 C 
BRANCH   8   9
ATOM      9  C   UNL     1       9.275  -2.729  24.240  0.00  0.00    +0.121 C 
BRANCH   9  10
ATOM     10  C   UNL     1       9.191  -2.266  22.802  0.00  0.00    +0.305 C 
ATOM     11  O   UNL     1       8.162  -2.228  22.143  0.00  0.00    -0.251 OA
BRANCH  10  12
ATOM     12  O   UNL     1      10.372  -1.834  22.313  0.00  0.00    -0.481 OA
ATOM     13  H   UNL     1      10.412  -0.876  22.141  0.00  0.00    +0.295 HD
ENDBRANCH  10  12
ENDBRANCH   9  10
ENDBRANCH   8   9
ENDBRANCH   7   8
BRANCH   7  14
ATOM     14  C   UNL     1       7.239  -4.937  26.303  0.00  0.00    +0.081 C 
BRANCH  14  15
ATOM     15  N   UNL     1       8.414  -5.765  26.556  0.00  0.00    -0.330 NA
ATOM     16  H   UNL     1       8.372  -6.122  27.511  0.00  0.00    +0.118 HD
ATOM     17  H   UNL     1       8.398  -6.592  25.960  0.00  0.00    +0.118 HD
ENDBRANCH  14  15
ENDBRANCH   7  14
ENDBRANCH   1   7
BRANCH   1  18
ATOM     18  C   UNL     1       5.231  -5.832  24.570  0.00  0.00    +0.124 C 
BRANCH  18  19
ATOM     19  C   UNL     1       4.113  -6.279  23.660  0.00  0.00    +0.305 C 
ATOM     20  O   UNL     1       3.545  -5.543  22.867  0.00  0.00    -0.251 OA
BRANCH  19  21
ATOM     21  O   UNL     1       3.765  -7.573  23.829  0.00  0.00    -0.481 OA
ATOM     22  H   UNL     1       3.335  -7.751  24.686  0.00  0.00    +0.295 HD
ENDBRANCH  19  21
ENDBRANCH  18  19
ENDBRANCH   1  18
TORSDOF 13
ENDMDL
MODEL 9
REMARK VINA RESULT:      -4.7      2.680      4.982
REMARK  Name = 
REMARK  13 active torsions:
REMARK  status: ('A' for Active; 'I' for Inactive)
REMARK    1  A    between atoms: N_1  and  C_2
REMARK    2  A    between atoms: C_2  and  C_3
REMARK    3  A    between atoms: C_3  and  C_4
REMARK    4  A    between atoms: C_4  and  C_6
REMARK    5  A    between atoms: C_4  and  C_10
REMARK    6  A    between atoms: C_6  and  C_7
REMARK    7  A    between atoms: C_7  and  O_8
REMARK    8  A    between atoms: C_10  and  C_12
REMARK    9  A    between atoms: C_10  and  C_14
REMARK   10  A    between atoms: C_12  and  N_13
REMARK   11  A    between atoms: C_14  and  C_15
REMARK   12  A    between atoms: C_15  and  C_16
REMARK   13  A    between atoms: C_16  and  O_17
REMARK                            x       y       z     vdW  Elec       q    Type
REMARK                         _______ _______ _______ _____ _____    ______ ____
ROOT
ATOM      1  C   UNL     1       7.098  -3.792  25.443  0.00  0.00    +0.005 C 
ENDROOT
BRANCH   1   2
ATOM      2  C   UNL     1       6.305  -2.498  25.109  0.00  0.00    +0.019 C 
BRANCH   2   3
ATOM      3  C   UNL     1       6.932  -1.575  24.059  0.00  0.00    +0.078 C 
BRANCH   3   4
ATOM      4  N   UNL     1       6.153  -1.565  22.826  0.00  0.00    -0.330 NA
ATOM      5  H   UNL     1       5.679  -0.663  22.745  0.00  0.00    +0.118 HD
ATOM      6  H   UNL     1       6.800  -1.589  22.034  0.00  0.00    +0.118 HD
ENDBRANCH   3   4
ENDBRANCH   2   3
ENDBRANCH   1   2
BRANCH   1   7
ATOM      7  C   UNL     1       8.164  -4.131  24.332  0.00  0.00    +0.007 C 
BRANCH   7   8
ATOM      8  C   UNL     1       7.750  -5.339  23.444  0.00  0.00    +0.016 C 
BRANCH   8   9
ATOM      9  C   UNL     1       7.250  -4.969  22.046  0.00  0.00    +0.121 C 
BRANCH   9  10
ATOM     10  C   UNL     1       5.748  -5.126  21.956  0.00  0.00    +0.305 C 
ATOM     11  O   UNL     1       4.938  -4.330  22.405  0.00  0.00    -0.251 OA
BRANCH  10  12
ATOM     12  O   UNL     1       5.369  -6.224  21.268  0.00  0.00    -0.481 OA
ATOM     13  H   UNL     1       4.685  -6.062  20.595  0.00  0.00    +0.295 HD
ENDBRANCH  10  12
ENDBRANCH   9  10
ENDBRANCH   8   9
ENDBRANCH   7   8
BRANCH   7  14
ATOM     14  C   UNL     1       9.577  -4.356  24.933  0.00  0.00    +0.081 C 
BRANCH  14  15
ATOM     15  N   UNL     1       9.833  -5.747  25.293  0.00  0.00    -0.330 NA
ATOM     16  H   UNL     1       8.941  -6.231  25.410  0.00  0.00    +0.118 HD
ATOM     17  H   UNL     1      10.300  -6.230  24.526  0.00  0.00    +0.118 HD
ENDBRANCH  14  15
ENDBRANCH   7  14
ENDBRANCH   1   7
BRANCH   1  18
ATOM     18  C   UNL     1       6.121  -4.956  25.730  0.00  0.00    +0.124 C 
BRANCH  18  19
ATOM     19  C   UNL     1       6.506  -5.820  26.906  0.00  0.00    +0.305 C 
ATOM     20  O   UNL     1       7.537  -5.680  27.546  0.00  0.00    -0.251 OA
BRANCH  19  21
ATOM     21  O   UNL     1       5.615  -6.801  27.169  0.00  0.00    -0.481 OA
ATOM     22  H   UNL     1       5.511  -7.438  26.438  0.00  0.00    +0.295 HD
ENDBRANCH  19  21
ENDBRANCH  18  19
ENDBRANCH   1  18
TORSDOF 13
ENDMDL
