MODEL 1
REMARK VINA RESULT:      -7.5      0.000      0.000
REMARK  Name = 
REMARK  16 active torsions:
REMARK  status: ('A' for Active; 'I' for Inactive)
REMARK    1  A    between atoms: N_10  and  C_11
REMARK    2  A    between atoms: C_11  and  C_12
REMARK    3  A    between atoms: C_12  and  O_14
REMARK    4  A    between atoms: C_12  and  C_15
REMARK    5  A    between atoms: C_15  and  C_17
REMARK    6  A    between atoms: C_15  and  N_25
REMARK    7  A    between atoms: C_17  and  S_18
REMARK    8  A    between atoms: S_18  and  C_19
REMARK    9  A    between atoms: C_26  and  C_28
REMARK   10  A    between atoms: C_29  and  C_30
REMARK   11  A    between atoms: C_31  and  O_32
REMARK   12  A    between atoms: C_36  and  C_39
REMARK   13  A    between atoms: N_41  and  C_42
REMARK   14  A    between atoms: C_42  and  C_43
REMARK   15  A    between atoms: C_42  and  C_44
REMARK   16  A    between atoms: C_42  and  C_45
REMARK                            x       y       z     vdW  Elec       q    Type
REMARK                         _______ _______ _______ _____ _____    ______ ____
ROOT
ATOM      1  C   UNL     1       9.238  -4.212  24.514  0.00  0.00    +0.149 C 
ENDROOT
BRANCH   1   2
ATOM      2  O   UNL     1      10.169  -5.124  25.119  0.00  0.00    -0.389 OA
ATOM      3  H   UNL     1      10.897  -4.585  25.477  0.00  0.00    +0.210 HD
ENDBRANCH   1   2
BRANCH   1   4
ATOM      4  C   UNL     1       9.148  -2.876  25.320  0.00  0.00    +0.118 C 
BRANCH   4   8
ATOM      5  C   UNL     1      10.456   0.653  23.216  0.00  0.00    -0.005 C 
ATOM      6  C   UNL     1      10.253   0.693  24.736  0.00  0.00    +0.032 C 
ATOM      7  C   UNL     1       9.397  -0.409  25.392  0.00  0.00    +0.143 C 
ATOM      8  N   UNL     1       8.988  -1.589  24.608  0.00  0.00    -0.289 NA
ATOM      9  C   UNL     1       9.542  -1.666  23.254  0.00  0.00    +0.089 C 
ATOM     10  C   UNL     1       9.540  -0.335  22.490  0.00  0.00    +0.006 C 
ATOM     11  C   UNL     1       8.124   0.194  22.211  0.00  0.00    +0.005 C 
ATOM     12  C   UNL     1       8.084   1.636  21.703  0.00  0.00    +0.000 C 
ATOM     13  C   UNL     1       8.961   2.577  22.518  0.00  0.00    +0.000 C 
ATOM     14  C   UNL     1      10.391   2.057  22.601  0.00  0.00    +0.004 C 
BRANCH   7  15
ATOM     15  C   UNL     1       8.139   0.278  26.006  0.00  0.00    +0.231 C 
ATOM     16  N   UNL     1       8.143   1.656  25.853  0.00  0.00    -0.309 N 
ATOM     17  H   UNL     1       9.064   2.064  25.755  0.00  0.00    +0.149 HD
ATOM     18  O   UNL     1       7.197  -0.327  26.505  0.00  0.00    -0.274 OA
BRANCH  16  19
ATOM     19  C   UNL     1       7.087   2.549  26.351  0.00  0.00    +0.026 C 
ATOM     20  C   UNL     1       5.750   2.321  25.628  0.00  0.00    +0.031 C 
ATOM     21  C   UNL     1       7.547   3.991  26.067  0.00  0.00    +0.031 C 
ATOM     22  C   UNL     1       6.895   2.387  27.864  0.00  0.00    +0.031 C 
ENDBRANCH  16  19
ENDBRANCH   7  15
ENDBRANCH   4   8
ENDBRANCH   1   4
BRANCH   1  23
ATOM     23  C   UNL     1       7.875  -4.902  24.251  0.00  0.00    +0.113 C 
BRANCH  23  24
ATOM     24  N   UNL     1       6.872  -4.492  25.236  0.00  0.00    -0.305 N 
ATOM     25  H   UNL     1       6.081  -3.957  24.902  0.00  0.00    +0.149 HD
ATOM     26  C   UNL     1       6.789  -5.094  26.474  0.00  0.00    +0.245 C 
ATOM     27  O   UNL     1       7.540  -5.980  26.855  0.00  0.00    -0.270 OA
BRANCH  26  28
ATOM     28  C   UNL     1       5.695  -4.590  27.354  0.00  0.00    +0.043 A 
ATOM     29  C   UNL     1       5.394  -3.217  27.288  0.00  0.00    +0.013 A 
ATOM     30  C   UNL     1       4.405  -2.668  28.103  0.00  0.00    +0.004 A 
ATOM     31  C   UNL     1       3.736  -3.481  29.003  0.00  0.00    +0.046 A 
ATOM     32  C   UNL     1       4.052  -4.837  29.091  0.00  0.00    +0.120 A 
ATOM     33  C   UNL     1       5.013  -5.432  28.257  0.00  0.00    +0.003 A 
ATOM     34  C   UNL     1       5.257  -6.915  28.341  0.00  0.00    +0.048 C 
BRANCH  32  35
ATOM     35  O   UNL     1       3.366  -5.539  30.044  0.00  0.00    -0.506 OA
ATOM     36  H   UNL     1       3.975  -5.775  30.762  0.00  0.00    +0.292 HD
ENDBRANCH  32  35
ENDBRANCH  26  28
ENDBRANCH  23  24
BRANCH  23  37
ATOM     37  C   UNL     1       7.347  -4.661  22.812  0.00  0.00    +0.099 C 
BRANCH  37  38
ATOM     38  S   UNL     1       6.191  -5.978  22.241  0.00  0.00    -0.123 S 
BRANCH  38  39
ATOM     39  C   UNL     1       4.793  -5.789  23.341  0.00  0.00    +0.008 A 
ATOM     40  C   UNL     1       4.025  -4.625  23.448  0.00  0.00    +0.015 A 
ATOM     41  C   UNL     1       2.985  -4.539  24.382  0.00  0.00    +0.001 A 
ATOM     42  C   UNL     1       2.705  -5.615  25.221  0.00  0.00    +0.000 A 
ATOM     43  C   UNL     1       3.463  -6.779  25.127  0.00  0.00    +0.001 A 
ATOM     44  C   UNL     1       4.500  -6.863  24.195  0.00  0.00    +0.015 A 
ENDBRANCH  38  39
ENDBRANCH  37  38
ENDBRANCH  23  37
ENDBRANCH   1  23
TORSDOF 12
ENDMDL
MODEL 2
REMARK VINA RESULT:      -7.1      2.150      3.637
REMARK  Name = 
REMARK  16 active torsions:
REMARK  status: ('A' for Active; 'I' for Inactive)
REMARK    1  A    between atoms: N_10  and  C_11
REMARK    2  A    between atoms: C_11  and  C_12
REMARK    3  A    between atoms: C_12  and  O_14
REMARK    4  A    between atoms: C_12  and  C_15
REMARK    5  A    between atoms: C_15  and  C_17
REMARK    6  A    between atoms: C_15  and  N_25
REMARK    7  A    between atoms: C_17  and  S_18
REMARK    8  A    between atoms: S_18  and  C_19
REMARK    9  A    between atoms: C_26  and  C_28
REMARK   10  A    between atoms: C_29  and  C_30
REMARK   11  A    between atoms: C_31  and  O_32
REMARK   12  A    between atoms: C_36  and  C_39
REMARK   13  A    between atoms: N_41  and  C_42
REMARK   14  A    between atoms: C_42  and  C_43
REMARK   15  A    between atoms: C_42  and  C_44
REMARK   16  A    between atoms: C_42  and  C_45
REMARK                            x       y       z     vdW  Elec       q    Type
REMARK                         _______ _______ _______ _____ _____    ______ ____
ROOT
ATOM      1  C   UNL     1       6.987  -3.419  22.615  0.00  0.00    +0.149 C 
ENDROOT
BRANCH   1   2
ATOM      2  O   UNL     1       6.868  -4.349  21.526  0.00  0.00    -0.389 OA
ATOM      3  H   UNL     1       5.923  -4.571  21.449  0.00  0.00    +0.210 HD
ENDBRANCH   1   2
BRANCH   1   4
ATOM      4  C   UNL     1       8.365  -2.680  22.582  0.00  0.00    +0.118 C 
BRANCH   4   8
ATOM      5  C   UNL     1      10.270   1.162  23.024  0.00  0.00    -0.005 C 
ATOM      6  C   UNL     1       9.864   0.356  24.265  0.00  0.00    +0.032 C 
ATOM      7  C   UNL     1       8.827  -0.774  24.099  0.00  0.00    +0.143 C 
ATOM      8  N   UNL     1       8.424  -1.213  22.751  0.00  0.00    -0.289 NA
ATOM      9  C   UNL     1       9.151  -0.586  21.644  0.00  0.00    +0.089 C 
ATOM     10  C   UNL     1       9.377   0.923  21.805  0.00  0.00    +0.006 C 
ATOM     11  C   UNL     1       8.069   1.729  21.805  0.00  0.00    +0.005 C 
ATOM     12  C   UNL     1       8.232   3.187  22.236  0.00  0.00    +0.000 C 
ATOM     13  C   UNL     1       9.070   3.343  23.498  0.00  0.00    +0.000 C 
ATOM     14  C   UNL     1      10.421   2.654  23.345  0.00  0.00    +0.004 C 
BRANCH   7  15
ATOM     15  C   UNL     1       7.565  -0.376  24.924  0.00  0.00    +0.231 C 
ATOM     16  N   UNL     1       7.701   0.841  25.573  0.00  0.00    -0.309 N 
ATOM     17  H   UNL     1       8.658   1.105  25.772  0.00  0.00    +0.149 HD
ATOM     18  O   UNL     1       6.523  -1.020  24.944  0.00  0.00    -0.274 OA
BRANCH  16  19
ATOM     19  C   UNL     1       6.670   1.445  26.430  0.00  0.00    +0.026 C 
ATOM     20  C   UNL     1       5.320   1.569  25.705  0.00  0.00    +0.031 C 
ATOM     21  C   UNL     1       7.156   2.862  26.788  0.00  0.00    +0.031 C 
ATOM     22  C   UNL     1       6.493   0.647  27.728  0.00  0.00    +0.031 C 
ENDBRANCH  16  19
ENDBRANCH   7  15
ENDBRANCH   4   8
ENDBRANCH   1   4
BRANCH   1  23
ATOM     23  C   UNL     1       6.650  -4.099  23.966  0.00  0.00    +0.113 C 
BRANCH  23  24
ATOM     24  N   UNL     1       5.615  -5.122  23.804  0.00  0.00    -0.305 N 
ATOM     25  H   UNL     1       5.915  -6.088  23.762  0.00  0.00    +0.149 HD
ATOM     26  C   UNL     1       4.287  -4.852  24.061  0.00  0.00    +0.245 C 
ATOM     27  O   UNL     1       3.868  -3.760  24.414  0.00  0.00    -0.270 OA
BRANCH  26  28
ATOM     28  C   UNL     1       3.357  -6.004  23.882  0.00  0.00    +0.043 A 
ATOM     29  C   UNL     1       2.386  -5.897  22.870  0.00  0.00    +0.013 A 
ATOM     30  C   UNL     1       1.462  -6.922  22.662  0.00  0.00    +0.004 A 
ATOM     31  C   UNL     1       1.489  -8.037  23.482  0.00  0.00    +0.046 A 
ATOM     32  C   UNL     1       2.432  -8.134  24.504  0.00  0.00    +0.120 A 
ATOM     33  C   UNL     1       3.404  -7.141  24.715  0.00  0.00    +0.003 A 
ATOM     34  C   UNL     1       4.446  -7.334  25.783  0.00  0.00    +0.048 C 
BRANCH  32  35
ATOM     35  O   UNL     1       2.341  -9.254  25.284  0.00  0.00    -0.506 OA
ATOM     36  H   UNL     1       2.305 -10.036  24.711  0.00  0.00    +0.292 HD
ENDBRANCH  32  35
ENDBRANCH  26  28
ENDBRANCH  23  24
BRANCH  23  37
ATOM     37  C   UNL     1       7.898  -4.702  24.664  0.00  0.00    +0.099 C 
BRANCH  37  38
ATOM     38  S   UNL     1       8.237  -3.947  26.311  0.00  0.00    -0.123 S 
BRANCH  38  39
ATOM     39  C   UNL     1       6.791  -4.398  27.264  0.00  0.00    +0.008 A 
ATOM     40  C   UNL     1       5.651  -3.598  27.391  0.00  0.00    +0.015 A 
ATOM     41  C   UNL     1       4.586  -3.999  28.210  0.00  0.00    +0.001 A 
ATOM     42  C   UNL     1       4.654  -5.201  28.910  0.00  0.00    +0.000 A 
ATOM     43  C   UNL     1       5.784  -6.005  28.794  0.00  0.00    +0.001 A 
ATOM     44  C   UNL     1       6.845  -5.604  27.978  0.00  0.00    +0.015 A 
ENDBRANCH  38  39
ENDBRANCH  37  38
ENDBRANCH  23  37
ENDBRANCH   1  23
TORSDOF 12
ENDMDL
MODEL 3
REMARK VINA RESULT:      -7.1      2.160      5.817
REMARK  Name = 
REMARK  16 active torsions:
REMARK  status: ('A' for Active; 'I' for Inactive)
REMARK    1  A    between atoms: N_10  and  C_11
REMARK    2  A    between atoms: C_11  and  C_12
REMARK    3  A    between atoms: C_12  and  O_14
REMARK    4  A    between atoms: C_12  and  C_15
REMARK    5  A    between atoms: C_15  and  C_17
REMARK    6  A    between atoms: C_15  and  N_25
REMARK    7  A    between atoms: C_17  and  S_18
REMARK    8  A    between atoms: S_18  and  C_19
REMARK    9  A    between atoms: C_26  and  C_28
REMARK   10  A    between atoms: C_29  and  C_30
REMARK   11  A    between atoms: C_31  and  O_32
REMARK   12  A    between atoms: C_36  and  C_39
REMARK   13  A    between atoms: N_41  and  C_42
REMARK   14  A    between atoms: C_42  and  C_43
REMARK   15  A    between atoms: C_42  and  C_44
REMARK   16  A    between atoms: C_42  and  C_45
REMARK                            x       y       z     vdW  Elec       q    Type
REMARK                         _______ _______ _______ _____ _____    ______ ____
ROOT
ATOM      1  C   UNL     1       9.411  -2.192  24.071  0.00  0.00    +0.149 C 
ENDROOT
BRANCH   1   2
ATOM      2  O   UNL     1      10.508  -3.120  24.124  0.00  0.00    -0.389 OA
ATOM      3  H   UNL     1      11.273  -2.672  23.723  0.00  0.00    +0.210 HD
ENDBRANCH   1   2
BRANCH   1   4
ATOM      4  C   UNL     1       8.809  -1.943  25.491  0.00  0.00    +0.118 C 
BRANCH   4   8
ATOM      5  C   UNL     1       6.829   1.333  27.474  0.00  0.00    -0.005 C 
ATOM      6  C   UNL     1       6.409  -0.112  27.769  0.00  0.00    +0.032 C 
ATOM      7  C   UNL     1       6.812  -1.213  26.765  0.00  0.00    +0.143 C 
ATOM      8  N   UNL     1       7.768  -0.911  25.685  0.00  0.00    -0.289 NA
ATOM      9  C   UNL     1       8.358   0.429  25.726  0.00  0.00    +0.089 C 
ATOM     10  C   UNL     1       7.365   1.551  26.058  0.00  0.00    +0.006 C 
ATOM     11  C   UNL     1       6.279   1.728  24.985  0.00  0.00    +0.005 C 
ATOM     12  C   UNL     1       5.124   2.638  25.408  0.00  0.00    +0.000 C 
ATOM     13  C   UNL     1       4.593   2.314  26.798  0.00  0.00    +0.000 C 
ATOM     14  C   UNL     1       5.716   2.327  27.828  0.00  0.00    +0.004 C 
BRANCH   7  15
ATOM     15  C   UNL     1       5.498  -1.796  26.161  0.00  0.00    +0.231 C 
ATOM     16  N   UNL     1       4.588  -2.201  27.124  0.00  0.00    -0.309 N 
ATOM     17  H   UNL     1       5.002  -2.449  28.014  0.00  0.00    +0.149 HD
ATOM     18  O   UNL     1       5.246  -1.827  24.961  0.00  0.00    -0.274 OA
BRANCH  16  19
ATOM     19  C   UNL     1       3.278  -2.799  26.830  0.00  0.00    +0.026 C 
ATOM     20  C   UNL     1       3.216  -3.381  25.408  0.00  0.00    +0.031 C 
ATOM     21  C   UNL     1       2.234  -1.672  26.934  0.00  0.00    +0.031 C 
ATOM     22  C   UNL     1       2.926  -3.888  27.852  0.00  0.00    +0.031 C 
ENDBRANCH  16  19
ENDBRANCH   7  15
ENDBRANCH   4   8
ENDBRANCH   1   4
BRANCH   1  23
ATOM     23  C   UNL     1       8.378  -2.615  22.995  0.00  0.00    +0.113 C 
BRANCH  23  24
ATOM     24  N   UNL     1       7.319  -3.446  23.571  0.00  0.00    -0.305 N 
ATOM     25  H   UNL     1       6.364  -3.128  23.464  0.00  0.00    +0.149 HD
ATOM     26  C   UNL     1       7.543  -4.762  23.917  0.00  0.00    +0.245 C 
ATOM     27  O   UNL     1       8.620  -5.326  23.798  0.00  0.00    -0.270 OA
BRANCH  26  28
ATOM     28  C   UNL     1       6.358  -5.487  24.461  0.00  0.00    +0.043 A 
ATOM     29  C   UNL     1       6.247  -5.583  25.861  0.00  0.00    +0.013 A 
ATOM     30  C   UNL     1       5.183  -6.271  26.442  0.00  0.00    +0.004 A 
ATOM     31  C   UNL     1       4.248  -6.889  25.630  0.00  0.00    +0.046 A 
ATOM     32  C   UNL     1       4.370  -6.821  24.242  0.00  0.00    +0.120 A 
ATOM     33  C   UNL     1       5.405  -6.100  23.622  0.00  0.00    +0.003 A 
ATOM     34  C   UNL     1       5.444  -5.995  22.121  0.00  0.00    +0.048 C 
BRANCH  32  35
ATOM     35  O   UNL     1       3.420  -7.504  23.534  0.00  0.00    -0.506 OA
ATOM     36  H   UNL     1       3.444  -7.212  22.609  0.00  0.00    +0.292 HD
ENDBRANCH  32  35
ENDBRANCH  26  28
ENDBRANCH  23  24
BRANCH  23  37
ATOM     37  C   UNL     1       7.763  -1.405  22.243  0.00  0.00    +0.099 C 
BRANCH  37  38
ATOM     38  S   UNL     1       8.992  -0.500  21.210  0.00  0.00    -0.123 S 
BRANCH  38  39
ATOM     39  C   UNL     1       9.028   1.124  21.960  0.00  0.00    +0.008 A 
ATOM     40  C   UNL     1      10.040   1.574  22.814  0.00  0.00    +0.015 A 
ATOM     41  C   UNL     1       9.960   2.840  23.410  0.00  0.00    +0.001 A 
ATOM     42  C   UNL     1       8.865   3.664  23.160  0.00  0.00    +0.000 A 
ATOM     43  C   UNL     1       7.850   3.227  22.314  0.00  0.00    +0.001 A 
ATOM     44  C   UNL     1       7.932   1.965  21.721  0.00  0.00    +0.015 A 
ENDBRANCH  38  39
ENDBRANCH  37  38
ENDBRANCH  23  37
ENDBRANCH   1  23
TORSDOF 12
ENDMDL
MODEL 4
REMARK VINA RESULT:      -7.1      2.127      7.481
REMARK  Name = 
REMARK  16 active torsions:
REMARK  status: ('A' for Active; 'I' for Inactive)
REMARK    1  A    between atoms: N_10  and  C_11
REMARK    2  A    between atoms: C_11  and  C_12
REMARK    3  A    between atoms: C_12  and  O_14
REMARK    4  A    between atoms: C_12  and  C_15
REMARK    5  A    between atoms: C_15  and  C_17
REMARK    6  A    between atoms: C_15  and  N_25
REMARK    7  A    between atoms: C_17  and  S_18
REMARK    8  A    between atoms: S_18  and  C_19
REMARK    9  A    between atoms: C_26  and  C_28
REMARK   10  A    between atoms: C_29  and  C_30
REMARK   11  A    between atoms: C_31  and  O_32
REMARK   12  A    between atoms: C_36  and  C_39
REMARK   13  A    between atoms: N_41  and  C_42
REMARK   14  A    between atoms: C_42  and  C_43
REMARK   15  A    between atoms: C_42  and  C_44
REMARK   16  A    between atoms: C_42  and  C_45
REMARK                            x       y       z     vdW  Elec       q    Type
REMARK                         _______ _______ _______ _____ _____    ______ ____
ROOT
ATOM      1  C   UNL     1       8.612  -4.397  26.578  0.00  0.00    +0.149 C 
ENDROOT
BRANCH   1   2
ATOM      2  O   UNL     1       9.921  -4.979  26.469  0.00  0.00    -0.389 OA
ATOM      3  H   UNL     1      10.550  -4.319  26.811  0.00  0.00    +0.210 HD
ENDBRANCH   1   2
BRANCH   1   4
ATOM      4  C   UNL     1       7.569  -5.438  27.098  0.00  0.00    +0.118 C 
BRANCH   4   8
ATOM      5  C   UNL     1       3.500  -5.290  28.515  0.00  0.00    -0.005 C 
ATOM      6  C   UNL     1       3.983  -6.486  27.685  0.00  0.00    +0.032 C 
ATOM      7  C   UNL     1       5.267  -6.326  26.846  0.00  0.00    +0.143 C 
ATOM      8  N   UNL     1       6.122  -5.139  27.025  0.00  0.00    -0.289 NA
ATOM      9  C   UNL     1       5.719  -4.233  28.104  0.00  0.00    +0.089 C 
ATOM     10  C   UNL     1       4.208  -3.974  28.186  0.00  0.00    +0.006 C 
ATOM     11  C   UNL     1       3.657  -3.243  26.952  0.00  0.00    +0.005 C 
ATOM     12  C   UNL     1       2.130  -3.215  26.873  0.00  0.00    +0.000 C 
ATOM     13  C   UNL     1       1.497  -4.575  27.137  0.00  0.00    +0.000 C 
ATOM     14  C   UNL     1       1.973  -5.149  28.466  0.00  0.00    +0.004 C 
BRANCH   7  15
ATOM     15  C   UNL     1       4.865  -6.465  25.345  0.00  0.00    +0.231 C 
ATOM     16  N   UNL     1       5.128  -5.324  24.603  0.00  0.00    -0.309 N 
ATOM     17  H   UNL     1       5.150  -4.469  25.143  0.00  0.00    +0.149 HD
ATOM     18  O   UNL     1       4.433  -7.495  24.840  0.00  0.00    -0.274 OA
BRANCH  16  19
ATOM     19  C   UNL     1       4.834  -5.180  23.170  0.00  0.00    +0.026 C 
ATOM     20  C   UNL     1       5.808  -5.988  22.297  0.00  0.00    +0.031 C 
ATOM     21  C   UNL     1       5.002  -3.689  22.824  0.00  0.00    +0.031 C 
ATOM     22  C   UNL     1       3.390  -5.594  22.858  0.00  0.00    +0.031 C 
ENDBRANCH  16  19
ENDBRANCH   7  15
ENDBRANCH   4   8
ENDBRANCH   1   4
BRANCH   1  23
ATOM     23  C   UNL     1       8.211  -3.681  25.262  0.00  0.00    +0.113 C 
BRANCH  23  24
ATOM     24  N   UNL     1       7.220  -2.633  25.506  0.00  0.00    -0.305 N 
ATOM     25  H   UNL     1       6.252  -2.847  25.300  0.00  0.00    +0.149 HD
ATOM     26  C   UNL     1       7.500  -1.547  26.309  0.00  0.00    +0.245 C 
ATOM     27  O   UNL     1       8.579  -1.360  26.853  0.00  0.00    -0.270 OA
BRANCH  26  28
ATOM     28  C   UNL     1       6.378  -0.581  26.488  0.00  0.00    +0.043 A 
ATOM     29  C   UNL     1       5.802  -0.491  27.768  0.00  0.00    +0.013 A 
ATOM     30  C   UNL     1       4.729   0.369  28.005  0.00  0.00    +0.004 A 
ATOM     31  C   UNL     1       4.213   1.115  26.959  0.00  0.00    +0.046 A 
ATOM     32  C   UNL     1       4.763   1.007  25.682  0.00  0.00    +0.120 A 
ATOM     33  C   UNL     1       5.871   0.184  25.417  0.00  0.00    +0.003 A 
ATOM     34  C   UNL     1       6.472   0.166  24.038  0.00  0.00    +0.048 C 
BRANCH  32  35
ATOM     35  O   UNL     1       4.149   1.751  24.713  0.00  0.00    -0.506 OA
ATOM     36  H   UNL     1       4.737   2.479  24.453  0.00  0.00    +0.292 HD
ENDBRANCH  32  35
ENDBRANCH  26  28
ENDBRANCH  23  24
BRANCH  23  37
ATOM     37  C   UNL     1       9.431  -3.102  24.497  0.00  0.00    +0.099 C 
BRANCH  37  38
ATOM     38  S   UNL     1       8.991  -2.447  22.831  0.00  0.00    -0.123 S 
BRANCH  38  39
ATOM     39  C   UNL     1       9.536  -0.745  22.913  0.00  0.00    +0.008 A 
ATOM     40  C   UNL     1       9.441   0.164  21.854  0.00  0.00    +0.015 A 
ATOM     41  C   UNL     1       9.951   1.463  21.981  0.00  0.00    +0.001 A 
ATOM     42  C   UNL     1      10.564   1.863  23.166  0.00  0.00    +0.000 A 
ATOM     43  C   UNL     1      10.668   0.967  24.226  0.00  0.00    +0.001 A 
ATOM     44  C   UNL     1      10.159  -0.328  24.098  0.00  0.00    +0.015 A 
ENDBRANCH  38  39
ENDBRANCH  37  38
ENDBRANCH  23  37
ENDBRANCH   1  23
TORSDOF 12
ENDMDL
MODEL 5
REMARK VINA RESULT:      -7.0      2.423      7.535
REMARK  Name = 
REMARK  16 active torsions:
REMARK  status: ('A' for Active; 'I' for Inactive)
REMARK    1  A    between atoms: N_10  and  C_11
REMARK    2  A    between atoms: C_11  and  C_12
REMARK    3  A    between atoms: C_12  and  O_14
REMARK    4  A    between atoms: C_12  and  C_15
REMARK    5  A    between atoms: C_15  and  C_17
REMARK    6  A    between atoms: C_15  and  N_25
REMARK    7  A    between atoms: C_17  and  S_18
REMARK    8  A    between atoms: S_18  and  C_19
REMARK    9  A    between atoms: C_26  and  C_28
REMARK   10  A    between atoms: C_29  and  C_30
REMARK   11  A    between atoms: C_31  and  O_32
REMARK   12  A    between atoms: C_36  and  C_39
REMARK   13  A    between atoms: N_41  and  C_42
REMARK   14  A    between atoms: C_42  and  C_43
REMARK   15  A    between atoms: C_42  and  C_44
REMARK   16  A    between atoms: C_42  and  C_45
REMARK                            x       y       z     vdW  Elec       q    Type
REMARK                         _______ _______ _______ _____ _____    ______ ____
ROOT
ATOM      1  C   UNL     1       8.155  -1.033  26.562  0.00  0.00    +0.149 C 
ENDROOT
BRANCH   1   2
ATOM      2  O   UNL     1       9.236  -0.399  27.266  0.00  0.00    -0.389 OA
ATOM      3  H   UNL     1      10.014  -0.444  26.682  0.00  0.00    +0.210 HD
ENDBRANCH   1   2
BRANCH   1   4
ATOM      4  C   UNL     1       8.387  -2.573  26.434  0.00  0.00    +0.118 C 
BRANCH   4   8
ATOM      5  C   UNL     1       5.663  -5.878  25.935  0.00  0.00    -0.005 C 
ATOM      6  C   UNL     1       5.208  -4.449  25.612  0.00  0.00    +0.032 C 
ATOM      7  C   UNL     1       6.020  -3.271  26.189  0.00  0.00    +0.143 C 
ATOM      8  N   UNL     1       7.323  -3.519  26.832  0.00  0.00    -0.289 NA
ATOM      9  C   UNL     1       7.800  -4.903  26.769  0.00  0.00    +0.089 C 
ATOM     10  C   UNL     1       6.722  -5.961  27.037  0.00  0.00    +0.006 C 
ATOM     11  C   UNL     1       6.162  -5.897  28.467  0.00  0.00    +0.005 C 
ATOM     12  C   UNL     1       4.906  -6.742  28.684  0.00  0.00    +0.000 C 
ATOM     13  C   UNL     1       3.865  -6.552  27.589  0.00  0.00    +0.000 C 
ATOM     14  C   UNL     1       4.470  -6.801  26.212  0.00  0.00    +0.004 C 
BRANCH   7  15
ATOM     15  C   UNL     1       5.087  -2.495  27.168  0.00  0.00    +0.231 C 
ATOM     16  N   UNL     1       4.789  -1.213  26.735  0.00  0.00    -0.309 N 
ATOM     17  H   UNL     1       5.481  -0.809  26.117  0.00  0.00    +0.149 HD
ATOM     18  O   UNL     1       4.592  -2.981  28.180  0.00  0.00    -0.274 OA
BRANCH  16  19
ATOM     19  C   UNL     1       3.944  -0.263  27.473  0.00  0.00    +0.026 C 
ATOM     20  C   UNL     1       2.482  -0.732  27.552  0.00  0.00    +0.031 C 
ATOM     21  C   UNL     1       3.981   1.068  26.698  0.00  0.00    +0.031 C 
ATOM     22  C   UNL     1       4.490  -0.020  28.886  0.00  0.00    +0.031 C 
ENDBRANCH  16  19
ENDBRANCH   7  15
ENDBRANCH   4   8
ENDBRANCH   1   4
BRANCH   1  23
ATOM     23  C   UNL     1       7.863  -0.308  25.223  0.00  0.00    +0.113 C 
BRANCH  23  24
ATOM     24  N   UNL     1       8.484   1.017  25.188  0.00  0.00    -0.305 N 
ATOM     25  H   UNL     1       9.475   1.074  25.381  0.00  0.00    +0.149 HD
ATOM     26  C   UNL     1       7.867   2.087  24.573  0.00  0.00    +0.245 C 
ATOM     27  O   UNL     1       6.768   2.028  24.041  0.00  0.00    -0.270 OA
BRANCH  26  28
ATOM     28  C   UNL     1       8.638   3.363  24.592  0.00  0.00    +0.043 A 
ATOM     29  C   UNL     1       8.211   4.362  25.486  0.00  0.00    +0.013 A 
ATOM     30  C   UNL     1       8.864   5.593  25.540  0.00  0.00    +0.004 A 
ATOM     31  C   UNL     1       9.923   5.839  24.681  0.00  0.00    +0.046 A 
ATOM     32  C   UNL     1      10.331   4.861  23.774  0.00  0.00    +0.120 A 
ATOM     33  C   UNL     1       9.723   3.595  23.722  0.00  0.00    +0.003 A 
ATOM     34  C   UNL     1      10.256   2.552  22.777  0.00  0.00    +0.048 C 
BRANCH  32  35
ATOM     35  O   UNL     1      11.354   5.223  22.941  0.00  0.00    -0.506 OA
ATOM     36  H   UNL     1      11.543   4.489  22.335  0.00  0.00    +0.292 HD
ENDBRANCH  32  35
ENDBRANCH  26  28
ENDBRANCH  23  24
BRANCH  23  37
ATOM     37  C   UNL     1       8.294  -1.137  23.984  0.00  0.00    +0.099 C 
BRANCH  37  38
ATOM     38  S   UNL     1       6.940  -1.348  22.752  0.00  0.00    -0.123 S 
BRANCH  38  39
ATOM     39  C   UNL     1       6.903  -3.119  22.497  0.00  0.00    +0.008 A 
ATOM     40  C   UNL     1       5.932  -3.785  21.741  0.00  0.00    +0.015 A 
ATOM     41  C   UNL     1       5.940  -5.183  21.644  0.00  0.00    +0.001 A 
ATOM     42  C   UNL     1       6.916  -5.927  22.304  0.00  0.00    +0.000 A 
ATOM     43  C   UNL     1       7.885  -5.276  23.062  0.00  0.00    +0.001 A 
ATOM     44  C   UNL     1       7.876  -3.882  23.158  0.00  0.00    +0.015 A 
ENDBRANCH  38  39
ENDBRANCH  37  38
ENDBRANCH  23  37
ENDBRANCH   1  23
TORSDOF 12
ENDMDL
MODEL 6
REMARK VINA RESULT:      -6.9      2.937      8.421
REMARK  Name = 
REMARK  16 active torsions:
REMARK  status: ('A' for Active; 'I' for Inactive)
REMARK    1  A    between atoms: N_10  and  C_11
REMARK    2  A    between atoms: C_11  and  C_12
REMARK    3  A    between atoms: C_12  and  O_14
REMARK    4  A    between atoms: C_12  and  C_15
REMARK    5  A    between atoms: C_15  and  C_17
REMARK    6  A    between atoms: C_15  and  N_25
REMARK    7  A    between atoms: C_17  and  S_18
REMARK    8  A    between atoms: S_18  and  C_19
REMARK    9  A    between atoms: C_26  and  C_28
REMARK   10  A    between atoms: C_29  and  C_30
REMARK   11  A    between atoms: C_31  and  O_32
REMARK   12  A    between atoms: C_36  and  C_39
REMARK   13  A    between atoms: N_41  and  C_42
REMARK   14  A    between atoms: C_42  and  C_43
REMARK   15  A    between atoms: C_42  and  C_44
REMARK   16  A    between atoms: C_42  and  C_45
REMARK                            x       y       z     vdW  Elec       q    Type
REMARK                         _______ _______ _______ _____ _____    ______ ____
ROOT
ATOM      1  C   UNL     1       9.082  -1.272  22.316  0.00  0.00    +0.149 C 
ENDROOT
BRANCH   1   2
ATOM      2  O   UNL     1      10.126  -1.625  21.394  0.00  0.00    -0.389 OA
ATOM      3  H   UNL     1       9.874  -1.253  20.530  0.00  0.00    +0.210 HD
ENDBRANCH   1   2
BRANCH   1   4
ATOM      4  C   UNL     1       7.917  -2.313  22.280  0.00  0.00    +0.118 C 
BRANCH   4   8
ATOM      5  C   UNL     1       7.944  -4.574  25.951  0.00  0.00    -0.005 C 
ATOM      6  C   UNL     1       7.418  -5.210  24.658  0.00  0.00    +0.032 C 
ATOM      7  C   UNL     1       7.022  -4.283  23.491  0.00  0.00    +0.143 C 
ATOM      8  N   UNL     1       7.362  -2.849  23.541  0.00  0.00    -0.289 NA
ATOM      9  C   UNL     1       8.173  -2.436  24.689  0.00  0.00    +0.089 C 
ATOM     10  C   UNL     1       7.746  -3.058  26.026  0.00  0.00    +0.006 C 
ATOM     11  C   UNL     1       6.342  -2.619  26.471  0.00  0.00    +0.005 C 
ATOM     12  C   UNL     1       5.778  -3.424  27.642  0.00  0.00    +0.000 C 
ATOM     13  C   UNL     1       5.943  -4.927  27.465  0.00  0.00    +0.000 C 
ATOM     14  C   UNL     1       7.399  -5.288  27.194  0.00  0.00    +0.004 C 
BRANCH   7  15
ATOM     15  C   UNL     1       5.489  -4.454  23.258  0.00  0.00    +0.231 C 
ATOM     16  N   UNL     1       4.863  -5.176  24.262  0.00  0.00    -0.309 N 
ATOM     17  H   UNL     1       5.471  -5.814  24.760  0.00  0.00    +0.149 HD
ATOM     18  O   UNL     1       4.871  -3.942  22.331  0.00  0.00    -0.274 OA
BRANCH  16  19
ATOM     19  C   UNL     1       3.429  -5.497  24.284  0.00  0.00    +0.026 C 
ATOM     20  C   UNL     1       2.569  -4.268  24.624  0.00  0.00    +0.031 C 
ATOM     21  C   UNL     1       3.219  -6.551  25.386  0.00  0.00    +0.031 C 
ATOM     22  C   UNL     1       2.976  -6.093  22.945  0.00  0.00    +0.031 C 
ENDBRANCH  16  19
ENDBRANCH   7  15
ENDBRANCH   4   8
ENDBRANCH   1   4
BRANCH   1  23
ATOM     23  C   UNL     1       8.639   0.201  22.116  0.00  0.00    +0.113 C 
BRANCH  23  24
ATOM     24  N   UNL     1       7.716   0.627  23.168  0.00  0.00    -0.305 N 
ATOM     25  H   UNL     1       7.975   0.429  24.126  0.00  0.00    +0.149 HD
ATOM     26  C   UNL     1       6.732   1.564  22.929  0.00  0.00    +0.245 C 
ATOM     27  O   UNL     1       6.537   2.088  21.842  0.00  0.00    -0.270 OA
BRANCH  26  28
ATOM     28  C   UNL     1       5.891   1.919  24.109  0.00  0.00    +0.043 A 
ATOM     29  C   UNL     1       5.605   0.894  25.029  0.00  0.00    +0.013 A 
ATOM     30  C   UNL     1       4.800   1.143  26.141  0.00  0.00    +0.004 A 
ATOM     31  C   UNL     1       4.257   2.405  26.318  0.00  0.00    +0.046 A 
ATOM     32  C   UNL     1       4.515   3.415  25.392  0.00  0.00    +0.120 A 
ATOM     33  C   UNL     1       5.355   3.212  24.284  0.00  0.00    +0.003 A 
ATOM     34  C   UNL     1       5.661   4.360  23.361  0.00  0.00    +0.048 C 
BRANCH  32  35
ATOM     35  O   UNL     1       3.892   4.608  25.636  0.00  0.00    -0.506 OA
ATOM     36  H   UNL     1       4.386   5.319  25.196  0.00  0.00    +0.292 HD
ENDBRANCH  32  35
ENDBRANCH  26  28
ENDBRANCH  23  24
BRANCH  23  37
ATOM     37  C   UNL     1       9.838   1.182  22.022  0.00  0.00    +0.099 C 
BRANCH  37  38
ATOM     38  S   UNL     1      10.553   1.604  23.667  0.00  0.00    -0.123 S 
BRANCH  38  39
ATOM     39  C   UNL     1      10.507   3.392  23.678  0.00  0.00    +0.008 A 
ATOM     40  C   UNL     1      11.603   4.211  23.387  0.00  0.00    +0.015 A 
ATOM     41  C   UNL     1      11.497   5.604  23.480  0.00  0.00    +0.001 A 
ATOM     42  C   UNL     1      10.295   6.193  23.868  0.00  0.00    +0.000 A 
ATOM     43  C   UNL     1       9.197   5.389  24.162  0.00  0.00    +0.001 A 
ATOM     44  C   UNL     1       9.305   4.000  24.069  0.00  0.00    +0.015 A 
ENDBRANCH  38  39
ENDBRANCH  37  38
ENDBRANCH  23  37
ENDBRANCH   1  23
TORSDOF 12
ENDMDL
MODEL 7
REMARK VINA RESULT:      -6.9      2.102      7.662
REMARK  Name = 
REMARK  16 active torsions:
REMARK  status: ('A' for Active; 'I' for Inactive)
REMARK    1  A    between atoms: N_10  and  C_11
REMARK    2  A    between atoms: C_11  and  C_12
REMARK    3  A    between atoms: C_12  and  O_14
REMARK    4  A    between atoms: C_12  and  C_15
REMARK    5  A    between atoms: C_15  and  C_17
REMARK    6  A    between atoms: C_15  and  N_25
REMARK    7  A    between atoms: C_17  and  S_18
REMARK    8  A    between atoms: S_18  and  C_19
REMARK    9  A    between atoms: C_26  and  C_28
REMARK   10  A    between atoms: C_29  and  C_30
REMARK   11  A    between atoms: C_31  and  O_32
REMARK   12  A    between atoms: C_36  and  C_39
REMARK   13  A    between atoms: N_41  and  C_42
REMARK   14  A    between atoms: C_42  and  C_43
REMARK   15  A    between atoms: C_42  and  C_44
REMARK   16  A    between atoms: C_42  and  C_45
REMARK                            x       y       z     vdW  Elec       q    Type
REMARK                         _______ _______ _______ _____ _____    ______ ____
ROOT
ATOM      1  C   UNL     1       8.309  -4.370  24.567  0.00  0.00    +0.149 C 
ENDROOT
BRANCH   1   2
ATOM      2  O   UNL     1       9.594  -4.931  24.885  0.00  0.00    -0.389 OA
ATOM      3  H   UNL     1       9.663  -4.939  25.856  0.00  0.00    +0.210 HD
ENDBRANCH   1   2
BRANCH   1   4
ATOM      4  C   UNL     1       7.430  -5.383  23.765  0.00  0.00    +0.118 C 
BRANCH   4   8
ATOM      5  C   UNL     1       3.198  -4.572  23.896  0.00  0.00    -0.005 C 
ATOM      6  C   UNL     1       4.120  -4.031  24.996  0.00  0.00    +0.032 C 
ATOM      7  C   UNL     1       5.513  -4.672  25.167  0.00  0.00    +0.143 C 
ATOM      8  N   UNL     1       6.021  -5.612  24.152  0.00  0.00    -0.289 NA
ATOM      9  C   UNL     1       5.172  -5.779  22.970  0.00  0.00    +0.089 C 
ATOM     10  C   UNL     1       3.672  -5.888  23.275  0.00  0.00    +0.006 C 
ATOM     11  C   UNL     1       3.314  -7.143  24.086  0.00  0.00    +0.005 C 
ATOM     12  C   UNL     1       1.889  -7.143  24.640  0.00  0.00    +0.000 C 
ATOM     13  C   UNL     1       1.512  -5.829  25.310  0.00  0.00    +0.000 C 
ATOM     14  C   UNL     1       1.741  -4.651  24.370  0.00  0.00    +0.004 C 
BRANCH   7  15
ATOM     15  C   UNL     1       5.548  -5.344  26.574  0.00  0.00    +0.231 C 
ATOM     16  N   UNL     1       4.430  -5.058  27.342  0.00  0.00    -0.309 N 
ATOM     17  H   UNL     1       3.968  -4.190  27.101  0.00  0.00    +0.149 HD
ATOM     18  O   UNL     1       6.426  -6.113  26.949  0.00  0.00    -0.274 OA
BRANCH  16  19
ATOM     19  C   UNL     1       4.215  -5.549  28.711  0.00  0.00    +0.026 C 
ATOM     20  C   UNL     1       4.091  -7.081  28.760  0.00  0.00    +0.031 C 
ATOM     21  C   UNL     1       2.888  -4.944  29.204  0.00  0.00    +0.031 C 
ATOM     22  C   UNL     1       5.340  -5.088  29.647  0.00  0.00    +0.031 C 
ENDBRANCH  16  19
ENDBRANCH   7  15
ENDBRANCH   4   8
ENDBRANCH   1   4
BRANCH   1  23
ATOM     23  C   UNL     1       8.461  -2.978  23.902  0.00  0.00    +0.113 C 
BRANCH  23  24
ATOM     24  N   UNL     1       7.660  -1.967  24.595  0.00  0.00    -0.305 N 
ATOM     25  H   UNL     1       8.079  -1.501  25.389  0.00  0.00    +0.149 HD
ATOM     26  C   UNL     1       6.549  -1.399  24.006  0.00  0.00    +0.245 C 
ATOM     27  O   UNL     1       6.135  -1.700  22.896  0.00  0.00    -0.270 OA
BRANCH  26  28
ATOM     28  C   UNL     1       5.856  -0.362  24.823  0.00  0.00    +0.043 A 
ATOM     29  C   UNL     1       5.240  -0.784  26.016  0.00  0.00    +0.013 A 
ATOM     30  C   UNL     1       4.548   0.124  26.817  0.00  0.00    +0.004 A 
ATOM     31  C   UNL     1       4.444   1.444  26.414  0.00  0.00    +0.046 A 
ATOM     32  C   UNL     1       5.029   1.861  25.219  0.00  0.00    +0.120 A 
ATOM     33  C   UNL     1       5.770   0.984  24.409  0.00  0.00    +0.003 A 
ATOM     34  C   UNL     1       6.445   1.506  23.169  0.00  0.00    +0.048 C 
BRANCH  32  35
ATOM     35  O   UNL     1       4.828   3.174  24.892  0.00  0.00    -0.506 OA
ATOM     36  H   UNL     1       5.506   3.449  24.254  0.00  0.00    +0.292 HD
ENDBRANCH  32  35
ENDBRANCH  26  28
ENDBRANCH  23  24
BRANCH  23  37
ATOM     37  C   UNL     1       9.939  -2.517  23.801  0.00  0.00    +0.099 C 
BRANCH  37  38
ATOM     38  S   UNL     1      10.280  -1.517  22.291  0.00  0.00    -0.123 S 
BRANCH  38  39
ATOM     39  C   UNL     1      10.133   0.165  22.882  0.00  0.00    +0.008 A 
ATOM     40  C   UNL     1      10.084   0.524  24.233  0.00  0.00    +0.015 A 
ATOM     41  C   UNL     1       9.905   1.861  24.610  0.00  0.00    +0.001 A 
ATOM     42  C   UNL     1       9.769   2.851  23.639  0.00  0.00    +0.000 A 
ATOM     43  C   UNL     1       9.813   2.507  22.291  0.00  0.00    +0.001 A 
ATOM     44  C   UNL     1       9.992   1.173  21.917  0.00  0.00    +0.015 A 
ENDBRANCH  38  39
ENDBRANCH  37  38
ENDBRANCH  23  37
ENDBRANCH   1  23
TORSDOF 12
ENDMDL
MODEL 8
REMARK VINA RESULT:      -6.9      1.810      3.342
REMARK  Name = 
REMARK  16 active torsions:
REMARK  status: ('A' for Active; 'I' for Inactive)
REMARK    1  A    between atoms: N_10  and  C_11
REMARK    2  A    between atoms: C_11  and  C_12
REMARK    3  A    between atoms: C_12  and  O_14
REMARK    4  A    between atoms: C_12  and  C_15
REMARK    5  A    between atoms: C_15  and  C_17
REMARK    6  A    between atoms: C_15  and  N_25
REMARK    7  A    between atoms: C_17  and  S_18
REMARK    8  A    between atoms: S_18  and  C_19
REMARK    9  A    between atoms: C_26  and  C_28
REMARK   10  A    between atoms: C_29  and  C_30
REMARK   11  A    between atoms: C_31  and  O_32
REMARK   12  A    between atoms: C_36  and  C_39
REMARK   13  A    between atoms: N_41  and  C_42
REMARK   14  A    between atoms: C_42  and  C_43
REMARK   15  A    between atoms: C_42  and  C_44
REMARK   16  A    between atoms: C_42  and  C_45
REMARK                            x       y       z     vdW  Elec       q    Type
REMARK                         _______ _______ _______ _____ _____    ______ ____
ROOT
ATOM      1  C   UNL     1       8.438  -3.697  24.150  0.00  0.00    +0.149 C 
ENDROOT
BRANCH   1   2
ATOM      2  O   UNL     1       8.927  -5.049  24.168  0.00  0.00    -0.389 OA
ATOM      3  H   UNL     1       8.178  -5.620  23.925  0.00  0.00    +0.210 HD
ENDBRANCH   1   2
BRANCH   1   4
ATOM      4  C   UNL     1       9.614  -2.668  24.159  0.00  0.00    +0.118 C 
BRANCH   4   8
ATOM      5  C   UNL     1      10.632   1.403  23.170  0.00  0.00    -0.005 C 
ATOM      6  C   UNL     1      10.509   0.975  24.638  0.00  0.00    +0.032 C 
ATOM      7  C   UNL     1       9.745  -0.326  24.962  0.00  0.00    +0.143 C 
ATOM      8  N   UNL     1       9.353  -1.241  23.875  0.00  0.00    -0.289 NA
ATOM      9  C   UNL     1       9.837  -0.874  22.541  0.00  0.00    +0.089 C 
ATOM     10  C   UNL     1       9.728   0.622  22.214  0.00  0.00    +0.006 C 
ATOM     11  C   UNL     1       8.275   1.119  22.159  0.00  0.00    +0.005 C 
ATOM     12  C   UNL     1       8.138   2.642  22.111  0.00  0.00    +0.000 C 
ATOM     13  C   UNL     1       9.009   3.349  23.140  0.00  0.00    +0.000 C 
ATOM     14  C   UNL     1      10.466   2.919  23.010  0.00  0.00    +0.004 C 
BRANCH   7  15
ATOM     15  C   UNL     1       8.490   0.067  25.801  0.00  0.00    +0.231 C 
ATOM     16  N   UNL     1       8.220   1.425  25.772  0.00  0.00    -0.309 N 
ATOM     17  H   UNL     1       9.025   2.009  25.587  0.00  0.00    +0.149 HD
ATOM     18  O   UNL     1       7.760  -0.739  26.367  0.00  0.00    -0.274 OA
BRANCH  16  19
ATOM     19  C   UNL     1       7.106   2.066  26.487  0.00  0.00    +0.026 C 
ATOM     20  C   UNL     1       6.946   1.517  27.915  0.00  0.00    +0.031 C 
ATOM     21  C   UNL     1       5.822   1.743  25.702  0.00  0.00    +0.031 C 
ATOM     22  C   UNL     1       7.281   3.589  26.532  0.00  0.00    +0.031 C 
ENDBRANCH  16  19
ENDBRANCH   7  15
ENDBRANCH   4   8
ENDBRANCH   1   4
BRANCH   1  23
ATOM     23  C   UNL     1       7.376  -3.476  25.257  0.00  0.00    +0.113 C 
BRANCH  23  24
ATOM     24  N   UNL     1       6.109  -4.126  24.918  0.00  0.00    -0.305 N 
ATOM     25  H   UNL     1       5.981  -5.084  25.215  0.00  0.00    +0.149 HD
ATOM     26  C   UNL     1       5.000  -3.395  24.545  0.00  0.00    +0.245 C 
ATOM     27  O   UNL     1       4.986  -2.177  24.446  0.00  0.00    -0.270 OA
BRANCH  26  28
ATOM     28  C   UNL     1       3.775  -4.197  24.262  0.00  0.00    +0.043 A 
ATOM     29  C   UNL     1       2.603  -3.853  24.959  0.00  0.00    +0.013 A 
ATOM     30  C   UNL     1       1.426  -4.576  24.768  0.00  0.00    +0.004 A 
ATOM     31  C   UNL     1       1.426  -5.660  23.906  0.00  0.00    +0.046 A 
ATOM     32  C   UNL     1       2.594  -6.022  23.235  0.00  0.00    +0.120 A 
ATOM     33  C   UNL     1       3.785  -5.290  23.371  0.00  0.00    +0.003 A 
ATOM     34  C   UNL     1       4.994  -5.679  22.562  0.00  0.00    +0.048 C 
BRANCH  32  35
ATOM     35  O   UNL     1       2.497  -7.134  22.445  0.00  0.00    -0.506 OA
ATOM     36  H   UNL     1       1.632  -7.551  22.591  0.00  0.00    +0.292 HD
ENDBRANCH  32  35
ENDBRANCH  26  28
ENDBRANCH  23  24
BRANCH  23  37
ATOM     37  C   UNL     1       7.861  -3.939  26.657  0.00  0.00    +0.099 C 
BRANCH  37  38
ATOM     38  S   UNL     1       7.362  -5.668  27.055  0.00  0.00    -0.123 S 
BRANCH  38  39
ATOM     39  C   UNL     1       5.646  -5.491  27.529  0.00  0.00    +0.008 A 
ATOM     40  C   UNL     1       5.153  -4.457  28.331  0.00  0.00    +0.015 A 
ATOM     41  C   UNL     1       3.803  -4.428  28.707  0.00  0.00    +0.001 A 
ATOM     42  C   UNL     1       2.937  -5.435  28.289  0.00  0.00    +0.000 A 
ATOM     43  C   UNL     1       3.416  -6.472  27.494  0.00  0.00    +0.001 A 
ATOM     44  C   UNL     1       4.761  -6.499  27.119  0.00  0.00    +0.015 A 
ENDBRANCH  38  39
ENDBRANCH  37  38
ENDBRANCH  23  37
ENDBRANCH   1  23
TORSDOF 12
ENDMDL
MODEL 9
REMARK VINA RESULT:      -6.8      2.523      5.781
REMARK  Name = 
REMARK  16 active torsions:
REMARK  status: ('A' for Active; 'I' for Inactive)
REMARK    1  A    between atoms: N_10  and  C_11
REMARK    2  A    between atoms: C_11  and  C_12
REMARK    3  A    between atoms: C_12  and  O_14
REMARK    4  A    between atoms: C_12  and  C_15
REMARK    5  A    between atoms: C_15  and  C_17
REMARK    6  A    between atoms: C_15  and  N_25
REMARK    7  A    between atoms: C_17  and  S_18
REMARK    8  A    between atoms: S_18  and  C_19
REMARK    9  A    between atoms: C_26  and  C_28
REMARK   10  A    between atoms: C_29  and  C_30
REMARK   11  A    between atoms: C_31  and  O_32
REMARK   12  A    between atoms: C_36  and  C_39
REMARK   13  A    between atoms: N_41  and  C_42
REMARK   14  A    between atoms: C_42  and  C_43
REMARK   15  A    between atoms: C_42  and  C_44
REMARK   16  A    between atoms: C_42  and  C_45
REMARK                            x       y       z     vdW  Elec       q    Type
REMARK                         _______ _______ _______ _____ _____    ______ ____
ROOT
ATOM      1  C   UNL     1       6.023   0.140  25.644  0.00  0.00    +0.149 C 
ENDROOT
BRANCH   1   2
ATOM      2  O   UNL     1       4.614  -0.144  25.643  0.00  0.00    -0.389 OA
ATOM      3  H   UNL     1       4.504  -1.014  26.067  0.00  0.00    +0.210 HD
ENDBRANCH   1   2
BRANCH   1   4
ATOM      4  C   UNL     1       6.458   0.861  24.327  0.00  0.00    +0.118 C 
BRANCH   4   8
ATOM      5  C   UNL     1       8.324   4.647  23.451  0.00  0.00    -0.005 C 
ATOM      6  C   UNL     1       8.524   3.989  24.822  0.00  0.00    +0.032 C 
ATOM      7  C   UNL     1       7.534   2.890  25.261  0.00  0.00    +0.143 C 
ATOM      8  N   UNL     1       6.573   2.334  24.291  0.00  0.00    -0.289 NA
ATOM      9  C   UNL     1       6.721   2.816  22.915  0.00  0.00    +0.089 C 
ATOM     10  C   UNL     1       6.981   4.324  22.793  0.00  0.00    +0.006 C 
ATOM     11  C   UNL     1       5.804   5.178  23.290  0.00  0.00    +0.005 C 
ATOM     12  C   UNL     1       6.131   6.664  23.442  0.00  0.00    +0.000 C 
ATOM     13  C   UNL     1       7.444   6.912  24.172  0.00  0.00    +0.000 C 
ATOM     14  C   UNL     1       8.590   6.157  23.507  0.00  0.00    +0.004 C 
BRANCH   7  15
ATOM     15  C   UNL     1       6.772   3.421  26.514  0.00  0.00    +0.231 C 
ATOM     16  N   UNL     1       7.214   2.855  27.699  0.00  0.00    -0.309 N 
ATOM     17  H   UNL     1       7.637   1.941  27.595  0.00  0.00    +0.149 HD
ATOM     18  O   UNL     1       5.924   4.306  26.482  0.00  0.00    -0.274 OA
BRANCH  16  19
ATOM     19  C   UNL     1       6.660   3.165  29.025  0.00  0.00    +0.026 C 
ATOM     20  C   UNL     1       6.832   4.649  29.389  0.00  0.00    +0.031 C 
ATOM     21  C   UNL     1       7.444   2.325  30.049  0.00  0.00    +0.031 C 
ATOM     22  C   UNL     1       5.177   2.778  29.108  0.00  0.00    +0.031 C 
ENDBRANCH  16  19
ENDBRANCH   7  15
ENDBRANCH   4   8
ENDBRANCH   1   4
BRANCH   1  23
ATOM     23  C   UNL     1       6.845  -1.128  25.989  0.00  0.00    +0.113 C 
BRANCH  23  24
ATOM     24  N   UNL     1       6.631  -2.187  25.001  0.00  0.00    -0.305 N 
ATOM     25  H   UNL     1       6.833  -1.971  24.033  0.00  0.00    +0.149 HD
ATOM     26  C   UNL     1       6.519  -3.510  25.374  0.00  0.00    +0.245 C 
ATOM     27  O   UNL     1       6.563  -3.900  26.532  0.00  0.00    -0.270 OA
BRANCH  26  28
ATOM     28  C   UNL     1       6.336  -4.475  24.251  0.00  0.00    +0.043 A 
ATOM     29  C   UNL     1       7.482  -4.844  23.524  0.00  0.00    +0.013 A 
ATOM     30  C   UNL     1       7.385  -5.718  22.442  0.00  0.00    +0.004 A 
ATOM     31  C   UNL     1       6.142  -6.200  22.067  0.00  0.00    +0.046 A 
ATOM     32  C   UNL     1       5.000  -5.814  22.769  0.00  0.00    +0.120 A 
ATOM     33  C   UNL     1       5.066  -4.969  23.889  0.00  0.00    +0.003 A 
ATOM     34  C   UNL     1       3.810  -4.648  24.655  0.00  0.00    +0.048 C 
BRANCH  32  35
ATOM     35  O   UNL     1       3.819  -6.310  22.287  0.00  0.00    -0.506 OA
ATOM     36  H   UNL     1       3.828  -7.278  22.366  0.00  0.00    +0.292 HD
ENDBRANCH  32  35
ENDBRANCH  26  28
ENDBRANCH  23  24
BRANCH  23  37
ATOM     37  C   UNL     1       8.361  -0.838  26.147  0.00  0.00    +0.099 C 
BRANCH  37  38
ATOM     38  S   UNL     1       9.388  -1.646  24.847  0.00  0.00    -0.123 S 
BRANCH  38  39
ATOM     39  C   UNL     1       9.747  -0.299  23.725  0.00  0.00    +0.008 A 
ATOM     40  C   UNL     1      10.472   0.845  24.074  0.00  0.00    +0.015 A 
ATOM     41  C   UNL     1      10.654   1.883  23.150  0.00  0.00    +0.001 A 
ATOM     42  C   UNL     1      10.109   1.789  21.872  0.00  0.00    +0.000 A 
ATOM     43  C   UNL     1       9.383   0.657  21.513  0.00  0.00    +0.001 A 
ATOM     44  C   UNL     1       9.202  -0.377  22.435  0.00  0.00    +0.015 A 
ENDBRANCH  38  39
ENDBRANCH  37  38
ENDBRANCH  23  37
ENDBRANCH   1  23
TORSDOF 12
ENDMDL
