MODEL 1
REMARK VINA RESULT:      12.4      0.000      0.000
REMARK  Name = 
REMARK  20 active torsions:
REMARK  status: ('A' for Active; 'I' for Inactive)
REMARK    1  A    between atoms: C_1  and  O_2
REMARK    2  A    between atoms: O_2  and  C_3
REMARK    3  A    between atoms: C_8  and  C_9
REMARK    4  A    between atoms: C_17  and  O_18
REMARK    5  A    between atoms: C_19  and  C_20
REMARK    6  A    between atoms: C_21  and  O_22
REMARK    7  A    between atoms: C_27  and  C_28
REMARK    8  A    between atoms: C_32  and  C_34
REMARK    9  A    between atoms: C_35  and  O_37
REMARK   10  A    between atoms: C_38  and  C_40
REMARK   11  A    between atoms: C_41  and  O_43
REMARK   12  A    between atoms: C_44  and  C_46
REMARK   13  A    between atoms: C_47  and  O_49
REMARK   14  A    between atoms: O_49  and  C_50
REMARK   15  A    between atoms: C_50  and  C_51
REMARK   16  A    between atoms: C_53  and  C_55
REMARK   17  A    between atoms: C_56  and  C_57
REMARK   18  A    between atoms: N_58  and  N_59
REMARK   19  A    between atoms: N_62  and  C_65
REMARK   20  A    between atoms: C_70  and  O_71
REMARK                            x       y       z     vdW  Elec       q    Type
REMARK                         _______ _______ _______ _____ _____    ______ ____
ROOT
ATOM      1  C   UNL     1       7.295   1.308  27.117  0.00  0.00    +0.150 C 
ATOM      2  C   UNL     1       6.481  -0.594  28.057  0.00  0.00    +0.060 C 
ATOM      3  C   UNL     1       7.393   0.586  29.324  0.00  0.00    +0.014 C 
ATOM      4  C   UNL     1       5.589  -2.709  28.503  0.00  0.00    +0.187 C 
ATOM      5  C   UNL     1       4.245  -4.547  28.265  0.00  0.00    +0.056 C 
ATOM      6  C   UNL     1       2.832  -5.728  29.110  0.00  0.00    +0.014 C 
ATOM      7  C   UNL     1       3.889  -6.635  27.786  0.00  0.00    +0.126 C 
ATOM      8  C   UNL     1       2.279  -7.666  27.040  0.00  0.00    +0.044 C 
ATOM      9  C   UNL     1       1.032  -8.152  25.554  0.00  0.00    +0.013 C 
ATOM     10  C   UNL     1       2.947  -7.865  25.791  0.00  0.00    +0.126 C 
ATOM     11  C   UNL     1       2.006  -6.276  26.054  0.00  0.00    +0.037 C 
ATOM     12  C   UNL     1       0.447  -6.162  27.120  0.00  0.00    +0.014 C 
ATOM     13  C   UNL     1       3.113  -5.338  26.037  0.00  0.00    -0.021 C 
ATOM     14  C   UNL     1       3.048  -4.248  25.367  0.00  0.00    -0.003 C 
ATOM     15  C   UNL     1       4.262  -3.544  25.238  0.00  0.00    +0.008 C 
ATOM     16  C   UNL     1       4.114  -2.357  24.672  0.00  0.00    +0.012 C 
ATOM     17  C   UNL     1       2.794  -1.983  24.108  0.00  0.00    +0.049 C 
ATOM     18  C   UNL     1       5.219  -1.453  24.901  0.00  0.00    +0.244 C 
ATOM     19  O   UNL     1       5.917  -1.592  25.898  0.00  0.00    -0.270 OA
ATOM     20  N   UNL     1       5.301  -0.446  23.997  0.00  0.00    -0.278 N 
ATOM     21  H   UNL     1       4.483  -0.256  23.451  0.00  0.00    +0.155 HD
ATOM     22  C   UNL     1       6.419   0.383  23.831  0.00  0.00    +0.089 A 
ATOM     23  C   UNL     1       6.280   1.615  23.164  0.00  0.00    +0.061 A 
ATOM     24  C   UNL     1       7.411   2.375  22.937  0.00  0.00    +0.136 A 
ATOM     25  C   UNL     1       8.671   1.904  23.358  0.00  0.00    +0.046 A 
ATOM     26  C   UNL     1       8.850   0.700  24.095  0.00  0.00    +0.071 A 
ATOM     27  C   UNL     1      10.135   0.362  24.679  0.00  0.00    +0.135 A 
ATOM     28  C   UNL     1      11.256   1.132  24.483  0.00  0.00    +0.034 A 
ATOM     29  C   UNL     1      12.564   0.875  25.160  0.00  0.00    +0.051 C 
ATOM     30  C   UNL     1      11.070   2.199  23.651  0.00  0.00    +0.144 A 
ATOM     31  O   UNL     1      12.103   3.067  23.480  0.00  0.00    -0.444 OA
ATOM     32  C   UNL     1      11.339   4.216  23.270  0.00  0.00    +0.314 C 
ATOM     33  C   UNL     1      11.949   4.795  21.889  0.00  0.00    +0.114 C 
ATOM     34  C   UNL     1       9.955   4.040  22.849  0.00  0.00    +0.250 C 
ATOM     35  O   UNL     1       9.198   4.984  22.673  0.00  0.00    -0.284 OA
ATOM     36  O   UNL     1      10.751   4.539  24.696  0.00  0.00    -0.453 OA
ATOM     37  C   UNL     1       9.368   3.832  25.454  0.00  0.00    +0.190 C 
ATOM     38  C   UNL     1       9.816   2.611  23.127  0.00  0.00    +0.079 A 
ATOM     39  C   UNL     1       7.703  -0.064  24.247  0.00  0.00    +0.150 A 
ATOM     40  C   UNL     1       8.672   2.464  26.179  0.00  0.00    +0.042 C 
ENDROOT
BRANCH   1  42
ATOM     41  C   UNL     1       6.382   4.155  29.273  0.00  0.00    +0.194 C 
ATOM     42  O   UNL     1       7.229   3.150  27.851  0.00  0.00    -0.375 OA
ENDBRANCH   1  42
BRANCH   7  43
ATOM     43  O   UNL     1       4.029  -8.024  28.734  0.00  0.00    -0.391 OA
ATOM     44  H   UNL     1       4.793  -8.037  29.406  0.00  0.00    +0.210 HD
ENDBRANCH   7  43
BRANCH  10  45
ATOM     45  O   UNL     1       4.132  -7.504  25.152  0.00  0.00    -0.391 OA
ATOM     46  H   UNL     1       4.807  -7.660  25.824  0.00  0.00    +0.210 HD
ENDBRANCH  10  45
BRANCH  23  47
ATOM     47  C   UNL     1       4.997   2.091  22.592  0.00  0.00    +0.143 C 
ATOM     48  N   UNL     1       4.818   3.328  22.229  0.00  0.00    -0.192 NA
BRANCH  48  49
ATOM     49  N   UNL     1       3.624   3.621  21.694  0.00  0.00    -0.253 N 
ATOM     50  C   UNL     1       2.337   3.352  22.344  0.00  0.00    +0.141 C 
ATOM     51  C   UNL     1       1.413   2.450  21.511  0.00  0.00    +0.105 C 
ATOM     52  N   UNL     1       1.194   2.949  20.135  0.00  0.00    -0.296 NA
ATOM     53  C   UNL     1       2.523   3.069  19.496  0.00  0.00    +0.105 C 
ATOM     54  C   UNL     1       3.516   3.961  20.269  0.00  0.00    +0.141 C 
BRANCH  52  55
ATOM     55  C   UNL     1       0.444   4.219  20.108  0.00  0.00    +0.057 C 
ATOM     56  C   UNL     1       0.552   4.923  18.748  0.00  0.00    +0.019 C 
ATOM     57  C   UNL     1       0.582   6.424  19.031  0.00  0.00    +0.002 C 
ATOM     58  C   UNL     1       0.461   6.590  20.538  0.00  0.00    +0.002 C 
ATOM     59  C   UNL     1       0.983   5.273  21.079  0.00  0.00    +0.019 C 
ENDBRANCH  52  55
ENDBRANCH  48  49
ENDBRANCH  23  47
BRANCH  24  60
ATOM     60  O   UNL     1       7.355   3.538  22.226  0.00  0.00    -0.505 OA
ATOM     61  H   UNL     1       8.196   3.733  21.758  0.00  0.00    +0.292 HD
ENDBRANCH  24  60
BRANCH  27  62
ATOM     62  O   UNL     1      10.364  -0.672  25.551  0.00  0.00    -0.506 OA
ATOM     63  H   UNL     1      10.516  -0.354  26.445  0.00  0.00    +0.292 HD
ENDBRANCH  27  62
BRANCH  39  64
ATOM     64  O   UNL     1       7.930  -1.382  24.585  0.00  0.00    -0.504 OA
ATOM     65  H   UNL     1       7.059  -1.812  24.676  0.00  0.00    +0.292 HD
ENDBRANCH  39  64
BRANCH   4  66
ATOM     66  O   UNL     1       5.549  -4.331  29.711  0.00  0.00    -0.461 OA
BRANCH  66  67
ATOM     67  C   UNL     1       5.841  -6.190  30.125  0.00  0.00    +0.304 C 
ATOM     68  O   UNL     1       4.928  -6.741  30.484  0.00  0.00    -0.251 OA
ATOM     69  C   UNL     1       7.293  -7.555  30.176  0.00  0.00    +0.136 C 
ENDBRANCH  66  67
ENDBRANCH   4  66
TORSDOF 11
ENDMDL
