MODEL 1
REMARK VINA RESULT:      -4.4      0.000      0.000
REMARK  Name = 
REMARK  2 active torsions:
REMARK  status: ('A' for Active; 'I' for Inactive)
REMARK    1  A    between atoms: C_2  and  C_3
REMARK    2  A    between atoms: C_3  and  C_4
REMARK                            x       y       z     vdW  Elec       q    Type
REMARK                         _______ _______ _______ _____ _____    ______ ____
ROOT
ATOM      1  C   UNL     1      10.186  -0.377  22.860  0.00  0.00    -0.041 A 
ATOM      2  C   UNL     1      10.641   0.241  24.034  0.00  0.00    +0.004 A 
ATOM      3  C   UNL     1      10.659   1.632  24.139  0.00  0.00    +0.000 A 
ATOM      4  C   UNL     1      10.231   2.418  23.073  0.00  0.00    +0.000 A 
ATOM      5  C   UNL     1       9.788   1.815  21.897  0.00  0.00    +0.000 A 
ATOM      6  C   UNL     1       9.766   0.423  21.789  0.00  0.00    +0.004 A 
ENDROOT
BRANCH   1   7
ATOM      7  C   UNL     1      10.192  -1.878  22.745  0.00  0.00    +0.105 C 
BRANCH   7   9
ATOM      8  O   UNL     1       9.960  -3.704  24.302  0.00  0.00    -0.301 OA
ATOM      9  C   UNL     1       9.717  -2.536  24.013  0.00  0.00    +0.228 C 
ENDBRANCH   7   9
ENDBRANCH   1   7
TORSDOF 2
ENDMDL
MODEL 2
REMARK VINA RESULT:      -4.4      0.046      1.610
REMARK  Name = 
REMARK  2 active torsions:
REMARK  status: ('A' for Active; 'I' for Inactive)
REMARK    1  A    between atoms: C_2  and  C_3
REMARK    2  A    between atoms: C_3  and  C_4
REMARK                            x       y       z     vdW  Elec       q    Type
REMARK                         _______ _______ _______ _____ _____    ______ ____
ROOT
ATOM      1  C   UNL     1      10.184  -0.365  22.817  0.00  0.00    -0.041 A 
ATOM      2  C   UNL     1       9.740   0.439  21.757  0.00  0.00    +0.004 A 
ATOM      3  C   UNL     1       9.765   1.830  21.866  0.00  0.00    +0.000 A 
ATOM      4  C   UNL     1      10.225   2.429  23.036  0.00  0.00    +0.000 A 
ATOM      5  C   UNL     1      10.658   1.639  24.099  0.00  0.00    +0.000 A 
ATOM      6  C   UNL     1      10.636   0.248  23.992  0.00  0.00    +0.004 A 
ENDROOT
BRANCH   1   7
ATOM      7  C   UNL     1      10.132  -1.865  22.700  0.00  0.00    +0.105 C 
BRANCH   7   9
ATOM      8  O   UNL     1       9.978  -3.677  24.283  0.00  0.00    -0.301 OA
ATOM      9  C   UNL     1       9.720  -2.512  23.996  0.00  0.00    +0.228 C 
ENDBRANCH   7   9
ENDBRANCH   1   7
TORSDOF 2
ENDMDL
MODEL 3
REMARK VINA RESULT:      -4.0      2.697      4.353
REMARK  Name = 
REMARK  2 active torsions:
REMARK  status: ('A' for Active; 'I' for Inactive)
REMARK    1  A    between atoms: C_2  and  C_3
REMARK    2  A    between atoms: C_3  and  C_4
REMARK                            x       y       z     vdW  Elec       q    Type
REMARK                         _______ _______ _______ _____ _____    ______ ____
ROOT
ATOM      1  C   UNL     1       9.950   0.697  22.531  0.00  0.00    -0.041 A 
ATOM      2  C   UNL     1       9.549  -0.219  21.548  0.00  0.00    +0.004 A 
ATOM      3  C   UNL     1       9.357  -1.563  21.870  0.00  0.00    +0.000 A 
ATOM      4  C   UNL     1       9.570  -2.006  23.173  0.00  0.00    +0.000 A 
ATOM      5  C   UNL     1       9.980  -1.106  24.156  0.00  0.00    +0.000 A 
ATOM      6  C   UNL     1      10.170   0.240  23.837  0.00  0.00    +0.004 A 
ENDROOT
BRANCH   1   7
ATOM      7  C   UNL     1      10.178   2.140  22.171  0.00  0.00    +0.105 C 
BRANCH   7   9
ATOM      8  O   UNL     1      11.541   3.732  23.363  0.00  0.00    -0.301 OA
ATOM      9  C   UNL     1      10.590   2.956  23.368  0.00  0.00    +0.228 C 
ENDBRANCH   7   9
ENDBRANCH   1   7
TORSDOF 2
ENDMDL
MODEL 4
REMARK VINA RESULT:      -4.0      1.597      2.141
REMARK  Name = 
REMARK  2 active torsions:
REMARK  status: ('A' for Active; 'I' for Inactive)
REMARK    1  A    between atoms: C_2  and  C_3
REMARK    2  A    between atoms: C_3  and  C_4
REMARK                            x       y       z     vdW  Elec       q    Type
REMARK                         _______ _______ _______ _____ _____    ______ ____
ROOT
ATOM      1  C   UNL     1       9.214   1.142  21.998  0.00  0.00    -0.041 A 
ATOM      2  C   UNL     1      10.161   1.561  22.944  0.00  0.00    +0.004 A 
ATOM      3  C   UNL     1       9.995   2.769  23.622  0.00  0.00    +0.000 A 
ATOM      4  C   UNL     1       8.889   3.572  23.356  0.00  0.00    +0.000 A 
ATOM      5  C   UNL     1       7.948   3.170  22.410  0.00  0.00    +0.000 A 
ATOM      6  C   UNL     1       8.110   1.961  21.732  0.00  0.00    +0.004 A 
ENDROOT
BRANCH   1   7
ATOM      7  C   UNL     1       9.412  -0.152  21.254  0.00  0.00    +0.105 C 
BRANCH   7   9
ATOM      8  O   UNL     1      10.691  -1.866  22.368  0.00  0.00    -0.301 OA
ATOM      9  C   UNL     1       9.609  -1.312  22.194  0.00  0.00    +0.228 C 
ENDBRANCH   7   9
ENDBRANCH   1   7
TORSDOF 2
ENDMDL
MODEL 5
REMARK VINA RESULT:      -3.9      2.798      4.255
REMARK  Name = 
REMARK  2 active torsions:
REMARK  status: ('A' for Active; 'I' for Inactive)
REMARK    1  A    between atoms: C_2  and  C_3
REMARK    2  A    between atoms: C_3  and  C_4
REMARK                            x       y       z     vdW  Elec       q    Type
REMARK                         _______ _______ _______ _____ _____    ______ ____
ROOT
ATOM      1  C   UNL     1      10.357   2.108  23.273  0.00  0.00    -0.041 A 
ATOM      2  C   UNL     1      10.632   1.163  24.272  0.00  0.00    +0.004 A 
ATOM      3  C   UNL     1      10.481  -0.201  24.016  0.00  0.00    +0.000 A 
ATOM      4  C   UNL     1      10.049  -0.632  22.765  0.00  0.00    +0.000 A 
ATOM      5  C   UNL     1       9.762   0.299  21.769  0.00  0.00    +0.000 A 
ATOM      6  C   UNL     1       9.914   1.664  22.021  0.00  0.00    +0.004 A 
ENDROOT
BRANCH   1   7
ATOM      7  C   UNL     1      10.499   3.578  23.565  0.00  0.00    +0.105 C 
BRANCH   7   9
ATOM      8  O   UNL     1       8.707   4.080  25.099  0.00  0.00    -0.301 OA
ATOM      9  C   UNL     1       9.187   4.194  23.974  0.00  0.00    +0.228 C 
ENDBRANCH   7   9
ENDBRANCH   1   7
TORSDOF 2
ENDMDL
MODEL 6
REMARK VINA RESULT:      -3.8      2.799      4.166
REMARK  Name = 
REMARK  2 active torsions:
REMARK  status: ('A' for Active; 'I' for Inactive)
REMARK    1  A    between atoms: C_2  and  C_3
REMARK    2  A    between atoms: C_3  and  C_4
REMARK                            x       y       z     vdW  Elec       q    Type
REMARK                         _______ _______ _______ _____ _____    ______ ____
ROOT
ATOM      1  C   UNL     1      10.486   3.315  23.515  0.00  0.00    -0.041 A 
ATOM      2  C   UNL     1       9.355   4.019  23.954  0.00  0.00    +0.004 A 
ATOM      3  C   UNL     1       9.417   5.397  24.160  0.00  0.00    +0.000 A 
ATOM      4  C   UNL     1      10.607   6.083  23.938  0.00  0.00    +0.000 A 
ATOM      5  C   UNL     1      11.741   5.392  23.513  0.00  0.00    +0.000 A 
ATOM      6  C   UNL     1      11.682   4.013  23.304  0.00  0.00    +0.004 A 
ENDROOT
BRANCH   1   7
ATOM      7  C   UNL     1      10.419   1.824  23.319  0.00  0.00    +0.105 C 
BRANCH   7   9
ATOM      8  O   UNL     1       9.769   0.310  21.557  0.00  0.00    -0.301 OA
ATOM      9  C   UNL     1       9.865   1.464  21.965  0.00  0.00    +0.228 C 
ENDBRANCH   7   9
ENDBRANCH   1   7
TORSDOF 2
ENDMDL
MODEL 7
REMARK VINA RESULT:      -3.8      1.701      2.136
REMARK  Name = 
REMARK  2 active torsions:
REMARK  status: ('A' for Active; 'I' for Inactive)
REMARK    1  A    between atoms: C_2  and  C_3
REMARK    2  A    between atoms: C_3  and  C_4
REMARK                            x       y       z     vdW  Elec       q    Type
REMARK                         _______ _______ _______ _____ _____    ______ ____
ROOT
ATOM      1  C   UNL     1       8.492  -1.156  22.585  0.00  0.00    -0.041 A 
ATOM      2  C   UNL     1       7.380  -0.362  22.901  0.00  0.00    +0.004 A 
ATOM      3  C   UNL     1       7.349   0.986  22.543  0.00  0.00    +0.000 A 
ATOM      4  C   UNL     1       8.430   1.554  21.874  0.00  0.00    +0.000 A 
ATOM      5  C   UNL     1       9.544   0.777  21.564  0.00  0.00    +0.000 A 
ATOM      6  C   UNL     1       9.577  -0.573  21.919  0.00  0.00    +0.004 A 
ENDROOT
BRANCH   1   7
ATOM      7  C   UNL     1       8.527  -2.604  22.996  0.00  0.00    +0.105 C 
BRANCH   7   9
ATOM      8  O   UNL     1      10.004  -3.901  24.394  0.00  0.00    -0.301 OA
ATOM      9  C   UNL     1       9.450  -2.830  24.165  0.00  0.00    +0.228 C 
ENDBRANCH   7   9
ENDBRANCH   1   7
TORSDOF 2
ENDMDL
MODEL 8
REMARK VINA RESULT:      -3.7      4.503      6.073
REMARK  Name = 
REMARK  2 active torsions:
REMARK  status: ('A' for Active; 'I' for Inactive)
REMARK    1  A    between atoms: C_2  and  C_3
REMARK    2  A    between atoms: C_3  and  C_4
REMARK                            x       y       z     vdW  Elec       q    Type
REMARK                         _______ _______ _______ _____ _____    ______ ____
ROOT
ATOM      1  C   UNL     1      11.057   4.810  23.702  0.00  0.00    -0.041 A 
ATOM      2  C   UNL     1       9.813   5.194  24.222  0.00  0.00    +0.004 A 
ATOM      3  C   UNL     1       8.803   4.249  24.409  0.00  0.00    +0.000 A 
ATOM      4  C   UNL     1       9.023   2.917  24.072  0.00  0.00    +0.000 A 
ATOM      5  C   UNL     1      10.253   2.526  23.544  0.00  0.00    +0.000 A 
ATOM      6  C   UNL     1      11.266   3.468  23.358  0.00  0.00    +0.004 A 
ENDROOT
BRANCH   1   7
ATOM      7  C   UNL     1      12.133   5.839  23.481  0.00  0.00    +0.105 C 
BRANCH   7   9
ATOM      8  O   UNL     1      13.922   5.648  21.875  0.00  0.00    -0.301 OA
ATOM      9  C   UNL     1      13.378   5.228  22.892  0.00  0.00    +0.228 C 
ENDBRANCH   7   9
ENDBRANCH   1   7
TORSDOF 2
ENDMDL
MODEL 9
REMARK VINA RESULT:      -3.7      2.901      4.485
REMARK  Name = 
REMARK  2 active torsions:
REMARK  status: ('A' for Active; 'I' for Inactive)
REMARK    1  A    between atoms: C_2  and  C_3
REMARK    2  A    between atoms: C_3  and  C_4
REMARK                            x       y       z     vdW  Elec       q    Type
REMARK                         _______ _______ _______ _____ _____    ______ ____
ROOT
ATOM      1  C   UNL     1      10.056   1.762  23.034  0.00  0.00    -0.041 A 
ATOM      2  C   UNL     1       9.448   1.545  21.790  0.00  0.00    +0.004 A 
ATOM      3  C   UNL     1       9.353   0.256  21.265  0.00  0.00    +0.000 A 
ATOM      4  C   UNL     1       9.869  -0.826  21.974  0.00  0.00    +0.000 A 
ATOM      5  C   UNL     1      10.485  -0.619  23.207  0.00  0.00    +0.000 A 
ATOM      6  C   UNL     1      10.580   0.669  23.735  0.00  0.00    +0.004 A 
ENDROOT
BRANCH   1   7
ATOM      7  C   UNL     1      10.177   3.159  23.582  0.00  0.00    +0.105 C 
BRANCH   7   9
ATOM      8  O   UNL     1       8.690   4.296  25.104  0.00  0.00    -0.301 OA
ATOM      9  C   UNL     1       8.847   3.694  24.045  0.00  0.00    +0.228 C 
ENDBRANCH   7   9
ENDBRANCH   1   7
TORSDOF 2
ENDMDL
