MODEL 1
REMARK VINA RESULT:      -5.8      0.000      0.000
REMARK  Name = 
REMARK  18 active torsions:
REMARK  status: ('A' for Active; 'I' for Inactive)
REMARK    1  A    between atoms: C_9  and  C_38
REMARK    2  A    between atoms: C_10  and  O_11
REMARK    3  A    between atoms: O_11  and  C_12
REMARK    4  A    between atoms: C_20  and  O_21
REMARK    5  A    between atoms: C_20  and  C_34
REMARK    6  A    between atoms: C_22  and  O_24
REMARK    7  A    between atoms: O_24  and  C_25
REMARK    8  A    between atoms: C_25  and  C_26
REMARK    9  A    between atoms: C_28  and  C_29
REMARK   10  A    between atoms: C_29  and  C_30
REMARK   11  A    between atoms: C_34  and  O_36
REMARK   12  A    between atoms: O_36  and  C_37
REMARK   13  A    between atoms: C_38  and  C_61
REMARK   14  A    between atoms: C_45  and  O_46
REMARK   15  A    between atoms: C_45  and  C_47
REMARK   16  A    between atoms: C_47  and  C_48
REMARK   17  A    between atoms: C_61  and  O_63
REMARK   18  A    between atoms: O_63  and  C_64
REMARK                            x       y       z     vdW  Elec       q    Type
REMARK                         _______ _______ _______ _____ _____    ______ ____
ROOT
ATOM      1  C   UNL     1       6.218   3.421  23.404  0.00  0.00    +0.083 C 
ATOM      2  C   UNL     1       5.990   5.171  23.645  0.00  0.00    +0.045 C 
ATOM      3  C   UNL     1       4.431   5.363  23.450  0.00  0.00    -0.018 C 
ATOM      4  C   UNL     1       3.479   4.430  23.276  0.00  0.00    -0.015 C 
ATOM      5  C   UNL     1       3.926   3.103  22.802  0.00  0.00    +0.111 C 
ATOM      6  C   UNL     1       6.972   5.406  24.873  0.00  0.00    +0.232 C 
ATOM      7  C   UNL     1       8.393   4.500  24.692  0.00  0.00    +0.220 C 
ATOM      8  C   UNL     1       8.274   2.749  24.727  0.00  0.00    +0.140 C 
ATOM      9  N   UNL     1       8.990   1.519  24.051  0.00  0.00    -0.266 N 
ATOM     10  C   UNL     1      10.313   1.505  23.776  0.00  0.00    +0.333 C 
ATOM     11  O   UNL     1      11.055   2.486  23.808  0.00  0.00    -0.279 OA
ATOM     12  C   UNL     1       8.112   0.258  24.136  0.00  0.00    +0.044 A 
ATOM     13  C   UNL     1       6.830   0.577  24.335  0.00  0.00    -0.016 A 
ATOM     14  C   UNL     1       5.734  -0.667  24.653  0.00  0.00    +0.014 A 
ATOM     15  C   UNL     1       5.945  -2.253  24.660  0.00  0.00    +0.017 A 
ATOM     16  C   UNL     1       7.356  -2.392  24.440  0.00  0.00    +0.126 A 
ATOM     17  C   UNL     1       8.373  -1.175  24.172  0.00  0.00    +0.069 A 
ATOM     18  C   UNL     1       6.829   2.331  24.522  0.00  0.00    +0.037 C 
ATOM     19  C   UNL     1       6.048   2.522  25.787  0.00  0.00    +0.030 C 
ATOM     20  C   UNL     1       4.721   2.839  25.158  0.00  0.00    +0.086 C 
ATOM     21  N   UNL     1       4.974   2.702  23.688  0.00  0.00    -0.294 NA
ENDROOT
BRANCH  15  22
ATOM     22  C   UNL     1       4.886  -3.561  25.547  0.00  0.00    +0.136 C 
ATOM     23  C   UNL     1       3.720  -5.025  25.104  0.00  0.00    +0.042 A 
ATOM     24  N   UNL     1       3.833  -6.328  24.318  0.00  0.00    -0.357 N 
ATOM     25  H   UNL     1       4.585  -6.545  23.690  0.00  0.00    +0.166 HD
ATOM     26  C   UNL     1       2.771  -7.345  24.572  0.00  0.00    +0.047 A 
ATOM     27  C   UNL     1       1.842  -6.723  25.352  0.00  0.00    +0.003 A 
ATOM     28  C   UNL     1       0.677  -7.461  25.895  0.00  0.00    +0.010 A 
ATOM     29  C   UNL     1       0.454  -8.818  25.707  0.00  0.00    +0.001 A 
ATOM     30  C   UNL     1       1.326  -9.449  24.879  0.00  0.00    +0.002 A 
ATOM     31  C   UNL     1       2.463  -8.743  24.272  0.00  0.00    +0.026 A 
ATOM     32  C   UNL     1       2.422  -5.428  25.706  0.00  0.00    -0.016 A 
ATOM     33  C   UNL     1       1.645  -4.974  26.871  0.00  0.00    +0.053 C 
ATOM     34  C   UNL     1       2.027  -5.894  28.050  0.00  0.00    +0.089 C 
ATOM     35  N   UNL     1       2.510  -5.067  29.125  0.00  0.00    -0.299 NA
ATOM     36  C   UNL     1       1.409  -4.235  29.620  0.00  0.00    +0.119 C 
ATOM     37  C   UNL     1       1.391  -2.722  29.292  0.00  0.00    +0.079 C 
ATOM     38  C   UNL     1       2.834  -2.198  29.068  0.00  0.00    +0.041 C 
ATOM     39  C   UNL     1       3.793  -3.014  28.153  0.00  0.00    +0.008 C 
ATOM     40  C   UNL     1       3.780  -4.452  28.725  0.00  0.00    +0.088 C 
ATOM     41  C   UNL     1       3.834  -2.720  26.553  0.00  0.00    +0.034 C 
BRANCH  22  42
ATOM     42  C   UNL     1       6.017  -3.998  26.530  0.00  0.00    +0.323 C 
ATOM     43  O   UNL     1       6.644  -3.130  27.151  0.00  0.00    -0.249 OA
BRANCH  42  44
ATOM     44  O   UNL     1       6.278  -5.314  26.691  0.00  0.00    -0.467 OA
ATOM     45  C   UNL     1       7.446  -5.544  27.511  0.00  0.00    +0.280 C 
ENDBRANCH  42  44
ENDBRANCH  22  42
BRANCH  37  46
ATOM     46  O   UNL     1       0.882  -2.077  30.485  0.00  0.00    -0.387 OA
ATOM     47  H   UNL     1      -0.030  -1.791  30.301  0.00  0.00    +0.210 HD
ENDBRANCH  37  46
BRANCH  37  48
ATOM     48  C   UNL     1       0.443  -2.200  28.177  0.00  0.00    +0.032 C 
ATOM     49  C   UNL     1       0.918  -0.992  27.371  0.00  0.00    +0.007 C 
ENDBRANCH  37  48
ENDBRANCH  15  22
BRANCH   2  50
ATOM     50  C   UNL     1       6.233   6.742  22.903  0.00  0.00    +0.013 C 
ATOM     51  C   UNL     1       6.830   7.107  21.484  0.00  0.00    +0.005 C 
ENDBRANCH   2  50
BRANCH   7  52
ATOM     52  C   UNL     1       9.162   5.313  23.600  0.00  0.00    +0.345 C 
ATOM     53  O   UNL     1       9.078   5.002  22.404  0.00  0.00    -0.247 OA
BRANCH  52  54
ATOM     54  O   UNL     1      10.110   6.171  24.053  0.00  0.00    -0.466 OA
ATOM     55  C   UNL     1      11.411   5.930  23.470  0.00  0.00    +0.280 C 
ENDBRANCH  52  54
ENDBRANCH   7  52
BRANCH   7  56
ATOM     56  O   UNL     1       9.148   4.904  25.906  0.00  0.00    -0.373 OA
ATOM     57  H   UNL     1      10.109   4.842  25.676  0.00  0.00    +0.211 HD
ENDBRANCH   7  56
BRANCH  16  58
ATOM     58  O   UNL     1       7.821  -3.676  24.684  0.00  0.00    -0.495 OA
ATOM     59  C   UNL     1       9.054  -4.100  24.113  0.00  0.00    +0.277 C 
ENDBRANCH  16  58
BRANCH   6  60
ATOM     60  O   UNL     1       6.262   5.369  26.133  0.00  0.00    -0.457 OA
BRANCH  60  61
ATOM     61  C   UNL     1       6.554   6.280  27.135  0.00  0.00    +0.304 C 
ATOM     62  O   UNL     1       7.635   6.785  27.350  0.00  0.00    -0.251 OA
ATOM     63  C   UNL     1       5.301   6.617  27.910  0.00  0.00    +0.136 C 
ENDBRANCH  60  61
ENDBRANCH   6  60
TORSDOF 12
ENDMDL
MODEL 2
REMARK VINA RESULT:      -5.3      2.554     11.278
REMARK  Name = 
REMARK  18 active torsions:
REMARK  status: ('A' for Active; 'I' for Inactive)
REMARK    1  A    between atoms: C_9  and  C_38
REMARK    2  A    between atoms: C_10  and  O_11
REMARK    3  A    between atoms: O_11  and  C_12
REMARK    4  A    between atoms: C_20  and  O_21
REMARK    5  A    between atoms: C_20  and  C_34
REMARK    6  A    between atoms: C_22  and  O_24
REMARK    7  A    between atoms: O_24  and  C_25
REMARK    8  A    between atoms: C_25  and  C_26
REMARK    9  A    between atoms: C_28  and  C_29
REMARK   10  A    between atoms: C_29  and  C_30
REMARK   11  A    between atoms: C_34  and  O_36
REMARK   12  A    between atoms: O_36  and  C_37
REMARK   13  A    between atoms: C_38  and  C_61
REMARK   14  A    between atoms: C_45  and  O_46
REMARK   15  A    between atoms: C_45  and  C_47
REMARK   16  A    between atoms: C_47  and  C_48
REMARK   17  A    between atoms: C_61  and  O_63
REMARK   18  A    between atoms: O_63  and  C_64
REMARK                            x       y       z     vdW  Elec       q    Type
REMARK                         _______ _______ _______ _____ _____    ______ ____
ROOT
ATOM      1  C   UNL     1       4.167  -5.735  27.483  0.00  0.00    +0.083 C 
ATOM      2  C   UNL     1       3.018  -6.655  28.487  0.00  0.00    +0.045 C 
ATOM      3  C   UNL     1       3.595  -6.477  29.950  0.00  0.00    -0.018 C 
ATOM      4  C   UNL     1       4.620  -5.716  30.370  0.00  0.00    -0.015 C 
ATOM      5  C   UNL     1       5.601  -5.298  29.345  0.00  0.00    +0.111 C 
ATOM      6  C   UNL     1       1.652  -6.231  27.794  0.00  0.00    +0.232 C 
ATOM      7  C   UNL     1       1.824  -6.162  26.110  0.00  0.00    +0.220 C 
ATOM      8  C   UNL     1       2.899  -4.951  25.432  0.00  0.00    +0.140 C 
ATOM      9  N   UNL     1       3.870  -4.815  24.199  0.00  0.00    -0.266 N 
ATOM     10  C   UNL     1       3.606  -5.371  22.996  0.00  0.00    +0.333 C 
ATOM     11  O   UNL     1       2.727  -6.204  22.777  0.00  0.00    -0.279 OA
ATOM     12  C   UNL     1       4.882  -3.677  24.421  0.00  0.00    +0.044 A 
ATOM     13  C   UNL     1       5.002  -3.386  25.720  0.00  0.00    -0.016 A 
ATOM     14  C   UNL     1       5.915  -2.034  26.158  0.00  0.00    +0.014 A 
ATOM     15  C   UNL     1       6.792  -1.045  25.258  0.00  0.00    +0.017 A 
ATOM     16  C   UNL     1       6.533  -1.505  23.924  0.00  0.00    +0.126 A 
ATOM     17  C   UNL     1       5.629  -2.781  23.548  0.00  0.00    +0.069 A 
ATOM     18  C   UNL     1       3.810  -4.411  26.520  0.00  0.00    +0.037 C 
ATOM     19  C   UNL     1       3.068  -3.433  27.381  0.00  0.00    +0.030 C 
ATOM     20  C   UNL     1       3.797  -3.706  28.666  0.00  0.00    +0.086 C 
ATOM     21  N   UNL     1       4.839  -4.712  28.287  0.00  0.00    -0.294 NA
ENDROOT
BRANCH  15  22
ATOM     22  C   UNL     1       7.324   0.735  25.671  0.00  0.00    +0.136 C 
ATOM     23  C   UNL     1       7.007   2.066  27.023  0.00  0.00    +0.042 A 
ATOM     24  N   UNL     1       7.174   2.163  28.536  0.00  0.00    -0.357 N 
ATOM     25  H   UNL     1       7.327   1.376  29.139  0.00  0.00    +0.166 HD
ATOM     26  C   UNL     1       7.162   3.540  29.113  0.00  0.00    +0.047 A 
ATOM     27  C   UNL     1       6.811   4.367  28.087  0.00  0.00    +0.003 A 
ATOM     28  C   UNL     1       6.793   5.839  28.260  0.00  0.00    +0.010 A 
ATOM     29  C   UNL     1       7.164   6.494  29.426  0.00  0.00    +0.001 A 
ATOM     30  C   UNL     1       7.454   5.694  30.484  0.00  0.00    +0.002 A 
ATOM     31  C   UNL     1       7.428   4.229  30.375  0.00  0.00    +0.026 A 
ATOM     32  C   UNL     1       6.792   3.529  26.888  0.00  0.00    -0.016 A 
ATOM     33  C   UNL     1       6.859   4.479  25.766  0.00  0.00    +0.053 C 
ATOM     34  C   UNL     1       8.276   5.089  25.779  0.00  0.00    +0.089 C 
ATOM     35  N   UNL     1       8.880   4.847  24.495  0.00  0.00    -0.299 NA
ATOM     36  C   UNL     1       8.143   5.595  23.472  0.00  0.00    +0.119 C 
ATOM     37  C   UNL     1       7.221   4.833  22.489  0.00  0.00    +0.079 C 
ATOM     38  C   UNL     1       7.712   3.374  22.303  0.00  0.00    +0.041 C 
ATOM     39  C   UNL     1       8.085   2.543  23.564  0.00  0.00    +0.008 C 
ATOM     40  C   UNL     1       9.111   3.407  24.336  0.00  0.00    +0.088 C 
ATOM     41  C   UNL     1       6.943   1.670  24.327  0.00  0.00    +0.034 C 
BRANCH  22  42
ATOM     42  C   UNL     1       8.849   0.463  25.471  0.00  0.00    +0.323 C 
ATOM     43  O   UNL     1       9.506  -0.005  26.410  0.00  0.00    -0.249 OA
BRANCH  42  44
ATOM     44  O   UNL     1       9.414   0.733  24.274  0.00  0.00    -0.467 OA
ATOM     45  C   UNL     1      10.572  -0.092  24.016  0.00  0.00    +0.280 C 
ENDBRANCH  42  44
ENDBRANCH  22  42
BRANCH  37  46
ATOM     46  O   UNL     1       7.380   5.505  21.214  0.00  0.00    -0.387 OA
ATOM     47  H   UNL     1       8.040   6.211  21.331  0.00  0.00    +0.210 HD
ENDBRANCH  37  46
BRANCH  37  48
ATOM     48  C   UNL     1       5.683   4.866  22.714  0.00  0.00    +0.032 C 
ATOM     49  C   UNL     1       4.924   3.557  22.506  0.00  0.00    +0.007 C 
ENDBRANCH  37  48
ENDBRANCH  15  22
BRANCH   2  50
ATOM     50  C   UNL     1       2.513  -8.276  28.929  0.00  0.00    +0.013 C 
ATOM     51  C   UNL     1       2.002  -8.831  30.321  0.00  0.00    +0.005 C 
ENDBRANCH   2  50
BRANCH   7  52
ATOM     52  C   UNL     1       1.841  -7.677  25.721  0.00  0.00    +0.345 C 
ATOM     53  O   UNL     1       2.893  -8.230  25.375  0.00  0.00    -0.247 OA
BRANCH  52  54
ATOM     54  O   UNL     1       0.629  -8.254  25.524  0.00  0.00    -0.466 OA
ATOM     55  C   UNL     1       0.726  -9.593  24.986  0.00  0.00    +0.280 C 
ENDBRANCH  52  54
ENDBRANCH   7  52
BRANCH   7  56
ATOM     56  O   UNL     1       0.446  -5.796  25.695  0.00  0.00    -0.373 OA
ATOM     57  H   UNL     1       0.087  -5.198  26.398  0.00  0.00    +0.211 HD
ENDBRANCH   7  56
BRANCH  16  58
ATOM     58  O   UNL     1       6.970  -0.621  22.949  0.00  0.00    -0.495 OA
ATOM     59  C   UNL     1       7.789  -1.093  21.884  0.00  0.00    +0.277 C 
ENDBRANCH  16  58
BRANCH   6  60
ATOM     60  O   UNL     1       1.026  -5.128  28.491  0.00  0.00    -0.457 OA
BRANCH  60  61
ATOM     61  C   UNL     1       0.629  -5.261  29.811  0.00  0.00    +0.304 C 
ATOM     62  O   UNL     1       0.443  -6.303  30.402  0.00  0.00    -0.251 OA
ATOM     63  C   UNL     1       0.515  -3.899  30.457  0.00  0.00    +0.136 C 
ENDBRANCH  60  61
ENDBRANCH   6  60
TORSDOF 12
ENDMDL
MODEL 3
REMARK VINA RESULT:      -5.0      2.241      5.067
REMARK  Name = 
REMARK  18 active torsions:
REMARK  status: ('A' for Active; 'I' for Inactive)
REMARK    1  A    between atoms: C_9  and  C_38
REMARK    2  A    between atoms: C_10  and  O_11
REMARK    3  A    between atoms: O_11  and  C_12
REMARK    4  A    between atoms: C_20  and  O_21
REMARK    5  A    between atoms: C_20  and  C_34
REMARK    6  A    between atoms: C_22  and  O_24
REMARK    7  A    between atoms: O_24  and  C_25
REMARK    8  A    between atoms: C_25  and  C_26
REMARK    9  A    between atoms: C_28  and  C_29
REMARK   10  A    between atoms: C_29  and  C_30
REMARK   11  A    between atoms: C_34  and  O_36
REMARK   12  A    between atoms: O_36  and  C_37
REMARK   13  A    between atoms: C_38  and  C_61
REMARK   14  A    between atoms: C_45  and  O_46
REMARK   15  A    between atoms: C_45  and  C_47
REMARK   16  A    between atoms: C_47  and  C_48
REMARK   17  A    between atoms: C_61  and  O_63
REMARK   18  A    between atoms: O_63  and  C_64
REMARK                            x       y       z     vdW  Elec       q    Type
REMARK                         _______ _______ _______ _____ _____    ______ ____
ROOT
ATOM      1  C   UNL     1       9.081   3.174  24.976  0.00  0.00    +0.083 C 
ATOM      2  C   UNL     1       9.655   4.248  23.676  0.00  0.00    +0.045 C 
ATOM      3  C   UNL     1      10.204   3.237  22.589  0.00  0.00    -0.018 C 
ATOM      4  C   UNL     1      10.142   1.894  22.574  0.00  0.00    -0.015 C 
ATOM      5  C   UNL     1       9.912   1.223  23.872  0.00  0.00    +0.111 C 
ATOM      6  C   UNL     1       8.483   5.321  23.672  0.00  0.00    +0.232 C 
ATOM      7  C   UNL     1       7.989   5.681  25.253  0.00  0.00    +0.220 C 
ATOM      8  C   UNL     1       7.236   4.410  26.200  0.00  0.00    +0.140 C 
ATOM      9  N   UNL     1       7.175   3.962  27.709  0.00  0.00    -0.266 N 
ATOM     10  C   UNL     1       7.162   4.844  28.733  0.00  0.00    +0.333 C 
ATOM     11  O   UNL     1       7.411   6.045  28.638  0.00  0.00    -0.279 OA
ATOM     12  C   UNL     1       6.730   2.494  27.828  0.00  0.00    +0.044 A 
ATOM     13  C   UNL     1       6.932   1.835  26.683  0.00  0.00    -0.016 A 
ATOM     14  C   UNL     1       6.328   0.264  26.544  0.00  0.00    +0.014 A 
ATOM     15  C   UNL     1       5.608  -0.665  27.629  0.00  0.00    +0.017 A 
ATOM     16  C   UNL     1       5.476   0.204  28.763  0.00  0.00    +0.126 A 
ATOM     17  C   UNL     1       6.039   1.709  28.843  0.00  0.00    +0.069 A 
ATOM     18  C   UNL     1       7.513   3.062  25.557  0.00  0.00    +0.037 C 
ATOM     19  C   UNL     1       6.621   2.860  24.369  0.00  0.00    +0.030 C 
ATOM     20  C   UNL     1       7.564   2.022  23.552  0.00  0.00    +0.086 C 
ATOM     21  N   UNL     1       8.759   1.851  24.439  0.00  0.00    -0.294 NA
ENDROOT
BRANCH  15  22
ATOM     22  C   UNL     1       4.466  -2.153  27.307  0.00  0.00    +0.136 C 
ATOM     23  C   UNL     1       3.795  -3.694  28.244  0.00  0.00    +0.042 A 
ATOM     24  N   UNL     1       2.993  -3.949  29.516  0.00  0.00    -0.357 N 
ATOM     25  H   UNL     1       2.834  -3.263  30.231  0.00  0.00    +0.166 HD
ATOM     26  C   UNL     1       2.368  -5.299  29.641  0.00  0.00    +0.047 A 
ATOM     27  C   UNL     1       2.862  -6.032  28.602  0.00  0.00    +0.003 A 
ATOM     28  C   UNL     1       2.383  -7.410  28.340  0.00  0.00    +0.010 A 
ATOM     29  C   UNL     1       1.389  -8.045  29.072  0.00  0.00    +0.001 A 
ATOM     30  C   UNL     1       0.927  -7.365  30.152  0.00  0.00    +0.002 A 
ATOM     31  C   UNL     1       1.415  -6.019  30.484  0.00  0.00    +0.026 A 
ATOM     32  C   UNL     1       3.618  -5.092  27.775  0.00  0.00    -0.016 A 
ATOM     33  C   UNL     1       3.755  -5.765  26.473  0.00  0.00    +0.053 C 
ATOM     34  C   UNL     1       2.353  -5.791  25.831  0.00  0.00    +0.089 C 
ATOM     35  N   UNL     1       2.437  -5.148  24.546  0.00  0.00    -0.299 NA
ATOM     36  C   UNL     1       3.284  -5.955  23.663  0.00  0.00    +0.119 C 
ATOM     37  C   UNL     1       4.708  -5.458  23.312  0.00  0.00    +0.079 C 
ATOM     38  C   UNL     1       4.780  -3.910  23.399  0.00  0.00    +0.041 C 
ATOM     39  C   UNL     1       4.171  -3.201  24.643  0.00  0.00    +0.008 C 
ATOM     40  C   UNL     1       2.716  -3.721  24.740  0.00  0.00    +0.088 C 
ATOM     41  C   UNL     1       5.088  -2.949  25.963  0.00  0.00    +0.034 C 
BRANCH  22  42
ATOM     42  C   UNL     1       3.313  -1.301  26.691  0.00  0.00    +0.323 C 
ATOM     43  O   UNL     1       3.554  -0.572  25.720  0.00  0.00    -0.249 OA
BRANCH  42  44
ATOM     44  O   UNL     1       2.074  -1.386  27.225  0.00  0.00    -0.467 OA
ATOM     45  C   UNL     1       1.472  -0.086  27.421  0.00  0.00    +0.280 C 
ENDBRANCH  42  44
ENDBRANCH  22  42
BRANCH  37  46
ATOM     46  O   UNL     1       4.910  -5.819  21.923  0.00  0.00    -0.387 OA
ATOM     47  H   UNL     1       4.131  -5.519  21.423  0.00  0.00    +0.210 HD
ENDBRANCH  37  46
BRANCH  37  48
ATOM     48  C   UNL     1       5.931  -6.100  24.023  0.00  0.00    +0.032 C 
ATOM     49  C   UNL     1       7.140  -5.201  24.274  0.00  0.00    +0.007 C 
ENDBRANCH  37  48
ENDBRANCH  15  22
BRANCH   2  50
ATOM     50  C   UNL     1      10.934   5.360  23.224  0.00  0.00    +0.013 C 
ATOM     51  C   UNL     1      12.505   5.176  23.295  0.00  0.00    +0.005 C 
ENDBRANCH   2  50
BRANCH   7  52
ATOM     52  C   UNL     1       9.156   6.590  25.761  0.00  0.00    +0.345 C 
ATOM     53  O   UNL     1      10.040   6.978  24.984  0.00  0.00    -0.247 OA
BRANCH  52  54
ATOM     54  O   UNL     1       9.289   6.692  27.107  0.00  0.00    -0.466 OA
ATOM     55  C   UNL     1      10.620   7.087  27.511  0.00  0.00    +0.280 C 
ENDBRANCH  52  54
ENDBRANCH   7  52
BRANCH   7  56
ATOM     56  O   UNL     1       6.944   6.707  25.000  0.00  0.00    -0.373 OA
ATOM     57  H   UNL     1       6.146   6.223  24.668  0.00  0.00    +0.211 HD
ENDBRANCH   7  56
BRANCH  16  58
ATOM     58  O   UNL     1       4.626  -0.298  29.738  0.00  0.00    -0.495 OA
ATOM     59  C   UNL     1       3.485   0.455  30.134  0.00  0.00    +0.277 C 
ENDBRANCH  16  58
BRANCH   6  60
ATOM     60  O   UNL     1       7.487   5.013  22.669  0.00  0.00    -0.457 OA
BRANCH  60  61
ATOM     61  C   UNL     1       6.585   5.977  22.250  0.00  0.00    +0.304 C 
ATOM     62  O   UNL     1       6.859   7.024  21.703  0.00  0.00    -0.251 OA
ATOM     63  C   UNL     1       5.171   5.513  22.513  0.00  0.00    +0.136 C 
ENDBRANCH  60  61
ENDBRANCH   6  60
TORSDOF 12
ENDMDL
