MODEL 1
REMARK VINA RESULT:      -7.3      0.000      0.000
REMARK  Name = 
REMARK  16 active torsions:
REMARK  status: ('A' for Active; 'I' for Inactive)
REMARK    1  A    between atoms: C_1  and  C_2
REMARK    2  A    between atoms: N_4  and  C_5
REMARK    3  A    between atoms: C_5  and  C_7
REMARK    4  A    between atoms: C_5  and  C_23
REMARK    5  A    between atoms: C_7  and  C_8
REMARK    6  A    between atoms: C_11  and  O_12
REMARK    7  A    between atoms: O_12  and  C_13
REMARK    8  A    between atoms: C_13  and  C_14
REMARK    9  A    between atoms: C_14  and  O_15
REMARK   10  A    between atoms: C_17  and  P_19
REMARK   11  A    between atoms: P_19  and  O_20
REMARK   12  A    between atoms: P_19  and  O_21
REMARK   13  A    between atoms: N_25  and  C_26
REMARK   14  A    between atoms: N_32  and  C_33
REMARK   15  A    between atoms: C_33  and  C_34
REMARK   16  A    between atoms: C_37  and  C_40
REMARK                            x       y       z     vdW  Elec       q    Type
REMARK                         _______ _______ _______ _____ _____    ______ ____
ROOT
ATOM      1  C   UNL     1       5.917  -0.920  27.081  0.00  0.00    +0.163 C 
ENDROOT
BRANCH   1   4
ATOM      2  C   UNL     1       3.089   1.009  28.713  0.00  0.00    +0.109 C 
ATOM      3  C   UNL     1       3.892   0.358  27.626  0.00  0.00    +0.211 C 
ATOM      4  N   UNL     1       4.862  -0.544  28.042  0.00  0.00    -0.304 N 
ATOM      5  H   UNL     1       4.880  -0.870  29.001  0.00  0.00    +0.149 HD
ATOM      6  O   UNL     1       3.748   0.690  26.450  0.00  0.00    -0.276 OA
ENDBRANCH   1   4
BRANCH   1   7
ATOM      7  C   UNL     1       6.958   0.166  26.584  0.00  0.00    +0.234 C 
ATOM      8  N   UNL     1       7.624  -0.032  25.393  0.00  0.00    -0.302 N 
ATOM      9  H   UNL     1       7.880  -0.996  25.227  0.00  0.00    +0.150 HD
ATOM     10  O   UNL     1       7.217   1.151  27.283  0.00  0.00    -0.274 OA
BRANCH   8  11
ATOM     11  C   UNL     1       8.639   0.942  24.891  0.00  0.00    +0.159 C 
ATOM     12  C   UNL     1       9.826   0.141  24.331  0.00  0.00    +0.236 C 
ATOM     13  O   UNL     1      10.999   0.429  24.565  0.00  0.00    -0.274 OA
ATOM     14  N   UNL     1       9.437  -0.696  23.261  0.00  0.00    -0.296 N 
ATOM     15  C   UNL     1       9.987  -0.182  22.008  0.00  0.00    +0.108 C 
ATOM     16  C   UNL     1       9.550   1.276  21.759  0.00  0.00    +0.019 C 
ATOM     17  C   UNL     1       8.160   1.586  22.331  0.00  0.00    +0.004 C 
ATOM     18  C   UNL     1       8.156   1.979  23.826  0.00  0.00    +0.032 C 
BRANCH  14  19
ATOM     19  C   UNL     1       9.524  -2.147  23.492  0.00  0.00    +0.143 C 
BRANCH  19  20
ATOM     20  C   UNL     1       8.228  -2.974  23.494  0.00  0.00    -0.030 A 
ATOM     21  C   UNL     1       8.220  -4.223  24.147  0.00  0.00    +0.006 A 
ATOM     22  C   UNL     1       7.085  -5.081  24.160  0.00  0.00    +0.009 A 
ATOM     23  C   UNL     1       5.867  -4.733  23.548  0.00  0.00    -0.018 A 
ATOM     24  C   UNL     1       5.894  -3.479  22.897  0.00  0.00    +0.009 A 
ATOM     25  C   UNL     1       7.038  -2.628  22.854  0.00  0.00    +0.006 A 
BRANCH  23  26
ATOM     26  C   UNL     1       4.616  -5.593  23.643  0.00  0.00    -0.018 A 
ATOM     27  C   UNL     1       4.568  -6.810  24.367  0.00  0.00    +0.008 A 
ATOM     28  C   UNL     1       3.376  -7.534  24.564  0.00  0.00    +0.001 A 
ATOM     29  C   UNL     1       2.177  -7.072  24.043  0.00  0.00    +0.000 A 
ATOM     30  C   UNL     1       2.187  -5.914  23.276  0.00  0.00    +0.001 A 
ATOM     31  C   UNL     1       3.385  -5.200  23.075  0.00  0.00    +0.008 A 
ENDBRANCH  23  26
ENDBRANCH  19  20
ENDBRANCH  14  19
ENDBRANCH   8  11
ENDBRANCH   1   7
BRANCH   1  32
ATOM     32  C   UNL     1       5.234  -1.741  25.949  0.00  0.00    +0.067 C 
BRANCH  32  33
ATOM     33  C   UNL     1       4.637  -3.048  26.363  0.00  0.00    -0.044 A 
ATOM     34  C   UNL     1       5.445  -4.006  26.967  0.00  0.00    +0.023 A 
ATOM     35  C   UNL     1       4.883  -5.092  27.641  0.00  0.00    +0.105 A 
ATOM     36  C   UNL     1       3.494  -5.264  27.588  0.00  0.00    +0.136 A 
ATOM     37  C   UNL     1       2.703  -4.396  26.824  0.00  0.00    +0.047 A 
ATOM     38  C   UNL     1       3.267  -3.271  26.242  0.00  0.00    +0.007 A 
BRANCH  35  39
ATOM     39  P   UNL     1       5.978  -6.015  28.669  0.00  0.00    +0.362 P 
ATOM     40  O   UNL     1       6.105  -5.568  30.104  0.00  0.00    -0.253 OA
BRANCH  39  41
ATOM     41  O   UNL     1       7.406  -6.060  27.934  0.00  0.00    -0.321 OA
ATOM     42  H   UNL     1       8.054  -6.611  28.391  0.00  0.00    +0.220 HD
ENDBRANCH  39  41
BRANCH  39  43
ATOM     43  O   UNL     1       5.526  -7.540  28.524  0.00  0.00    -0.321 OA
ATOM     44  H   UNL     1       4.600  -7.711  28.754  0.00  0.00    +0.220 HD
ENDBRANCH  39  43
ENDBRANCH  35  39
BRANCH  36  45
ATOM     45  O   UNL     1       2.933  -6.282  28.322  0.00  0.00    -0.480 OA
BRANCH  45  46
ATOM     46  C   UNL     1       1.532  -6.451  28.021  0.00  0.00    +0.349 C 
BRANCH  46  47
ATOM     47  C   UNL     1       1.218  -7.927  27.891  0.00  0.00    +0.343 C 
ATOM     48  O   UNL     1       0.601  -8.412  26.954  0.00  0.00    -0.247 OA
BRANCH  47  49
ATOM     49  O   UNL     1       1.743  -8.673  28.890  0.00  0.00    -0.478 OA
ATOM     50  H   UNL     1       2.607  -8.314  29.179  0.00  0.00    +0.295 HD
ENDBRANCH  47  49
ENDBRANCH  46  47
ENDBRANCH  45  46
ENDBRANCH  36  45
ENDBRANCH  32  33
ENDBRANCH   1  32
TORSDOF 15
ENDMDL
MODEL 2
REMARK VINA RESULT:      -6.9      2.465      3.805
REMARK  Name = 
REMARK  16 active torsions:
REMARK  status: ('A' for Active; 'I' for Inactive)
REMARK    1  A    between atoms: C_1  and  C_2
REMARK    2  A    between atoms: N_4  and  C_5
REMARK    3  A    between atoms: C_5  and  C_7
REMARK    4  A    between atoms: C_5  and  C_23
REMARK    5  A    between atoms: C_7  and  C_8
REMARK    6  A    between atoms: C_11  and  O_12
REMARK    7  A    between atoms: O_12  and  C_13
REMARK    8  A    between atoms: C_13  and  C_14
REMARK    9  A    between atoms: C_14  and  O_15
REMARK   10  A    between atoms: C_17  and  P_19
REMARK   11  A    between atoms: P_19  and  O_20
REMARK   12  A    between atoms: P_19  and  O_21
REMARK   13  A    between atoms: N_25  and  C_26
REMARK   14  A    between atoms: N_32  and  C_33
REMARK   15  A    between atoms: C_33  and  C_34
REMARK   16  A    between atoms: C_37  and  C_40
REMARK                            x       y       z     vdW  Elec       q    Type
REMARK                         _______ _______ _______ _____ _____    ______ ____
ROOT
ATOM      1  C   UNL     1       6.745   0.757  27.880  0.00  0.00    +0.163 C 
ENDROOT
BRANCH   1   4
ATOM      2  C   UNL     1       3.673  -0.819  29.450  0.00  0.00    +0.109 C 
ATOM      3  C   UNL     1       4.835   0.117  29.283  0.00  0.00    +0.211 C 
ATOM      4  N   UNL     1       5.400   0.168  28.016  0.00  0.00    -0.304 N 
ATOM      5  H   UNL     1       4.926  -0.258  27.228  0.00  0.00    +0.149 HD
ATOM      6  O   UNL     1       5.301   0.721  30.248  0.00  0.00    -0.276 OA
ENDBRANCH   1   4
BRANCH   1   7
ATOM      7  C   UNL     1       6.904   2.292  27.520  0.00  0.00    +0.234 C 
ATOM      8  N   UNL     1       6.780   2.694  26.206  0.00  0.00    -0.302 N 
ATOM      9  H   UNL     1       7.179   2.043  25.544  0.00  0.00    +0.150 HD
ATOM     10  O   UNL     1       7.194   3.114  28.394  0.00  0.00    -0.274 OA
BRANCH   8  11
ATOM     11  C   UNL     1       6.951   4.123  25.804  0.00  0.00    +0.159 C 
ATOM     12  C   UNL     1       8.293   4.247  25.063  0.00  0.00    +0.236 C 
ATOM     13  O   UNL     1       9.092   5.159  25.274  0.00  0.00    -0.274 OA
ATOM     14  N   UNL     1       8.328   3.445  23.901  0.00  0.00    -0.296 N 
ATOM     15  C   UNL     1       8.295   4.296  22.713  0.00  0.00    +0.108 C 
ATOM     16  C   UNL     1       7.058   5.216  22.715  0.00  0.00    +0.019 C 
ATOM     17  C   UNL     1       5.843   4.577  23.403  0.00  0.00    +0.004 C 
ATOM     18  C   UNL     1       5.813   4.754  24.939  0.00  0.00    +0.032 C 
BRANCH  14  19
ATOM     19  C   UNL     1       9.280   2.322  23.902  0.00  0.00    +0.143 C 
BRANCH  19  20
ATOM     20  C   UNL     1       8.762   0.913  23.567  0.00  0.00    -0.030 A 
ATOM     21  C   UNL     1       9.558  -0.200  23.904  0.00  0.00    +0.006 A 
ATOM     22  C   UNL     1       9.186  -1.537  23.590  0.00  0.00    +0.009 A 
ATOM     23  C   UNL     1       7.976  -1.855  22.947  0.00  0.00    -0.018 A 
ATOM     24  C   UNL     1       7.193  -0.726  22.615  0.00  0.00    +0.009 A 
ATOM     25  C   UNL     1       7.574   0.619  22.900  0.00  0.00    +0.006 A 
BRANCH  23  26
ATOM     26  C   UNL     1       7.520  -3.284  22.699  0.00  0.00    -0.018 A 
ATOM     27  C   UNL     1       6.632  -3.643  21.654  0.00  0.00    +0.008 A 
ATOM     28  C   UNL     1       6.318  -4.980  21.346  0.00  0.00    +0.001 A 
ATOM     29  C   UNL     1       6.877  -6.021  22.071  0.00  0.00    +0.000 A 
ATOM     30  C   UNL     1       7.706  -5.715  23.142  0.00  0.00    +0.001 A 
ATOM     31  C   UNL     1       8.009  -4.374  23.451  0.00  0.00    +0.008 A 
ENDBRANCH  23  26
ENDBRANCH  19  20
ENDBRANCH  14  19
ENDBRANCH   8  11
ENDBRANCH   1   7
BRANCH   1  32
ATOM     32  C   UNL     1       7.584  -0.214  26.999  0.00  0.00    +0.067 C 
BRANCH  32  33
ATOM     33  C   UNL     1       6.836  -1.363  26.406  0.00  0.00    -0.044 A 
ATOM     34  C   UNL     1       7.206  -2.664  26.736  0.00  0.00    +0.023 A 
ATOM     35  C   UNL     1       6.358  -3.739  26.462  0.00  0.00    +0.105 A 
ATOM     36  C   UNL     1       5.186  -3.497  25.735  0.00  0.00    +0.136 A 
ATOM     37  C   UNL     1       4.910  -2.213  25.247  0.00  0.00    +0.047 A 
ATOM     38  C   UNL     1       5.713  -1.143  25.610  0.00  0.00    +0.007 A 
BRANCH  35  39
ATOM     39  P   UNL     1       6.762  -5.262  27.253  0.00  0.00    +0.362 P 
ATOM     40  O   UNL     1       6.442  -5.372  28.723  0.00  0.00    -0.253 OA
BRANCH  39  41
ATOM     41  O   UNL     1       8.313  -5.562  26.960  0.00  0.00    -0.321 OA
ATOM     42  H   UNL     1       8.470  -6.443  26.596  0.00  0.00    +0.220 HD
ENDBRANCH  39  41
BRANCH  39  43
ATOM     43  O   UNL     1       6.072  -6.403  26.374  0.00  0.00    -0.321 OA
ATOM     44  H   UNL     1       6.174  -6.292  25.415  0.00  0.00    +0.220 HD
ENDBRANCH  39  43
ENDBRANCH  35  39
BRANCH  36  45
ATOM     45  O   UNL     1       4.311  -4.538  25.540  0.00  0.00    -0.480 OA
BRANCH  45  46
ATOM     46  C   UNL     1       3.927  -4.664  24.155  0.00  0.00    +0.349 C 
BRANCH  46  47
ATOM     47  C   UNL     1       3.731  -6.128  23.817  0.00  0.00    +0.343 C 
ATOM     48  O   UNL     1       4.015  -7.046  24.573  0.00  0.00    -0.247 OA
BRANCH  47  49
ATOM     49  O   UNL     1       3.150  -6.323  22.610  0.00  0.00    -0.478 OA
ATOM     50  H   UNL     1       2.193  -6.508  22.708  0.00  0.00    +0.295 HD
ENDBRANCH  47  49
ENDBRANCH  46  47
ENDBRANCH  45  46
ENDBRANCH  36  45
ENDBRANCH  32  33
ENDBRANCH   1  32
TORSDOF 15
ENDMDL
MODEL 3
REMARK VINA RESULT:      -6.8      4.032      9.315
REMARK  Name = 
REMARK  16 active torsions:
REMARK  status: ('A' for Active; 'I' for Inactive)
REMARK    1  A    between atoms: C_1  and  C_2
REMARK    2  A    between atoms: N_4  and  C_5
REMARK    3  A    between atoms: C_5  and  C_7
REMARK    4  A    between atoms: C_5  and  C_23
REMARK    5  A    between atoms: C_7  and  C_8
REMARK    6  A    between atoms: C_11  and  O_12
REMARK    7  A    between atoms: O_12  and  C_13
REMARK    8  A    between atoms: C_13  and  C_14
REMARK    9  A    between atoms: C_14  and  O_15
REMARK   10  A    between atoms: C_17  and  P_19
REMARK   11  A    between atoms: P_19  and  O_20
REMARK   12  A    between atoms: P_19  and  O_21
REMARK   13  A    between atoms: N_25  and  C_26
REMARK   14  A    between atoms: N_32  and  C_33
REMARK   15  A    between atoms: C_33  and  C_34
REMARK   16  A    between atoms: C_37  and  C_40
REMARK                            x       y       z     vdW  Elec       q    Type
REMARK                         _______ _______ _______ _____ _____    ______ ____
ROOT
ATOM      1  C   UNL     1       4.583   0.316  26.619  0.00  0.00    +0.163 C 
ENDROOT
BRANCH   1   4
ATOM      2  C   UNL     1       2.019   2.225  28.659  0.00  0.00    +0.109 C 
ATOM      3  C   UNL     1       2.592   1.436  27.519  0.00  0.00    +0.211 C 
ATOM      4  N   UNL     1       3.789   0.779  27.773  0.00  0.00    -0.304 N 
ATOM      5  H   UNL     1       4.133   0.693  28.721  0.00  0.00    +0.149 HD
ATOM      6  O   UNL     1       2.066   1.462  26.407  0.00  0.00    -0.276 OA
ENDBRANCH   1   4
BRANCH   1   7
ATOM      7  C   UNL     1       4.718  -1.234  26.324  0.00  0.00    +0.234 C 
ATOM      8  N   UNL     1       5.958  -1.834  26.409  0.00  0.00    -0.302 N 
ATOM      9  H   UNL     1       6.713  -1.253  26.069  0.00  0.00    +0.150 HD
ATOM     10  O   UNL     1       3.737  -1.892  25.962  0.00  0.00    -0.274 OA
BRANCH   8  11
ATOM     11  C   UNL     1       6.150  -3.285  26.111  0.00  0.00    +0.159 C 
ATOM     12  C   UNL     1       6.148  -3.457  24.583  0.00  0.00    +0.236 C 
ATOM     13  O   UNL     1       5.530  -4.354  24.011  0.00  0.00    -0.274 OA
ATOM     14  N   UNL     1       7.192  -2.728  23.970  0.00  0.00    -0.296 N 
ATOM     15  C   UNL     1       8.201  -3.652  23.456  0.00  0.00    +0.108 C 
ATOM     16  C   UNL     1       8.744  -4.569  24.571  0.00  0.00    +0.019 C 
ATOM     17  C   UNL     1       8.759  -3.887  25.946  0.00  0.00    +0.004 C 
ATOM     18  C   UNL     1       7.420  -3.967  26.715  0.00  0.00    +0.032 C 
BRANCH  14  19
ATOM     19  C   UNL     1       6.795  -1.609  23.101  0.00  0.00    +0.143 C 
BRANCH  19  20
ATOM     20  C   UNL     1       7.571  -0.285  23.199  0.00  0.00    -0.030 A 
ATOM     21  C   UNL     1       8.532  -0.136  24.218  0.00  0.00    +0.006 A 
ATOM     22  C   UNL     1       9.264   1.068  24.419  0.00  0.00    +0.009 A 
ATOM     23  C   UNL     1       9.108   2.195  23.591  0.00  0.00    -0.018 A 
ATOM     24  C   UNL     1       8.139   2.027  22.576  0.00  0.00    +0.009 A 
ATOM     25  C   UNL     1       7.381   0.834  22.388  0.00  0.00    +0.006 A 
BRANCH  23  26
ATOM     26  C   UNL     1       9.957   3.449  23.730  0.00  0.00    -0.018 A 
ATOM     27  C   UNL     1      11.322   3.504  23.352  0.00  0.00    +0.008 A 
ATOM     28  C   UNL     1      12.067   4.699  23.357  0.00  0.00    +0.001 A 
ATOM     29  C   UNL     1      11.479   5.895  23.742  0.00  0.00    +0.000 A 
ATOM     30  C   UNL     1      10.160   5.878  24.176  0.00  0.00    +0.001 A 
ATOM     31  C   UNL     1       9.423   4.676  24.178  0.00  0.00    +0.008 A 
ENDBRANCH  23  26
ENDBRANCH  19  20
ENDBRANCH  14  19
ENDBRANCH   8  11
ENDBRANCH   1   7
BRANCH   1  32
ATOM     32  C   UNL     1       5.928   1.099  26.644  0.00  0.00    +0.067 C 
BRANCH  32  33
ATOM     33  C   UNL     1       5.938   2.395  25.899  0.00  0.00    -0.044 A 
ATOM     34  C   UNL     1       5.122   2.548  24.782  0.00  0.00    +0.023 A 
ATOM     35  C   UNL     1       4.867   3.814  24.252  0.00  0.00    +0.105 A 
ATOM     36  C   UNL     1       5.549   4.914  24.789  0.00  0.00    +0.136 A 
ATOM     37  C   UNL     1       6.507   4.727  25.794  0.00  0.00    +0.047 A 
ATOM     38  C   UNL     1       6.677   3.478  26.372  0.00  0.00    +0.007 A 
BRANCH  35  39
ATOM     39  P   UNL     1       3.542   3.914  23.093  0.00  0.00    +0.362 P 
ATOM     40  O   UNL     1       2.472   2.855  23.188  0.00  0.00    -0.253 OA
BRANCH  39  41
ATOM     41  O   UNL     1       4.190   3.973  21.624  0.00  0.00    -0.321 OA
ATOM     42  H   UNL     1       4.662   4.797  21.447  0.00  0.00    +0.220 HD
ENDBRANCH  39  41
BRANCH  39  43
ATOM     43  O   UNL     1       2.967   5.399  23.219  0.00  0.00    -0.321 OA
ATOM     44  H   UNL     1       2.000   5.463  23.182  0.00  0.00    +0.220 HD
ENDBRANCH  39  43
ENDBRANCH  35  39
BRANCH  36  45
ATOM     45  O   UNL     1       5.234   6.169  24.327  0.00  0.00    -0.480 OA
BRANCH  45  46
ATOM     46  C   UNL     1       6.382   6.835  23.761  0.00  0.00    +0.349 C 
BRANCH  46  47
ATOM     47  C   UNL     1       6.435   6.571  22.270  0.00  0.00    +0.343 C 
ATOM     48  O   UNL     1       7.422   6.147  21.688  0.00  0.00    -0.247 OA
BRANCH  47  49
ATOM     49  O   UNL     1       5.254   6.795  21.648  0.00  0.00    -0.478 OA
ATOM     50  H   UNL     1       5.338   7.505  20.979  0.00  0.00    +0.295 HD
ENDBRANCH  47  49
ENDBRANCH  46  47
ENDBRANCH  45  46
ENDBRANCH  36  45
ENDBRANCH  32  33
ENDBRANCH   1  32
TORSDOF 15
ENDMDL
MODEL 4
REMARK VINA RESULT:      -6.5      2.678      4.848
REMARK  Name = 
REMARK  16 active torsions:
REMARK  status: ('A' for Active; 'I' for Inactive)
REMARK    1  A    between atoms: C_1  and  C_2
REMARK    2  A    between atoms: N_4  and  C_5
REMARK    3  A    between atoms: C_5  and  C_7
REMARK    4  A    between atoms: C_5  and  C_23
REMARK    5  A    between atoms: C_7  and  C_8
REMARK    6  A    between atoms: C_11  and  O_12
REMARK    7  A    between atoms: O_12  and  C_13
REMARK    8  A    between atoms: C_13  and  C_14
REMARK    9  A    between atoms: C_14  and  O_15
REMARK   10  A    between atoms: C_17  and  P_19
REMARK   11  A    between atoms: P_19  and  O_20
REMARK   12  A    between atoms: P_19  and  O_21
REMARK   13  A    between atoms: N_25  and  C_26
REMARK   14  A    between atoms: N_32  and  C_33
REMARK   15  A    between atoms: C_33  and  C_34
REMARK   16  A    between atoms: C_37  and  C_40
REMARK                            x       y       z     vdW  Elec       q    Type
REMARK                         _______ _______ _______ _____ _____    ______ ____
ROOT
ATOM      1  C   UNL     1       7.601   0.601  26.144  0.00  0.00    +0.163 C 
ENDROOT
BRANCH   1   4
ATOM      2  C   UNL     1      11.091   0.333  24.687  0.00  0.00    +0.109 C 
ATOM      3  C   UNL     1       9.814   0.971  25.149  0.00  0.00    +0.211 C 
ATOM      4  N   UNL     1       9.008   0.194  25.971  0.00  0.00    -0.304 N 
ATOM      5  H   UNL     1       9.365  -0.664  26.373  0.00  0.00    +0.149 HD
ATOM      6  O   UNL     1       9.478   2.080  24.736  0.00  0.00    -0.276 OA
ENDBRANCH   1   4
BRANCH   1   7
ATOM      7  C   UNL     1       7.240   2.126  26.373  0.00  0.00    +0.234 C 
ATOM      8  N   UNL     1       6.872   2.903  25.294  0.00  0.00    -0.302 N 
ATOM      9  H   UNL     1       7.387   2.694  24.450  0.00  0.00    +0.150 HD
ATOM     10  O   UNL     1       7.343   2.634  27.494  0.00  0.00    -0.274 OA
BRANCH   8  11
ATOM     11  C   UNL     1       6.551   4.354  25.445  0.00  0.00    +0.159 C 
ATOM     12  C   UNL     1       6.968   5.067  24.149  0.00  0.00    +0.236 C 
ATOM     13  O   UNL     1       7.578   6.136  24.138  0.00  0.00    -0.274 OA
ATOM     14  N   UNL     1       6.272   4.567  23.026  0.00  0.00    -0.296 N 
ATOM     15  C   UNL     1       5.324   5.570  22.546  0.00  0.00    +0.108 C 
ATOM     16  C   UNL     1       4.347   5.998  23.660  0.00  0.00    +0.019 C 
ATOM     17  C   UNL     1       4.041   4.865  24.649  0.00  0.00    +0.004 C 
ATOM     18  C   UNL     1       5.072   4.718  25.793  0.00  0.00    +0.032 C 
BRANCH  14  19
ATOM     19  C   UNL     1       7.072   3.855  22.016  0.00  0.00    +0.143 C 
BRANCH  19  20
ATOM     20  C   UNL     1       7.283   2.340  22.172  0.00  0.00    -0.030 A 
ATOM     21  C   UNL     1       6.312   1.587  22.862  0.00  0.00    +0.006 A 
ATOM     22  C   UNL     1       6.443   0.191  23.100  0.00  0.00    +0.009 A 
ATOM     23  C   UNL     1       7.541  -0.556  22.635  0.00  0.00    -0.018 A 
ATOM     24  C   UNL     1       8.506   0.216  21.947  0.00  0.00    +0.009 A 
ATOM     25  C   UNL     1       8.394   1.622  21.732  0.00  0.00    +0.006 A 
BRANCH  23  26
ATOM     26  C   UNL     1       7.644  -2.065  22.792  0.00  0.00    -0.018 A 
ATOM     27  C   UNL     1       8.503  -2.688  23.731  0.00  0.00    +0.008 A 
ATOM     28  C   UNL     1       8.497  -4.077  23.966  0.00  0.00    +0.001 A 
ATOM     29  C   UNL     1       7.631  -4.906  23.268  0.00  0.00    +0.000 A 
ATOM     30  C   UNL     1       6.813  -4.346  22.296  0.00  0.00    +0.001 A 
ATOM     31  C   UNL     1       6.831  -2.957  22.060  0.00  0.00    +0.008 A 
ENDBRANCH  23  26
ENDBRANCH  19  20
ENDBRANCH  14  19
ENDBRANCH   8  11
ENDBRANCH   1   7
BRANCH   1  32
ATOM     32  C   UNL     1       6.961  -0.385  27.165  0.00  0.00    +0.067 C 
BRANCH  32  33
ATOM     33  C   UNL     1       6.336  -1.611  26.580  0.00  0.00    -0.044 A 
ATOM     34  C   UNL     1       6.769  -2.866  26.999  0.00  0.00    +0.023 A 
ATOM     35  C   UNL     1       6.018  -4.009  26.722  0.00  0.00    +0.105 A 
ATOM     36  C   UNL     1       4.886  -3.884  25.907  0.00  0.00    +0.136 A 
ATOM     37  C   UNL     1       4.559  -2.647  25.338  0.00  0.00    +0.047 A 
ATOM     38  C   UNL     1       5.260  -1.507  25.701  0.00  0.00    +0.007 A 
BRANCH  35  39
ATOM     39  P   UNL     1       6.467  -5.462  27.614  0.00  0.00    +0.362 P 
ATOM     40  O   UNL     1       6.132  -5.490  29.085  0.00  0.00    -0.253 OA
BRANCH  39  41
ATOM     41  O   UNL     1       8.031  -5.723  27.357  0.00  0.00    -0.321 OA
ATOM     42  H   UNL     1       8.590  -5.457  28.098  0.00  0.00    +0.220 HD
ENDBRANCH  39  41
BRANCH  39  43
ATOM     43  O   UNL     1       5.830  -6.682  26.803  0.00  0.00    -0.321 OA
ATOM     44  H   UNL     1       4.873  -6.619  26.663  0.00  0.00    +0.220 HD
ENDBRANCH  39  43
ENDBRANCH  35  39
BRANCH  36  45
ATOM     45  O   UNL     1       4.100  -4.993  25.705  0.00  0.00    -0.480 OA
BRANCH  45  46
ATOM     46  C   UNL     1       3.591  -5.052  24.357  0.00  0.00    +0.349 C 
BRANCH  46  47
ATOM     47  C   UNL     1       4.077  -6.323  23.689  0.00  0.00    +0.343 C 
ATOM     48  O   UNL     1       4.589  -7.255  24.292  0.00  0.00    -0.247 OA
BRANCH  47  49
ATOM     49  O   UNL     1       3.832  -6.353  22.359  0.00  0.00    -0.478 OA
ATOM     50  H   UNL     1       4.134  -5.527  21.928  0.00  0.00    +0.295 HD
ENDBRANCH  47  49
ENDBRANCH  46  47
ENDBRANCH  45  46
ENDBRANCH  36  45
ENDBRANCH  32  33
ENDBRANCH   1  32
TORSDOF 15
ENDMDL
MODEL 5
REMARK VINA RESULT:      -6.5      3.296      9.047
REMARK  Name = 
REMARK  16 active torsions:
REMARK  status: ('A' for Active; 'I' for Inactive)
REMARK    1  A    between atoms: C_1  and  C_2
REMARK    2  A    between atoms: N_4  and  C_5
REMARK    3  A    between atoms: C_5  and  C_7
REMARK    4  A    between atoms: C_5  and  C_23
REMARK    5  A    between atoms: C_7  and  C_8
REMARK    6  A    between atoms: C_11  and  O_12
REMARK    7  A    between atoms: O_12  and  C_13
REMARK    8  A    between atoms: C_13  and  C_14
REMARK    9  A    between atoms: C_14  and  O_15
REMARK   10  A    between atoms: C_17  and  P_19
REMARK   11  A    between atoms: P_19  and  O_20
REMARK   12  A    between atoms: P_19  and  O_21
REMARK   13  A    between atoms: N_25  and  C_26
REMARK   14  A    between atoms: N_32  and  C_33
REMARK   15  A    between atoms: C_33  and  C_34
REMARK   16  A    between atoms: C_37  and  C_40
REMARK                            x       y       z     vdW  Elec       q    Type
REMARK                         _______ _______ _______ _____ _____    ______ ____
ROOT
ATOM      1  C   UNL     1       4.207  -0.011  26.522  0.00  0.00    +0.163 C 
ENDROOT
BRANCH   1   4
ATOM      2  C   UNL     1       3.249   3.572  27.314  0.00  0.00    +0.109 C 
ATOM      3  C   UNL     1       3.102   2.160  26.828  0.00  0.00    +0.211 C 
ATOM      4  N   UNL     1       4.076   1.265  27.250  0.00  0.00    -0.304 N 
ATOM      5  H   UNL     1       4.721   1.522  27.988  0.00  0.00    +0.149 HD
ATOM      6  O   UNL     1       2.217   1.858  26.028  0.00  0.00    -0.276 OA
ENDBRANCH   1   4
BRANCH   1   7
ATOM      7  C   UNL     1       3.556  -1.329  27.111  0.00  0.00    +0.234 C 
ATOM      8  N   UNL     1       4.021  -2.559  26.693  0.00  0.00    -0.302 N 
ATOM      9  H   UNL     1       4.263  -2.588  25.712  0.00  0.00    +0.150 HD
ATOM     10  O   UNL     1       2.601  -1.261  27.892  0.00  0.00    -0.274 OA
BRANCH   8  11
ATOM     11  C   UNL     1       3.423  -3.834  27.191  0.00  0.00    +0.159 C 
ATOM     12  C   UNL     1       3.477  -4.859  26.047  0.00  0.00    +0.236 C 
ATOM     13  O   UNL     1       2.531  -5.590  25.757  0.00  0.00    -0.274 OA
ATOM     14  N   UNL     1       4.803  -5.114  25.631  0.00  0.00    -0.296 N 
ATOM     15  C   UNL     1       5.195  -6.464  26.034  0.00  0.00    +0.108 C 
ATOM     16  C   UNL     1       5.042  -6.662  27.556  0.00  0.00    +0.019 C 
ATOM     17  C   UNL     1       5.290  -5.372  28.351  0.00  0.00    +0.004 C 
ATOM     18  C   UNL     1       4.054  -4.452  28.480  0.00  0.00    +0.032 C 
BRANCH  14  19
ATOM     19  C   UNL     1       5.163  -4.684  24.270  0.00  0.00    +0.143 C 
BRANCH  19  20
ATOM     20  C   UNL     1       6.174  -3.538  24.100  0.00  0.00    -0.030 A 
ATOM     21  C   UNL     1       5.933  -2.561  23.114  0.00  0.00    +0.006 A 
ATOM     22  C   UNL     1       6.834  -1.492  22.849  0.00  0.00    +0.009 A 
ATOM     23  C   UNL     1       8.024  -1.308  23.577  0.00  0.00    -0.018 A 
ATOM     24  C   UNL     1       8.250  -2.298  24.560  0.00  0.00    +0.009 A 
ATOM     25  C   UNL     1       7.365  -3.389  24.810  0.00  0.00    +0.006 A 
BRANCH  23  26
ATOM     26  C   UNL     1       8.943  -0.114  23.375  0.00  0.00    -0.018 A 
ATOM     27  C   UNL     1       8.733   0.862  22.368  0.00  0.00    +0.008 A 
ATOM     28  C   UNL     1       9.506   2.034  22.270  0.00  0.00    +0.001 A 
ATOM     29  C   UNL     1      10.528   2.283  23.173  0.00  0.00    +0.000 A 
ATOM     30  C   UNL     1      10.808   1.327  24.141  0.00  0.00    +0.001 A 
ATOM     31  C   UNL     1      10.036   0.151  24.227  0.00  0.00    +0.008 A 
ENDBRANCH  23  26
ENDBRANCH  19  20
ENDBRANCH  14  19
ENDBRANCH   8  11
ENDBRANCH   1   7
BRANCH   1  32
ATOM     32  C   UNL     1       5.699  -0.148  26.101  0.00  0.00    +0.067 C 
BRANCH  32  33
ATOM     33  C   UNL     1       6.342   1.094  25.572  0.00  0.00    -0.044 A 
ATOM     34  C   UNL     1       5.794   1.727  24.460  0.00  0.00    +0.023 A 
ATOM     35  C   UNL     1       6.162   3.031  24.127  0.00  0.00    +0.105 A 
ATOM     36  C   UNL     1       7.185   3.645  24.860  0.00  0.00    +0.136 A 
ATOM     37  C   UNL     1       7.859   2.935  25.862  0.00  0.00    +0.047 A 
ATOM     38  C   UNL     1       7.416   1.677  26.242  0.00  0.00    +0.007 A 
BRANCH  35  39
ATOM     39  P   UNL     1       5.139   3.844  22.943  0.00  0.00    +0.362 P 
ATOM     40  O   UNL     1       4.072   3.011  22.278  0.00  0.00    -0.253 OA
BRANCH  39  41
ATOM     41  O   UNL     1       6.108   4.538  21.864  0.00  0.00    -0.321 OA
ATOM     42  H   UNL     1       6.634   3.904  21.360  0.00  0.00    +0.220 HD
ENDBRANCH  39  41
BRANCH  39  43
ATOM     43  O   UNL     1       4.558   5.134  23.685  0.00  0.00    -0.321 OA
ATOM     44  H   UNL     1       4.462   5.038  24.645  0.00  0.00    +0.220 HD
ENDBRANCH  39  43
ENDBRANCH  35  39
BRANCH  36  45
ATOM     45  O   UNL     1       7.488   4.958  24.589  0.00  0.00    -0.480 OA
BRANCH  45  46
ATOM     46  C   UNL     1       8.880   5.248  24.829  0.00  0.00    +0.349 C 
BRANCH  46  47
ATOM     47  C   UNL     1       9.491   5.857  23.583  0.00  0.00    +0.343 C 
ATOM     48  O   UNL     1      10.682   6.100  23.458  0.00  0.00    -0.247 OA
BRANCH  47  49
ATOM     49  O   UNL     1       8.592   6.051  22.591  0.00  0.00    -0.478 OA
ATOM     50  H   UNL     1       8.394   5.210  22.128  0.00  0.00    +0.295 HD
ENDBRANCH  47  49
ENDBRANCH  46  47
ENDBRANCH  45  46
ENDBRANCH  36  45
ENDBRANCH  32  33
ENDBRANCH   1  32
TORSDOF 15
ENDMDL
MODEL 6
REMARK VINA RESULT:      -6.3      2.752      4.126
REMARK  Name = 
REMARK  16 active torsions:
REMARK  status: ('A' for Active; 'I' for Inactive)
REMARK    1  A    between atoms: C_1  and  C_2
REMARK    2  A    between atoms: N_4  and  C_5
REMARK    3  A    between atoms: C_5  and  C_7
REMARK    4  A    between atoms: C_5  and  C_23
REMARK    5  A    between atoms: C_7  and  C_8
REMARK    6  A    between atoms: C_11  and  O_12
REMARK    7  A    between atoms: O_12  and  C_13
REMARK    8  A    between atoms: C_13  and  C_14
REMARK    9  A    between atoms: C_14  and  O_15
REMARK   10  A    between atoms: C_17  and  P_19
REMARK   11  A    between atoms: P_19  and  O_20
REMARK   12  A    between atoms: P_19  and  O_21
REMARK   13  A    between atoms: N_25  and  C_26
REMARK   14  A    between atoms: N_32  and  C_33
REMARK   15  A    between atoms: C_33  and  C_34
REMARK   16  A    between atoms: C_37  and  C_40
REMARK                            x       y       z     vdW  Elec       q    Type
REMARK                         _______ _______ _______ _____ _____    ______ ____
ROOT
ATOM      1  C   UNL     1       4.924   1.120  27.358  0.00  0.00    +0.163 C 
ENDROOT
BRANCH   1   4
ATOM      2  C   UNL     1       2.371  -0.374  29.731  0.00  0.00    +0.109 C 
ATOM      3  C   UNL     1       3.666   0.227  29.268  0.00  0.00    +0.211 C 
ATOM      4  N   UNL     1       3.638   0.853  28.028  0.00  0.00    -0.304 N 
ATOM      5  H   UNL     1       2.754   1.047  27.573  0.00  0.00    +0.149 HD
ATOM      6  O   UNL     1       4.698   0.079  29.920  0.00  0.00    -0.276 OA
ENDBRANCH   1   4
BRANCH   1   7
ATOM      7  C   UNL     1       5.390   2.612  27.105  0.00  0.00    +0.234 C 
ATOM      8  N   UNL     1       5.844   2.976  25.854  0.00  0.00    -0.302 N 
ATOM      9  H   UNL     1       6.395   2.260  25.399  0.00  0.00    +0.150 HD
ATOM     10  O   UNL     1       5.403   3.431  28.030  0.00  0.00    -0.274 OA
BRANCH   8  11
ATOM     11  C   UNL     1       6.325   4.361  25.566  0.00  0.00    +0.159 C 
ATOM     12  C   UNL     1       7.857   4.314  25.450  0.00  0.00    +0.236 C 
ATOM     13  O   UNL     1       8.595   5.146  25.978  0.00  0.00    -0.274 OA
ATOM     14  N   UNL     1       8.280   3.463  24.404  0.00  0.00    -0.296 N 
ATOM     15  C   UNL     1       8.837   4.262  23.314  0.00  0.00    +0.108 C 
ATOM     16  C   UNL     1       7.821   5.305  22.805  0.00  0.00    +0.019 C 
ATOM     17  C   UNL     1       6.367   4.826  22.924  0.00  0.00    +0.004 C 
ATOM     18  C   UNL     1       5.724   5.069  24.309  0.00  0.00    +0.032 C 
BRANCH  14  19
ATOM     19  C   UNL     1       9.014   2.249  24.796  0.00  0.00    +0.143 C 
BRANCH  19  20
ATOM     20  C   UNL     1       8.518   0.888  24.281  0.00  0.00    -0.030 A 
ATOM     21  C   UNL     1       9.289  -0.261  24.549  0.00  0.00    +0.006 A 
ATOM     22  C   UNL     1       8.938  -1.555  24.073  0.00  0.00    +0.009 A 
ATOM     23  C   UNL     1       7.773  -1.794  23.322  0.00  0.00    -0.018 A 
ATOM     24  C   UNL     1       7.014  -0.631  23.061  0.00  0.00    +0.009 A 
ATOM     25  C   UNL     1       7.376   0.674  23.510  0.00  0.00    +0.006 A 
BRANCH  23  26
ATOM     26  C   UNL     1       7.333  -3.186  22.896  0.00  0.00    -0.018 A 
ATOM     27  C   UNL     1       6.354  -3.416  21.897  0.00  0.00    +0.008 A 
ATOM     28  C   UNL     1       6.046  -4.701  21.412  0.00  0.00    +0.001 A 
ATOM     29  C   UNL     1       6.704  -5.817  21.906  0.00  0.00    +0.000 A 
ATOM     30  C   UNL     1       7.629  -5.646  22.928  0.00  0.00    +0.001 A 
ATOM     31  C   UNL     1       7.925  -4.357  23.415  0.00  0.00    +0.008 A 
ENDBRANCH  23  26
ENDBRANCH  19  20
ENDBRANCH  14  19
ENDBRANCH   8  11
ENDBRANCH   1   7
BRANCH   1  32
ATOM     32  C   UNL     1       4.994   0.190  26.112  0.00  0.00    +0.067 C 
BRANCH  32  33
ATOM     33  C   UNL     1       5.275  -1.251  26.392  0.00  0.00    -0.044 A 
ATOM     34  C   UNL     1       4.282  -2.199  26.157  0.00  0.00    +0.023 A 
ATOM     35  C   UNL     1       4.592  -3.559  26.106  0.00  0.00    +0.105 A 
ATOM     36  C   UNL     1       5.897  -3.960  26.419  0.00  0.00    +0.136 A 
ATOM     37  C   UNL     1       6.846  -3.016  26.832  0.00  0.00    +0.047 A 
ATOM     38  C   UNL     1       6.547  -1.662  26.785  0.00  0.00    +0.007 A 
BRANCH  35  39
ATOM     39  P   UNL     1       3.344  -4.611  25.440  0.00  0.00    +0.362 P 
ATOM     40  O   UNL     1       2.019  -3.971  25.109  0.00  0.00    -0.253 OA
BRANCH  39  41
ATOM     41  O   UNL     1       3.169  -5.850  26.447  0.00  0.00    -0.321 OA
ATOM     42  H   UNL     1       2.628  -5.641  27.220  0.00  0.00    +0.220 HD
ENDBRANCH  39  41
BRANCH  39  43
ATOM     43  O   UNL     1       4.016  -5.344  24.189  0.00  0.00    -0.321 OA
ATOM     44  H   UNL     1       4.336  -4.747  23.495  0.00  0.00    +0.220 HD
ENDBRANCH  39  43
ENDBRANCH  35  39
BRANCH  36  45
ATOM     45  O   UNL     1       6.224  -5.288  26.284  0.00  0.00    -0.480 OA
BRANCH  45  46
ATOM     46  C   UNL     1       7.050  -5.751  27.372  0.00  0.00    +0.349 C 
BRANCH  46  47
ATOM     47  C   UNL     1       6.169  -6.202  28.519  0.00  0.00    +0.343 C 
ATOM     48  O   UNL     1       5.958  -5.533  29.520  0.00  0.00    -0.247 OA
BRANCH  47  49
ATOM     49  O   UNL     1       5.583  -7.402  28.299  0.00  0.00    -0.478 OA
ATOM     50  H   UNL     1       6.252  -8.088  28.096  0.00  0.00    +0.295 HD
ENDBRANCH  47  49
ENDBRANCH  46  47
ENDBRANCH  45  46
ENDBRANCH  36  45
ENDBRANCH  32  33
ENDBRANCH   1  32
TORSDOF 15
ENDMDL
MODEL 7
REMARK VINA RESULT:      -6.3      3.546      9.345
REMARK  Name = 
REMARK  16 active torsions:
REMARK  status: ('A' for Active; 'I' for Inactive)
REMARK    1  A    between atoms: C_1  and  C_2
REMARK    2  A    between atoms: N_4  and  C_5
REMARK    3  A    between atoms: C_5  and  C_7
REMARK    4  A    between atoms: C_5  and  C_23
REMARK    5  A    between atoms: C_7  and  C_8
REMARK    6  A    between atoms: C_11  and  O_12
REMARK    7  A    between atoms: O_12  and  C_13
REMARK    8  A    between atoms: C_13  and  C_14
REMARK    9  A    between atoms: C_14  and  O_15
REMARK   10  A    between atoms: C_17  and  P_19
REMARK   11  A    between atoms: P_19  and  O_20
REMARK   12  A    between atoms: P_19  and  O_21
REMARK   13  A    between atoms: N_25  and  C_26
REMARK   14  A    between atoms: N_32  and  C_33
REMARK   15  A    between atoms: C_33  and  C_34
REMARK   16  A    between atoms: C_37  and  C_40
REMARK                            x       y       z     vdW  Elec       q    Type
REMARK                         _______ _______ _______ _____ _____    ______ ____
ROOT
ATOM      1  C   UNL     1       5.449  -1.263  25.156  0.00  0.00    +0.163 C 
ENDROOT
BRANCH   1   4
ATOM      2  C   UNL     1       6.600  -2.655  21.822  0.00  0.00    +0.109 C 
ATOM      3  C   UNL     1       5.887  -2.595  23.141  0.00  0.00    +0.211 C 
ATOM      4  N   UNL     1       5.786  -1.338  23.722  0.00  0.00    -0.304 N 
ATOM      5  H   UNL     1       6.014  -0.508  23.188  0.00  0.00    +0.149 HD
ATOM      6  O   UNL     1       5.506  -3.623  23.699  0.00  0.00    -0.276 OA
ENDBRANCH   1   4
BRANCH   1   7
ATOM      7  C   UNL     1       4.584  -2.409  25.826  0.00  0.00    +0.234 C 
ATOM      8  N   UNL     1       5.222  -3.439  26.487  0.00  0.00    -0.302 N 
ATOM      9  H   UNL     1       6.079  -3.737  26.041  0.00  0.00    +0.150 HD
ATOM     10  O   UNL     1       3.354  -2.417  25.709  0.00  0.00    -0.274 OA
BRANCH   8  11
ATOM     11  C   UNL     1       4.459  -4.562  27.110  0.00  0.00    +0.159 C 
ATOM     12  C   UNL     1       5.341  -5.820  27.053  0.00  0.00    +0.236 C 
ATOM     13  O   UNL     1       4.914  -6.923  26.714  0.00  0.00    -0.274 OA
ATOM     14  N   UNL     1       6.550  -5.647  27.763  0.00  0.00    -0.296 N 
ATOM     15  C   UNL     1       6.531  -6.465  28.975  0.00  0.00    +0.108 C 
ATOM     16  C   UNL     1       5.314  -6.129  29.861  0.00  0.00    +0.019 C 
ATOM     17  C   UNL     1       4.891  -4.656  29.756  0.00  0.00    +0.004 C 
ATOM     18  C   UNL     1       3.948  -4.344  28.571  0.00  0.00    +0.032 C 
BRANCH  14  19
ATOM     19  C   UNL     1       7.789  -5.646  26.969  0.00  0.00    +0.143 C 
BRANCH  19  20
ATOM     20  C   UNL     1       8.234  -4.337  26.296  0.00  0.00    -0.030 A 
ATOM     21  C   UNL     1       8.754  -4.388  24.988  0.00  0.00    +0.006 A 
ATOM     22  C   UNL     1       9.238  -3.239  24.304  0.00  0.00    +0.009 A 
ATOM     23  C   UNL     1       9.204  -1.951  24.869  0.00  0.00    -0.018 A 
ATOM     24  C   UNL     1       8.681  -1.919  26.182  0.00  0.00    +0.009 A 
ATOM     25  C   UNL     1       8.223  -3.072  26.885  0.00  0.00    +0.006 A 
BRANCH  23  26
ATOM     26  C   UNL     1       9.620  -0.701  24.110  0.00  0.00    -0.018 A 
ATOM     27  C   UNL     1       9.060  -0.331  22.862  0.00  0.00    +0.008 A 
ATOM     28  C   UNL     1       9.350   0.892  22.228  0.00  0.00    +0.001 A 
ATOM     29  C   UNL     1      10.217   1.802  22.815  0.00  0.00    +0.000 A 
ATOM     30  C   UNL     1      10.835   1.457  24.009  0.00  0.00    +0.001 A 
ATOM     31  C   UNL     1      10.547   0.226  24.633  0.00  0.00    +0.008 A 
ENDBRANCH  23  26
ENDBRANCH  19  20
ENDBRANCH  14  19
ENDBRANCH   8  11
ENDBRANCH   1   7
BRANCH   1  32
ATOM     32  C   UNL     1       4.949   0.184  25.435  0.00  0.00    +0.067 C 
BRANCH  32  33
ATOM     33  C   UNL     1       5.902   1.280  25.082  0.00  0.00    -0.044 A 
ATOM     34  C   UNL     1       5.569   2.176  24.070  0.00  0.00    +0.023 A 
ATOM     35  C   UNL     1       6.268   3.375  23.920  0.00  0.00    +0.105 A 
ATOM     36  C   UNL     1       7.389   3.601  24.728  0.00  0.00    +0.136 A 
ATOM     37  C   UNL     1       7.827   2.613  25.619  0.00  0.00    +0.047 A 
ATOM     38  C   UNL     1       7.067   1.471  25.822  0.00  0.00    +0.007 A 
BRANCH  35  39
ATOM     39  P   UNL     1       5.524   4.575  22.864  0.00  0.00    +0.362 P 
ATOM     40  O   UNL     1       4.790   5.711  23.533  0.00  0.00    -0.253 OA
BRANCH  39  41
ATOM     41  O   UNL     1       4.580   3.788  21.829  0.00  0.00    -0.321 OA
ATOM     42  H   UNL     1       5.060   3.428  21.072  0.00  0.00    +0.220 HD
ENDBRANCH  39  41
BRANCH  39  43
ATOM     43  O   UNL     1       6.685   5.069  21.884  0.00  0.00    -0.321 OA
ATOM     44  H   UNL     1       7.113   5.898  22.151  0.00  0.00    +0.220 HD
ENDBRANCH  39  43
ENDBRANCH  35  39
BRANCH  36  45
ATOM     45  O   UNL     1       8.024   4.817  24.641  0.00  0.00    -0.480 OA
BRANCH  45  46
ATOM     46  C   UNL     1       9.459   4.671  24.602  0.00  0.00    +0.349 C 
BRANCH  46  47
ATOM     47  C   UNL     1      10.050   5.742  23.707  0.00  0.00    +0.343 C 
ATOM     48  O   UNL     1      11.220   6.094  23.749  0.00  0.00    -0.247 OA
BRANCH  47  49
ATOM     49  O   UNL     1       9.166   6.231  22.807  0.00  0.00    -0.478 OA
ATOM     50  H   UNL     1       9.400   5.952  21.898  0.00  0.00    +0.295 HD
ENDBRANCH  47  49
ENDBRANCH  46  47
ENDBRANCH  45  46
ENDBRANCH  36  45
ENDBRANCH  32  33
ENDBRANCH   1  32
TORSDOF 15
ENDMDL
MODEL 8
REMARK VINA RESULT:      -6.3      4.020      7.094
REMARK  Name = 
REMARK  16 active torsions:
REMARK  status: ('A' for Active; 'I' for Inactive)
REMARK    1  A    between atoms: C_1  and  C_2
REMARK    2  A    between atoms: N_4  and  C_5
REMARK    3  A    between atoms: C_5  and  C_7
REMARK    4  A    between atoms: C_5  and  C_23
REMARK    5  A    between atoms: C_7  and  C_8
REMARK    6  A    between atoms: C_11  and  O_12
REMARK    7  A    between atoms: O_12  and  C_13
REMARK    8  A    between atoms: C_13  and  C_14
REMARK    9  A    between atoms: C_14  and  O_15
REMARK   10  A    between atoms: C_17  and  P_19
REMARK   11  A    between atoms: P_19  and  O_20
REMARK   12  A    between atoms: P_19  and  O_21
REMARK   13  A    between atoms: N_25  and  C_26
REMARK   14  A    between atoms: N_32  and  C_33
REMARK   15  A    between atoms: C_33  and  C_34
REMARK   16  A    between atoms: C_37  and  C_40
REMARK                            x       y       z     vdW  Elec       q    Type
REMARK                         _______ _______ _______ _____ _____    ______ ____
ROOT
ATOM      1  C   UNL     1       4.555   1.819  26.200  0.00  0.00    +0.163 C 
ENDROOT
BRANCH   1   4
ATOM      2  C   UNL     1       4.266  -0.740  28.984  0.00  0.00    +0.109 C 
ATOM      3  C   UNL     1       4.389   0.604  28.327  0.00  0.00    +0.211 C 
ATOM      4  N   UNL     1       4.096   0.647  26.970  0.00  0.00    -0.304 N 
ATOM      5  H   UNL     1       3.648  -0.141  26.518  0.00  0.00    +0.149 HD
ATOM      6  O   UNL     1       4.816   1.574  28.950  0.00  0.00    -0.276 OA
ENDBRANCH   1   4
BRANCH   1   7
ATOM      7  C   UNL     1       3.553   3.008  25.898  0.00  0.00    +0.234 C 
ATOM      8  N   UNL     1       3.604   3.640  24.673  0.00  0.00    -0.302 N 
ATOM      9  H   UNL     1       4.542   3.753  24.313  0.00  0.00    +0.150 HD
ATOM     10  O   UNL     1       2.773   3.408  26.769  0.00  0.00    -0.274 OA
BRANCH   8  11
ATOM     11  C   UNL     1       2.705   4.788  24.344  0.00  0.00    +0.159 C 
ATOM     12  C   UNL     1       3.546   6.074  24.390  0.00  0.00    +0.236 C 
ATOM     13  O   UNL     1       3.161   7.108  24.935  0.00  0.00    -0.274 OA
ATOM     14  N   UNL     1       4.603   6.046  23.452  0.00  0.00    -0.296 N 
ATOM     15  C   UNL     1       4.330   6.995  22.374  0.00  0.00    +0.108 C 
ATOM     16  C   UNL     1       2.976   6.701  21.696  0.00  0.00    +0.019 C 
ATOM     17  C   UNL     1       2.623   5.207  21.696  0.00  0.00    +0.004 C 
ATOM     18  C   UNL     1       1.932   4.713  22.988  0.00  0.00    +0.032 C 
BRANCH  14  19
ATOM     19  C   UNL     1       5.969   6.015  23.996  0.00  0.00    +0.143 C 
BRANCH  19  20
ATOM     20  C   UNL     1       6.823   4.754  23.783  0.00  0.00    -0.030 A 
ATOM     21  C   UNL     1       6.612   3.980  22.625  0.00  0.00    +0.006 A 
ATOM     22  C   UNL     1       7.317   2.772  22.365  0.00  0.00    +0.009 A 
ATOM     23  C   UNL     1       8.306   2.272  23.232  0.00  0.00    -0.018 A 
ATOM     24  C   UNL     1       8.502   3.060  24.389  0.00  0.00    +0.009 A 
ATOM     25  C   UNL     1       7.778   4.256  24.669  0.00  0.00    +0.006 A 
BRANCH  23  26
ATOM     26  C   UNL     1       9.139   1.039  22.916  0.00  0.00    -0.018 A 
ATOM     27  C   UNL     1      10.225   0.612  23.721  0.00  0.00    +0.008 A 
ATOM     28  C   UNL     1      10.906  -0.600  23.501  0.00  0.00    +0.001 A 
ATOM     29  C   UNL     1      10.534  -1.440  22.462  0.00  0.00    +0.000 A 
ATOM     30  C   UNL     1       9.514  -1.034  21.612  0.00  0.00    +0.001 A 
ATOM     31  C   UNL     1       8.843   0.185  21.832  0.00  0.00    +0.008 A 
ENDBRANCH  23  26
ENDBRANCH  19  20
ENDBRANCH  14  19
ENDBRANCH   8  11
ENDBRANCH   1   7
BRANCH   1  32
ATOM     32  C   UNL     1       5.326   1.279  24.960  0.00  0.00    +0.067 C 
BRANCH  32  33
ATOM     33  C   UNL     1       6.156   0.058  25.192  0.00  0.00    -0.044 A 
ATOM     34  C   UNL     1       5.865  -1.109  24.491  0.00  0.00    +0.023 A 
ATOM     35  C   UNL     1       6.784  -2.159  24.440  0.00  0.00    +0.105 A 
ATOM     36  C   UNL     1       7.949  -2.066  25.212  0.00  0.00    +0.136 A 
ATOM     37  C   UNL     1       8.149  -0.967  26.059  0.00  0.00    +0.047 A 
ATOM     38  C   UNL     1       7.274   0.108  26.023  0.00  0.00    +0.007 A 
BRANCH  35  39
ATOM     39  P   UNL     1       6.468  -3.404  23.233  0.00  0.00    +0.362 P 
ATOM     40  O   UNL     1       5.543  -3.036  22.100  0.00  0.00    -0.253 OA
BRANCH  39  41
ATOM     41  O   UNL     1       5.960  -4.714  24.012  0.00  0.00    -0.321 OA
ATOM     42  H   UNL     1       5.006  -4.722  24.165  0.00  0.00    +0.220 HD
ENDBRANCH  39  41
BRANCH  39  43
ATOM     43  O   UNL     1       7.903  -3.899  22.735  0.00  0.00    -0.321 OA
ATOM     44  H   UNL     1       7.898  -4.750  22.270  0.00  0.00    +0.220 HD
ENDBRANCH  39  43
ENDBRANCH  35  39
BRANCH  36  45
ATOM     45  O   UNL     1       8.892  -3.058  25.096  0.00  0.00    -0.480 OA
BRANCH  45  46
ATOM     46  C   UNL     1       8.952  -3.883  26.278  0.00  0.00    +0.349 C 
BRANCH  46  47
ATOM     47  C   UNL     1       8.723  -5.331  25.895  0.00  0.00    +0.343 C 
ATOM     48  O   UNL     1       7.686  -5.938  26.116  0.00  0.00    -0.247 OA
BRANCH  47  49
ATOM     49  O   UNL     1       9.765  -5.874  25.224  0.00  0.00    -0.478 OA
ATOM     50  H   UNL     1      10.343  -5.178  24.849  0.00  0.00    +0.295 HD
ENDBRANCH  47  49
ENDBRANCH  46  47
ENDBRANCH  45  46
ENDBRANCH  36  45
ENDBRANCH  32  33
ENDBRANCH   1  32
TORSDOF 15
ENDMDL
MODEL 9
REMARK VINA RESULT:      -6.3      3.150      7.590
REMARK  Name = 
REMARK  16 active torsions:
REMARK  status: ('A' for Active; 'I' for Inactive)
REMARK    1  A    between atoms: C_1  and  C_2
REMARK    2  A    between atoms: N_4  and  C_5
REMARK    3  A    between atoms: C_5  and  C_7
REMARK    4  A    between atoms: C_5  and  C_23
REMARK    5  A    between atoms: C_7  and  C_8
REMARK    6  A    between atoms: C_11  and  O_12
REMARK    7  A    between atoms: O_12  and  C_13
REMARK    8  A    between atoms: C_13  and  C_14
REMARK    9  A    between atoms: C_14  and  O_15
REMARK   10  A    between atoms: C_17  and  P_19
REMARK   11  A    between atoms: P_19  and  O_20
REMARK   12  A    between atoms: P_19  and  O_21
REMARK   13  A    between atoms: N_25  and  C_26
REMARK   14  A    between atoms: N_32  and  C_33
REMARK   15  A    between atoms: C_33  and  C_34
REMARK   16  A    between atoms: C_37  and  C_40
REMARK                            x       y       z     vdW  Elec       q    Type
REMARK                         _______ _______ _______ _____ _____    ______ ____
ROOT
ATOM      1  C   UNL     1       8.073  -1.840  25.566  0.00  0.00    +0.163 C 
ENDROOT
BRANCH   1   4
ATOM      2  C   UNL     1      10.253  -1.335  22.505  0.00  0.00    +0.109 C 
ATOM      3  C   UNL     1       9.013  -1.365  23.349  0.00  0.00    +0.211 C 
ATOM      4  N   UNL     1       9.211  -1.432  24.721  0.00  0.00    -0.304 N 
ATOM      5  H   UNL     1      10.132  -1.277  25.113  0.00  0.00    +0.149 HD
ATOM      6  O   UNL     1       7.898  -1.420  22.830  0.00  0.00    -0.276 OA
ENDBRANCH   1   4
BRANCH   1   7
ATOM      7  C   UNL     1       7.588  -0.903  26.747  0.00  0.00    +0.234 C 
ATOM      8  N   UNL     1       6.244  -0.615  26.874  0.00  0.00    -0.302 N 
ATOM      9  H   UNL     1       5.772  -0.489  25.988  0.00  0.00    +0.150 HD
ATOM     10  O   UNL     1       8.406  -0.385  27.513  0.00  0.00    -0.274 OA
BRANCH   8  11
ATOM     11  C   UNL     1       5.733   0.288  27.949  0.00  0.00    +0.159 C 
ATOM     12  C   UNL     1       5.403   1.645  27.307  0.00  0.00    +0.236 C 
ATOM     13  O   UNL     1       5.720   2.721  27.814  0.00  0.00    -0.274 OA
ATOM     14  N   UNL     1       4.411   1.528  26.308  0.00  0.00    -0.296 N 
ATOM     15  C   UNL     1       3.167   2.139  26.774  0.00  0.00    +0.108 C 
ATOM     16  C   UNL     1       2.696   1.512  28.102  0.00  0.00    +0.019 C 
ATOM     17  C   UNL     1       3.078   0.031  28.228  0.00  0.00    +0.004 C 
ATOM     18  C   UNL     1       4.504  -0.218  28.770  0.00  0.00    +0.032 C 
BRANCH  14  19
ATOM     19  C   UNL     1       4.828   1.813  24.926  0.00  0.00    +0.143 C 
BRANCH  19  20
ATOM     20  C   UNL     1       6.200   2.463  24.687  0.00  0.00    -0.030 A 
ATOM     21  C   UNL     1       6.278   3.866  24.586  0.00  0.00    +0.006 A 
ATOM     22  C   UNL     1       7.494   4.554  24.316  0.00  0.00    +0.009 A 
ATOM     23  C   UNL     1       8.723   3.887  24.161  0.00  0.00    -0.018 A 
ATOM     24  C   UNL     1       8.625   2.481  24.263  0.00  0.00    +0.009 A 
ATOM     25  C   UNL     1       7.404   1.783  24.504  0.00  0.00    +0.006 A 
BRANCH  23  26
ATOM     26  C   UNL     1      10.045   4.616  23.977  0.00  0.00    -0.018 A 
ATOM     27  C   UNL     1      10.310   5.890  24.537  0.00  0.00    +0.008 A 
ATOM     28  C   UNL     1      11.577   6.501  24.477  0.00  0.00    +0.001 A 
ATOM     29  C   UNL     1      12.637   5.865  23.850  0.00  0.00    +0.000 A 
ATOM     30  C   UNL     1      12.409   4.641  23.235  0.00  0.00    +0.001 A 
ATOM     31  C   UNL     1      11.136   4.040  23.291  0.00  0.00    +0.008 A 
ENDBRANCH  23  26
ENDBRANCH  19  20
ENDBRANCH  14  19
ENDBRANCH   8  11
ENDBRANCH   1   7
BRANCH   1  32
ATOM     32  C   UNL     1       8.306  -3.328  25.962  0.00  0.00    +0.067 C 
BRANCH  32  33
ATOM     33  C   UNL     1       7.154  -4.250  25.729  0.00  0.00    -0.044 A 
ATOM     34  C   UNL     1       6.587  -4.328  24.460  0.00  0.00    +0.023 A 
ATOM     35  C   UNL     1       5.734  -5.381  24.122  0.00  0.00    +0.105 A 
ATOM     36  C   UNL     1       5.361  -6.287  25.123  0.00  0.00    +0.136 A 
ATOM     37  C   UNL     1       5.792  -6.097  26.443  0.00  0.00    +0.047 A 
ATOM     38  C   UNL     1       6.713  -5.104  26.739  0.00  0.00    +0.007 A 
BRANCH  35  39
ATOM     39  P   UNL     1       5.386  -5.572  22.405  0.00  0.00    +0.362 P 
ATOM     40  O   UNL     1       5.613  -4.369  21.525  0.00  0.00    -0.253 OA
BRANCH  39  41
ATOM     41  O   UNL     1       3.884  -6.127  22.275  0.00  0.00    -0.321 OA
ATOM     42  H   UNL     1       3.618  -6.300  21.363  0.00  0.00    +0.220 HD
ENDBRANCH  39  41
BRANCH  39  43
ATOM     43  O   UNL     1       6.213  -6.857  21.936  0.00  0.00    -0.321 OA
ATOM     44  H   UNL     1       5.700  -7.680  21.910  0.00  0.00    +0.220 HD
ENDBRANCH  39  43
ENDBRANCH  35  39
BRANCH  36  45
ATOM     45  O   UNL     1       4.593  -7.370  24.772  0.00  0.00    -0.480 OA
BRANCH  45  46
ATOM     46  C   UNL     1       3.299  -7.339  25.409  0.00  0.00    +0.349 C 
BRANCH  46  47
ATOM     47  C   UNL     1       2.356  -8.276  24.682  0.00  0.00    +0.343 C 
ATOM     48  O   UNL     1       1.773  -7.988  23.647  0.00  0.00    -0.247 OA
BRANCH  47  49
ATOM     49  O   UNL     1       2.268  -9.497  25.260  0.00  0.00    -0.478 OA
ATOM     50  H   UNL     1       2.804 -10.155  24.773  0.00  0.00    +0.295 HD
ENDBRANCH  47  49
ENDBRANCH  46  47
ENDBRANCH  45  46
ENDBRANCH  36  45
ENDBRANCH  32  33
ENDBRANCH   1  32
TORSDOF 15
ENDMDL
