MODEL 1
REMARK VINA RESULT:      -5.6      0.000      0.000
REMARK  Name = 
REMARK  24 active torsions:
REMARK  status: ('A' for Active; 'I' for Inactive)
REMARK    1  A    between atoms: C_2  and  C_3
REMARK    2  A    between atoms: C_2  and  C_7
REMARK    3  A    between atoms: C_2  and  N_16
REMARK    4  A    between atoms: C_3  and  C_4
REMARK    5  A    between atoms: C_4  and  C_5
REMARK    6  A    between atoms: C_5  and  C_6
REMARK    7  A    between atoms: C_7  and  O_8
REMARK    8  A    between atoms: O_8  and  P_9
REMARK    9  A    between atoms: P_9  and  O_10
REMARK   10  A    between atoms: P_9  and  O_12
REMARK   11  A    between atoms: O_12  and  C_13
REMARK   12  A    between atoms: C_13  and  C_14
REMARK   13  A    between atoms: C_14  and  O_15
REMARK   14  A    between atoms: C_17  and  C_19
REMARK   15  A    between atoms: C_19  and  C_20
REMARK   16  A    between atoms: C_20  and  C_21
REMARK   17  A    between atoms: C_21  and  C_22
REMARK   18  A    between atoms: C_22  and  C_23
REMARK   19  A    between atoms: C_23  and  C_24
REMARK   20  A    between atoms: C_24  and  C_25
REMARK   21  A    between atoms: C_25  and  C_26
REMARK   22  A    between atoms: C_26  and  C_27
REMARK   23  A    between atoms: C_27  and  C_28
REMARK   24  A    between atoms: C_28  and  C_29
REMARK                            x       y       z     vdW  Elec       q    Type
REMARK                         _______ _______ _______ _____ _____    ______ ____
ROOT
ATOM      1  C   UNL     1       7.769  -3.421  23.113  0.00  0.00    +0.099 C 
ENDROOT
BRANCH   1   2
ATOM      2  N   UNL     1       8.422  -2.167  22.750  0.00  0.00    -0.310 N 
ATOM      3  H   UNL     1       7.905  -1.495  22.196  0.00  0.00    +0.149 HD
ATOM      4  C   UNL     1       9.776  -1.982  22.900  0.00  0.00    +0.213 C 
ATOM      5  O   UNL     1      10.532  -2.817  23.383  0.00  0.00    -0.276 OA
BRANCH   4   6
ATOM      6  C   UNL     1      10.244  -0.606  22.489  0.00  0.00    +0.096 C 
BRANCH   6   7
ATOM      7  C   UNL     1       9.260  -0.009  21.490  0.00  0.00    +0.009 C 
BRANCH   7   8
ATOM      8  C   UNL     1       9.061   1.483  21.732  0.00  0.00    +0.000 C 
BRANCH   8   9
ATOM      9  C   UNL     1      10.087   2.007  22.734  0.00  0.00    +0.000 C 
BRANCH   9  10
ATOM     10  C   UNL     1       9.407   2.761  23.872  0.00  0.00    +0.000 C 
BRANCH  10  11
ATOM     11  C   UNL     1       8.601   3.942  23.338  0.00  0.00    +0.000 C 
BRANCH  11  12
ATOM     12  C   UNL     1       8.251   4.909  24.465  0.00  0.00    -0.000 C 
BRANCH  12  13
ATOM     13  C   UNL     1       9.488   5.655  24.956  0.00  0.00    -0.000 C 
BRANCH  13  14
ATOM     14  C   UNL     1      10.315   6.165  23.777  0.00  0.00    -0.000 C 
BRANCH  14  15
ATOM     15  C   UNL     1      11.810   6.045  24.055  0.00  0.00    -0.003 C 
ATOM     16  C   UNL     1      12.426   4.907  23.258  0.00  0.00    +0.004 C 
ENDBRANCH  14  15
ENDBRANCH  13  14
ENDBRANCH  12  13
ENDBRANCH  11  12
ENDBRANCH  10  11
ENDBRANCH   9  10
ENDBRANCH   8   9
ENDBRANCH   7   8
ENDBRANCH   6   7
ENDBRANCH   4   6
ENDBRANCH   1   2
BRANCH   1  17
ATOM     17  C   UNL     1       6.805  -3.894  22.007  0.00  0.00    +0.024 C 
BRANCH  17  18
ATOM     18  C   UNL     1       6.503  -5.397  22.039  0.00  0.00    +0.002 C 
BRANCH  18  19
ATOM     19  C   UNL     1       5.057  -5.673  22.451  0.00  0.00    -0.003 C 
ATOM     20  C   UNL     1       4.998  -6.356  23.808  0.00  0.00    +0.004 C 
ENDBRANCH  18  19
ENDBRANCH  17  18
ENDBRANCH   1  17
BRANCH   1  21
ATOM     21  C   UNL     1       7.114  -3.281  24.491  0.00  0.00    +0.194 C 
BRANCH  21  22
ATOM     22  O   UNL     1       8.058  -3.489  25.525  0.00  0.00    -0.285 OA
BRANCH  22  23
ATOM     23  P   UNL     1       8.548  -4.990  25.791  0.00  0.00    +0.475 P 
ATOM     24  O   UNL     1       9.238  -5.673  24.660  0.00  0.00    -0.227 OA
BRANCH  23  25
ATOM     25  O   UNL     1       9.495  -4.838  27.077  0.00  0.00    -0.302 OA
ATOM     26  H   UNL     1       8.951  -4.786  27.886  0.00  0.00    +0.222 HD
ENDBRANCH  23  25
BRANCH  23  27
ATOM     27  O   UNL     1       7.268  -5.742  26.393  0.00  0.00    -0.284 OA
BRANCH  27  28
ATOM     28  C   UNL     1       6.635  -5.207  27.547  0.00  0.00    +0.200 C 
BRANCH  28  29
ATOM     29  C   UNL     1       5.951  -6.281  28.389  0.00  0.00    +0.184 C 
BRANCH  29  30
ATOM     30  O   UNL     1       5.370  -7.272  27.546  0.00  0.00    -0.393 OA
ATOM     31  H   UNL     1       5.212  -8.054  28.109  0.00  0.00    +0.209 HD
ENDBRANCH  29  30
ENDBRANCH  28  29
ENDBRANCH  27  28
ENDBRANCH  23  27
ENDBRANCH  22  23
ENDBRANCH  21  22
ENDBRANCH   1  21
TORSDOF 22
ENDMDL
MODEL 2
REMARK VINA RESULT:      -5.5      2.516      4.342
REMARK  Name = 
REMARK  24 active torsions:
REMARK  status: ('A' for Active; 'I' for Inactive)
REMARK    1  A    between atoms: C_2  and  C_3
REMARK    2  A    between atoms: C_2  and  C_7
REMARK    3  A    between atoms: C_2  and  N_16
REMARK    4  A    between atoms: C_3  and  C_4
REMARK    5  A    between atoms: C_4  and  C_5
REMARK    6  A    between atoms: C_5  and  C_6
REMARK    7  A    between atoms: C_7  and  O_8
REMARK    8  A    between atoms: O_8  and  P_9
REMARK    9  A    between atoms: P_9  and  O_10
REMARK   10  A    between atoms: P_9  and  O_12
REMARK   11  A    between atoms: O_12  and  C_13
REMARK   12  A    between atoms: C_13  and  C_14
REMARK   13  A    between atoms: C_14  and  O_15
REMARK   14  A    between atoms: C_17  and  C_19
REMARK   15  A    between atoms: C_19  and  C_20
REMARK   16  A    between atoms: C_20  and  C_21
REMARK   17  A    between atoms: C_21  and  C_22
REMARK   18  A    between atoms: C_22  and  C_23
REMARK   19  A    between atoms: C_23  and  C_24
REMARK   20  A    between atoms: C_24  and  C_25
REMARK   21  A    between atoms: C_25  and  C_26
REMARK   22  A    between atoms: C_26  and  C_27
REMARK   23  A    between atoms: C_27  and  C_28
REMARK   24  A    between atoms: C_28  and  C_29
REMARK                            x       y       z     vdW  Elec       q    Type
REMARK                         _______ _______ _______ _____ _____    ______ ____
ROOT
ATOM      1  C   UNL     1       4.751  -6.177  24.064  0.00  0.00    +0.099 C 
ENDROOT
BRANCH   1   2
ATOM      2  N   UNL     1       5.630  -5.099  23.624  0.00  0.00    -0.310 N 
ATOM      3  H   UNL     1       5.423  -4.154  23.920  0.00  0.00    +0.149 HD
ATOM      4  C   UNL     1       6.555  -5.279  22.622  0.00  0.00    +0.213 C 
ATOM      5  O   UNL     1       6.752  -6.348  22.054  0.00  0.00    -0.276 OA
BRANCH   4   6
ATOM      6  C   UNL     1       7.380  -4.047  22.337  0.00  0.00    +0.096 C 
BRANCH   6   7
ATOM      7  C   UNL     1       6.780  -2.850  23.067  0.00  0.00    +0.009 C 
BRANCH   7   8
ATOM      8  C   UNL     1       7.653  -1.610  22.911  0.00  0.00    +0.000 C 
BRANCH   8   9
ATOM      9  C   UNL     1       8.921  -1.941  22.129  0.00  0.00    +0.000 C 
BRANCH   9  10
ATOM     10  C   UNL     1      10.161  -1.778  23.002  0.00  0.00    +0.000 C 
BRANCH  10  11
ATOM     11  C   UNL     1       9.886  -0.831  24.168  0.00  0.00    +0.000 C 
BRANCH  11  12
ATOM     12  C   UNL     1      10.753   0.420  24.062  0.00  0.00    -0.000 C 
BRANCH  12  13
ATOM     13  C   UNL     1       9.967   1.669  24.448  0.00  0.00    -0.000 C 
BRANCH  13  14
ATOM     14  C   UNL     1       8.614   1.697  23.740  0.00  0.00    -0.000 C 
BRANCH  14  15
ATOM     15  C   UNL     1       8.754   2.173  22.297  0.00  0.00    -0.003 C 
ATOM     16  C   UNL     1       7.491   2.875  21.827  0.00  0.00    +0.004 C 
ENDBRANCH  14  15
ENDBRANCH  13  14
ENDBRANCH  12  13
ENDBRANCH  11  12
ENDBRANCH  10  11
ENDBRANCH   9  10
ENDBRANCH   8   9
ENDBRANCH   7   8
ENDBRANCH   6   7
ENDBRANCH   4   6
ENDBRANCH   1   2
BRANCH   1  17
ATOM     17  C   UNL     1       3.415  -6.165  23.294  0.00  0.00    +0.024 C 
BRANCH  17  18
ATOM     18  C   UNL     1       2.231  -6.736  24.082  0.00  0.00    +0.002 C 
BRANCH  18  19
ATOM     19  C   UNL     1       1.966  -8.198  23.721  0.00  0.00    -0.003 C 
ATOM     20  C   UNL     1       1.752  -9.038  24.970  0.00  0.00    +0.004 C 
ENDBRANCH  18  19
ENDBRANCH  17  18
ENDBRANCH   1  17
BRANCH   1  21
ATOM     21  C   UNL     1       4.590  -6.123  25.587  0.00  0.00    +0.194 C 
BRANCH  21  22
ATOM     22  O   UNL     1       5.803  -6.455  26.238  0.00  0.00    -0.285 OA
BRANCH  22  23
ATOM     23  P   UNL     1       6.485  -5.333  27.154  0.00  0.00    +0.475 P 
ATOM     24  O   UNL     1       5.605  -4.672  28.159  0.00  0.00    -0.227 OA
BRANCH  23  25
ATOM     25  O   UNL     1       7.706  -6.118  27.838  0.00  0.00    -0.302 OA
ATOM     26  H   UNL     1       7.437  -6.448  28.718  0.00  0.00    +0.222 HD
ENDBRANCH  23  25
BRANCH  23  27
ATOM     27  O   UNL     1       7.234  -4.359  26.126  0.00  0.00    -0.284 OA
BRANCH  27  28
ATOM     28  C   UNL     1       8.606  -4.056  26.340  0.00  0.00    +0.200 C 
BRANCH  28  29
ATOM     29  C   UNL     1       9.511  -4.662  25.270  0.00  0.00    +0.184 C 
BRANCH  29  30
ATOM     30  O   UNL     1       9.732  -6.044  25.535  0.00  0.00    -0.393 OA
ATOM     31  H   UNL     1      10.699  -6.160  25.606  0.00  0.00    +0.209 HD
ENDBRANCH  29  30
ENDBRANCH  28  29
ENDBRANCH  27  28
ENDBRANCH  23  27
ENDBRANCH  22  23
ENDBRANCH  21  22
ENDBRANCH   1  21
TORSDOF 22
ENDMDL
MODEL 3
REMARK VINA RESULT:      -5.4      2.483      4.429
REMARK  Name = 
REMARK  24 active torsions:
REMARK  status: ('A' for Active; 'I' for Inactive)
REMARK    1  A    between atoms: C_2  and  C_3
REMARK    2  A    between atoms: C_2  and  C_7
REMARK    3  A    between atoms: C_2  and  N_16
REMARK    4  A    between atoms: C_3  and  C_4
REMARK    5  A    between atoms: C_4  and  C_5
REMARK    6  A    between atoms: C_5  and  C_6
REMARK    7  A    between atoms: C_7  and  O_8
REMARK    8  A    between atoms: O_8  and  P_9
REMARK    9  A    between atoms: P_9  and  O_10
REMARK   10  A    between atoms: P_9  and  O_12
REMARK   11  A    between atoms: O_12  and  C_13
REMARK   12  A    between atoms: C_13  and  C_14
REMARK   13  A    between atoms: C_14  and  O_15
REMARK   14  A    between atoms: C_17  and  C_19
REMARK   15  A    between atoms: C_19  and  C_20
REMARK   16  A    between atoms: C_20  and  C_21
REMARK   17  A    between atoms: C_21  and  C_22
REMARK   18  A    between atoms: C_22  and  C_23
REMARK   19  A    between atoms: C_23  and  C_24
REMARK   20  A    between atoms: C_24  and  C_25
REMARK   21  A    between atoms: C_25  and  C_26
REMARK   22  A    between atoms: C_26  and  C_27
REMARK   23  A    between atoms: C_27  and  C_28
REMARK   24  A    between atoms: C_28  and  C_29
REMARK                            x       y       z     vdW  Elec       q    Type
REMARK                         _______ _______ _______ _____ _____    ______ ____
ROOT
ATOM      1  C   UNL     1       4.907  -6.400  24.064  0.00  0.00    +0.099 C 
ENDROOT
BRANCH   1   2
ATOM      2  N   UNL     1       5.797  -5.306  23.689  0.00  0.00    -0.310 N 
ATOM      3  H   UNL     1       5.666  -4.403  24.127  0.00  0.00    +0.149 HD
ATOM      4  C   UNL     1       6.619  -5.382  22.589  0.00  0.00    +0.213 C 
ATOM      5  O   UNL     1       6.709  -6.370  21.868  0.00  0.00    -0.276 OA
BRANCH   4   6
ATOM      6  C   UNL     1       7.478  -4.155  22.394  0.00  0.00    +0.096 C 
BRANCH   6   7
ATOM      7  C   UNL     1       6.596  -2.911  22.387  0.00  0.00    +0.009 C 
BRANCH   7   8
ATOM      8  C   UNL     1       7.401  -1.660  22.720  0.00  0.00    +0.000 C 
BRANCH   8   9
ATOM      9  C   UNL     1       8.898  -1.944  22.632  0.00  0.00    +0.000 C 
BRANCH   9  10
ATOM     10  C   UNL     1       9.563  -1.056  21.586  0.00  0.00    +0.000 C 
BRANCH  10  11
ATOM     11  C   UNL     1       8.970   0.351  21.608  0.00  0.00    +0.000 C 
BRANCH  11  12
ATOM     12  C   UNL     1      10.011   1.367  22.067  0.00  0.00    -0.000 C 
BRANCH  12  13
ATOM     13  C   UNL     1       9.610   2.008  23.392  0.00  0.00    -0.000 C 
BRANCH  13  14
ATOM     14  C   UNL     1       9.978   1.100  24.564  0.00  0.00    -0.000 C 
BRANCH  14  15
ATOM     15  C   UNL     1       8.735   0.646  25.324  0.00  0.00    -0.003 C 
ATOM     16  C   UNL     1       8.998  -0.646  26.081  0.00  0.00    +0.004 C 
ENDBRANCH  14  15
ENDBRANCH  13  14
ENDBRANCH  12  13
ENDBRANCH  11  12
ENDBRANCH  10  11
ENDBRANCH   9  10
ENDBRANCH   8   9
ENDBRANCH   7   8
ENDBRANCH   6   7
ENDBRANCH   4   6
ENDBRANCH   1   2
BRANCH   1  17
ATOM     17  C   UNL     1       3.522  -6.251  23.401  0.00  0.00    +0.024 C 
BRANCH  17  18
ATOM     18  C   UNL     1       2.815  -4.928  23.717  0.00  0.00    +0.002 C 
BRANCH  18  19
ATOM     19  C   UNL     1       1.302  -5.039  23.528  0.00  0.00    -0.003 C 
ATOM     20  C   UNL     1       0.957  -6.111  22.506  0.00  0.00    +0.004 C 
ENDBRANCH  18  19
ENDBRANCH  17  18
ENDBRANCH   1  17
BRANCH   1  21
ATOM     21  C   UNL     1       4.855  -6.523  25.591  0.00  0.00    +0.194 C 
BRANCH  21  22
ATOM     22  O   UNL     1       5.399  -5.373  26.211  0.00  0.00    -0.285 OA
BRANCH  22  23
ATOM     23  P   UNL     1       6.234  -5.582  27.561  0.00  0.00    +0.475 P 
ATOM     24  O   UNL     1       5.951  -4.628  28.671  0.00  0.00    -0.227 OA
BRANCH  23  25
ATOM     25  O   UNL     1       5.896  -7.098  27.963  0.00  0.00    -0.302 OA
ATOM     26  H   UNL     1       6.408  -7.713  27.401  0.00  0.00    +0.222 HD
ENDBRANCH  23  25
BRANCH  23  27
ATOM     27  O   UNL     1       7.762  -5.682  27.091  0.00  0.00    -0.284 OA
BRANCH  27  28
ATOM     28  C   UNL     1       8.410  -4.514  26.605  0.00  0.00    +0.200 C 
BRANCH  28  29
ATOM     29  C   UNL     1       9.392  -4.816  25.477  0.00  0.00    +0.184 C 
BRANCH  29  30
ATOM     30  O   UNL     1       9.834  -6.168  25.558  0.00  0.00    -0.393 OA
ATOM     31  H   UNL     1      10.714  -6.195  25.136  0.00  0.00    +0.209 HD
ENDBRANCH  29  30
ENDBRANCH  28  29
ENDBRANCH  27  28
ENDBRANCH  23  27
ENDBRANCH  22  23
ENDBRANCH  21  22
ENDBRANCH   1  21
TORSDOF 22
ENDMDL
MODEL 4
REMARK VINA RESULT:      -5.4      1.862      2.665
REMARK  Name = 
REMARK  24 active torsions:
REMARK  status: ('A' for Active; 'I' for Inactive)
REMARK    1  A    between atoms: C_2  and  C_3
REMARK    2  A    between atoms: C_2  and  C_7
REMARK    3  A    between atoms: C_2  and  N_16
REMARK    4  A    between atoms: C_3  and  C_4
REMARK    5  A    between atoms: C_4  and  C_5
REMARK    6  A    between atoms: C_5  and  C_6
REMARK    7  A    between atoms: C_7  and  O_8
REMARK    8  A    between atoms: O_8  and  P_9
REMARK    9  A    between atoms: P_9  and  O_10
REMARK   10  A    between atoms: P_9  and  O_12
REMARK   11  A    between atoms: O_12  and  C_13
REMARK   12  A    between atoms: C_13  and  C_14
REMARK   13  A    between atoms: C_14  and  O_15
REMARK   14  A    between atoms: C_17  and  C_19
REMARK   15  A    between atoms: C_19  and  C_20
REMARK   16  A    between atoms: C_20  and  C_21
REMARK   17  A    between atoms: C_21  and  C_22
REMARK   18  A    between atoms: C_22  and  C_23
REMARK   19  A    between atoms: C_23  and  C_24
REMARK   20  A    between atoms: C_24  and  C_25
REMARK   21  A    between atoms: C_25  and  C_26
REMARK   22  A    between atoms: C_26  and  C_27
REMARK   23  A    between atoms: C_27  and  C_28
REMARK   24  A    between atoms: C_28  and  C_29
REMARK                            x       y       z     vdW  Elec       q    Type
REMARK                         _______ _______ _______ _____ _____    ______ ____
ROOT
ATOM      1  C   UNL     1       6.454  -3.649  24.436  0.00  0.00    +0.099 C 
ENDROOT
BRANCH   1   2
ATOM      2  N   UNL     1       7.595  -2.818  24.066  0.00  0.00    -0.310 N 
ATOM      3  H   UNL     1       7.419  -1.924  23.624  0.00  0.00    +0.149 HD
ATOM      4  C   UNL     1       8.879  -3.310  24.052  0.00  0.00    +0.213 C 
ATOM      5  O   UNL     1       9.179  -4.451  24.384  0.00  0.00    -0.276 OA
BRANCH   4   6
ATOM      6  C   UNL     1       9.913  -2.280  23.666  0.00  0.00    +0.096 C 
BRANCH   6   7
ATOM      7  C   UNL     1       9.617  -0.966  24.380  0.00  0.00    +0.009 C 
BRANCH   7   8
ATOM      8  C   UNL     1      10.048   0.231  23.541  0.00  0.00    +0.000 C 
BRANCH   8   9
ATOM      9  C   UNL     1       9.843  -0.052  22.055  0.00  0.00    +0.000 C 
BRANCH   9  10
ATOM     10  C   UNL     1       9.044   1.064  21.390  0.00  0.00    +0.000 C 
BRANCH  10  11
ATOM     11  C   UNL     1       8.804   2.216  22.362  0.00  0.00    +0.000 C 
BRANCH  11  12
ATOM     12  C   UNL     1       7.334   2.625  22.361  0.00  0.00    -0.000 C 
BRANCH  12  13
ATOM     13  C   UNL     1       7.067   3.725  23.384  0.00  0.00    -0.000 C 
BRANCH  13  14
ATOM     14  C   UNL     1       6.393   4.926  22.723  0.00  0.00    -0.000 C 
BRANCH  14  15
ATOM     15  C   UNL     1       7.407   5.790  21.979  0.00  0.00    -0.003 C 
ATOM     16  C   UNL     1       8.384   6.441  22.944  0.00  0.00    +0.004 C 
ENDBRANCH  14  15
ENDBRANCH  13  14
ENDBRANCH  12  13
ENDBRANCH  11  12
ENDBRANCH  10  11
ENDBRANCH   9  10
ENDBRANCH   8   9
ENDBRANCH   7   8
ENDBRANCH   6   7
ENDBRANCH   4   6
ENDBRANCH   1   2
BRANCH   1  17
ATOM     17  C   UNL     1       5.337  -3.576  23.376  0.00  0.00    +0.024 C 
BRANCH  17  18
ATOM     18  C   UNL     1       5.127  -4.878  22.596  0.00  0.00    +0.002 C 
BRANCH  18  19
ATOM     19  C   UNL     1       6.178  -5.054  21.499  0.00  0.00    -0.003 C 
ATOM     20  C   UNL     1       7.193  -6.118  21.882  0.00  0.00    +0.004 C 
ENDBRANCH  18  19
ENDBRANCH  17  18
ENDBRANCH   1  17
BRANCH   1  21
ATOM     21  C   UNL     1       5.991  -3.290  25.853  0.00  0.00    +0.194 C 
BRANCH  21  22
ATOM     22  O   UNL     1       6.908  -3.766  26.821  0.00  0.00    -0.285 OA
BRANCH  22  23
ATOM     23  P   UNL     1       6.840  -5.318  27.209  0.00  0.00    +0.475 P 
ATOM     24  O   UNL     1       5.962  -6.175  26.363  0.00  0.00    -0.227 OA
BRANCH  23  25
ATOM     25  O   UNL     1       8.377  -5.773  27.147  0.00  0.00    -0.302 OA
ATOM     26  H   UNL     1       8.552  -6.446  27.833  0.00  0.00    +0.222 HD
ENDBRANCH  23  25
BRANCH  23  27
ATOM     27  O   UNL     1       6.538  -5.337  28.783  0.00  0.00    -0.284 OA
BRANCH  27  28
ATOM     28  C   UNL     1       5.203  -5.143  29.230  0.00  0.00    +0.200 C 
BRANCH  28  29
ATOM     29  C   UNL     1       4.597  -6.411  29.824  0.00  0.00    +0.184 C 
BRANCH  29  30
ATOM     30  O   UNL     1       4.571  -7.450  28.849  0.00  0.00    -0.393 OA
ATOM     31  H   UNL     1       5.473  -7.501  28.478  0.00  0.00    +0.209 HD
ENDBRANCH  29  30
ENDBRANCH  28  29
ENDBRANCH  27  28
ENDBRANCH  23  27
ENDBRANCH  22  23
ENDBRANCH  21  22
ENDBRANCH   1  21
TORSDOF 22
ENDMDL
MODEL 5
REMARK VINA RESULT:      -5.4      2.213      3.704
REMARK  Name = 
REMARK  24 active torsions:
REMARK  status: ('A' for Active; 'I' for Inactive)
REMARK    1  A    between atoms: C_2  and  C_3
REMARK    2  A    between atoms: C_2  and  C_7
REMARK    3  A    between atoms: C_2  and  N_16
REMARK    4  A    between atoms: C_3  and  C_4
REMARK    5  A    between atoms: C_4  and  C_5
REMARK    6  A    between atoms: C_5  and  C_6
REMARK    7  A    between atoms: C_7  and  O_8
REMARK    8  A    between atoms: O_8  and  P_9
REMARK    9  A    between atoms: P_9  and  O_10
REMARK   10  A    between atoms: P_9  and  O_12
REMARK   11  A    between atoms: O_12  and  C_13
REMARK   12  A    between atoms: C_13  and  C_14
REMARK   13  A    between atoms: C_14  and  O_15
REMARK   14  A    between atoms: C_17  and  C_19
REMARK   15  A    between atoms: C_19  and  C_20
REMARK   16  A    between atoms: C_20  and  C_21
REMARK   17  A    between atoms: C_21  and  C_22
REMARK   18  A    between atoms: C_22  and  C_23
REMARK   19  A    between atoms: C_23  and  C_24
REMARK   20  A    between atoms: C_24  and  C_25
REMARK   21  A    between atoms: C_25  and  C_26
REMARK   22  A    between atoms: C_26  and  C_27
REMARK   23  A    between atoms: C_27  and  C_28
REMARK   24  A    between atoms: C_28  and  C_29
REMARK                            x       y       z     vdW  Elec       q    Type
REMARK                         _______ _______ _______ _____ _____    ______ ____
ROOT
ATOM      1  C   UNL     1       7.348  -4.548  25.470  0.00  0.00    +0.099 C 
ENDROOT
BRANCH   1   2
ATOM      2  N   UNL     1       8.058  -3.430  24.858  0.00  0.00    -0.310 N 
ATOM      3  H   UNL     1       7.522  -2.635  24.535  0.00  0.00    +0.149 HD
ATOM      4  C   UNL     1       9.373  -3.530  24.468  0.00  0.00    +0.213 C 
ATOM      5  O   UNL     1      10.064  -4.529  24.637  0.00  0.00    -0.276 OA
BRANCH   4   6
ATOM      6  C   UNL     1       9.926  -2.253  23.882  0.00  0.00    +0.096 C 
BRANCH   6   7
ATOM      7  C   UNL     1       9.147  -1.892  22.621  0.00  0.00    +0.009 C 
BRANCH   7   8
ATOM      8  C   UNL     1       9.922  -0.905  21.755  0.00  0.00    +0.000 C 
BRANCH   8   9
ATOM      9  C   UNL     1       9.062   0.313  21.427  0.00  0.00    +0.000 C 
BRANCH   9  10
ATOM     10  C   UNL     1       9.730   1.599  21.902  0.00  0.00    +0.000 C 
BRANCH  10  11
ATOM     11  C   UNL     1      10.390   1.399  23.264  0.00  0.00    +0.000 C 
BRANCH  11  12
ATOM     12  C   UNL     1       9.885   2.434  24.265  0.00  0.00    -0.000 C 
BRANCH  12  13
ATOM     13  C   UNL     1       8.392   2.266  24.526  0.00  0.00    -0.000 C 
BRANCH  13  14
ATOM     14  C   UNL     1       8.103   0.902  25.151  0.00  0.00    -0.000 C 
BRANCH  14  15
ATOM     15  C   UNL     1       6.602   0.659  25.281  0.00  0.00    -0.003 C 
ATOM     16  C   UNL     1       6.157  -0.501  24.405  0.00  0.00    +0.004 C 
ENDBRANCH  14  15
ENDBRANCH  13  14
ENDBRANCH  12  13
ENDBRANCH  11  12
ENDBRANCH  10  11
ENDBRANCH   9  10
ENDBRANCH   8   9
ENDBRANCH   7   8
ENDBRANCH   6   7
ENDBRANCH   4   6
ENDBRANCH   1   2
BRANCH   1  17
ATOM     17  C   UNL     1       6.306  -5.149  24.505  0.00  0.00    +0.024 C 
BRANCH  17  18
ATOM     18  C   UNL     1       5.991  -4.266  23.293  0.00  0.00    +0.002 C 
BRANCH  18  19
ATOM     19  C   UNL     1       6.723  -4.747  22.040  0.00  0.00    -0.003 C 
ATOM     20  C   UNL     1       6.683  -6.263  21.932  0.00  0.00    +0.004 C 
ENDBRANCH  18  19
ENDBRANCH  17  18
ENDBRANCH   1  17
BRANCH   1  21
ATOM     21  C   UNL     1       6.766  -4.113  26.820  0.00  0.00    +0.194 C 
BRANCH  21  22
ATOM     22  O   UNL     1       7.098  -5.040  27.837  0.00  0.00    -0.285 OA
BRANCH  22  23
ATOM     23  P   UNL     1       5.903  -5.874  28.501  0.00  0.00    +0.475 P 
ATOM     24  O   UNL     1       5.585  -7.189  27.875  0.00  0.00    -0.227 OA
BRANCH  23  25
ATOM     25  O   UNL     1       6.373  -6.025  30.027  0.00  0.00    -0.302 OA
ATOM     26  H   UNL     1       5.592  -6.109  30.609  0.00  0.00    +0.222 HD
ENDBRANCH  23  25
BRANCH  23  27
ATOM     27  O   UNL     1       4.689  -4.835  28.615  0.00  0.00    -0.284 OA
BRANCH  27  28
ATOM     28  C   UNL     1       3.380  -5.266  28.266  0.00  0.00    +0.200 C 
BRANCH  28  29
ATOM     29  C   UNL     1       3.064  -5.037  26.791  0.00  0.00    +0.184 C 
BRANCH  29  30
ATOM     30  O   UNL     1       3.252  -6.241  26.053  0.00  0.00    -0.393 OA
ATOM     31  H   UNL     1       2.483  -6.809  26.253  0.00  0.00    +0.209 HD
ENDBRANCH  29  30
ENDBRANCH  28  29
ENDBRANCH  27  28
ENDBRANCH  23  27
ENDBRANCH  22  23
ENDBRANCH  21  22
ENDBRANCH   1  21
TORSDOF 22
ENDMDL
MODEL 6
REMARK VINA RESULT:      -5.3      3.372      8.143
REMARK  Name = 
REMARK  24 active torsions:
REMARK  status: ('A' for Active; 'I' for Inactive)
REMARK    1  A    between atoms: C_2  and  C_3
REMARK    2  A    between atoms: C_2  and  C_7
REMARK    3  A    between atoms: C_2  and  N_16
REMARK    4  A    between atoms: C_3  and  C_4
REMARK    5  A    between atoms: C_4  and  C_5
REMARK    6  A    between atoms: C_5  and  C_6
REMARK    7  A    between atoms: C_7  and  O_8
REMARK    8  A    between atoms: O_8  and  P_9
REMARK    9  A    between atoms: P_9  and  O_10
REMARK   10  A    between atoms: P_9  and  O_12
REMARK   11  A    between atoms: O_12  and  C_13
REMARK   12  A    between atoms: C_13  and  C_14
REMARK   13  A    between atoms: C_14  and  O_15
REMARK   14  A    between atoms: C_17  and  C_19
REMARK   15  A    between atoms: C_19  and  C_20
REMARK   16  A    between atoms: C_20  and  C_21
REMARK   17  A    between atoms: C_21  and  C_22
REMARK   18  A    between atoms: C_22  and  C_23
REMARK   19  A    between atoms: C_23  and  C_24
REMARK   20  A    between atoms: C_24  and  C_25
REMARK   21  A    between atoms: C_25  and  C_26
REMARK   22  A    between atoms: C_26  and  C_27
REMARK   23  A    between atoms: C_27  and  C_28
REMARK   24  A    between atoms: C_28  and  C_29
REMARK                            x       y       z     vdW  Elec       q    Type
REMARK                         _______ _______ _______ _____ _____    ______ ____
ROOT
ATOM      1  C   UNL     1       9.303  -0.771  25.314  0.00  0.00    +0.099 C 
ENDROOT
BRANCH   1   2
ATOM      2  N   UNL     1       8.558  -1.441  24.253  0.00  0.00    -0.310 N 
ATOM      3  H   UNL     1       7.592  -1.179  24.101  0.00  0.00    +0.149 HD
ATOM      4  C   UNL     1       9.027  -2.580  23.642  0.00  0.00    +0.213 C 
ATOM      5  O   UNL     1      10.110  -3.097  23.895  0.00  0.00    -0.276 OA
BRANCH   4   6
ATOM      6  C   UNL     1       8.116  -3.098  22.554  0.00  0.00    +0.096 C 
BRANCH   6   7
ATOM      7  C   UNL     1       6.731  -2.482  22.713  0.00  0.00    +0.009 C 
BRANCH   7   8
ATOM      8  C   UNL     1       5.660  -3.354  22.066  0.00  0.00    +0.000 C 
BRANCH   8   9
ATOM      9  C   UNL     1       6.284  -4.598  21.441  0.00  0.00    +0.000 C 
BRANCH   9  10
ATOM     10  C   UNL     1       5.609  -5.866  21.953  0.00  0.00    +0.000 C 
BRANCH  10  11
ATOM     11  C   UNL     1       4.638  -5.546  23.087  0.00  0.00    +0.000 C 
BRANCH  11  12
ATOM     12  C   UNL     1       5.156  -6.096  24.412  0.00  0.00    -0.000 C 
BRANCH  12  13
ATOM     13  C   UNL     1       5.727  -4.983  25.285  0.00  0.00    -0.000 C 
BRANCH  13  14
ATOM     14  C   UNL     1       7.218  -5.201  25.532  0.00  0.00    -0.000 C 
BRANCH  14  15
ATOM     15  C   UNL     1       7.535  -5.226  27.024  0.00  0.00    -0.003 C 
ATOM     16  C   UNL     1       6.265  -5.331  27.853  0.00  0.00    +0.004 C 
ENDBRANCH  14  15
ENDBRANCH  13  14
ENDBRANCH  12  13
ENDBRANCH  11  12
ENDBRANCH  10  11
ENDBRANCH   9  10
ENDBRANCH   8   9
ENDBRANCH   7   8
ENDBRANCH   6   7
ENDBRANCH   4   6
ENDBRANCH   1   2
BRANCH   1  17
ATOM     17  C   UNL     1       8.398  -0.445  26.519  0.00  0.00    +0.024 C 
BRANCH  17  18
ATOM     18  C   UNL     1       6.898  -0.473  26.202  0.00  0.00    +0.002 C 
BRANCH  18  19
ATOM     19  C   UNL     1       6.211  -1.682  26.839  0.00  0.00    -0.003 C 
ATOM     20  C   UNL     1       4.979  -1.259  27.622  0.00  0.00    +0.004 C 
ENDBRANCH  18  19
ENDBRANCH  17  18
ENDBRANCH   1  17
BRANCH   1  21
ATOM     21  C   UNL     1      10.037   0.446  24.740  0.00  0.00    +0.194 C 
BRANCH  21  22
ATOM     22  O   UNL     1       9.330   0.992  23.641  0.00  0.00    -0.285 OA
BRANCH  22  23
ATOM     23  P   UNL     1       9.827   2.401  23.065  0.00  0.00    +0.475 P 
ATOM     24  O   UNL     1      11.098   2.938  23.631  0.00  0.00    -0.227 OA
BRANCH  23  25
ATOM     25  O   UNL     1       9.931   2.130  21.488  0.00  0.00    -0.302 OA
ATOM     26  H   UNL     1       9.703   1.200  21.295  0.00  0.00    +0.222 HD
ENDBRANCH  23  25
BRANCH  23  27
ATOM     27  O   UNL     1       8.550   3.363  23.167  0.00  0.00    -0.284 OA
BRANCH  27  28
ATOM     28  C   UNL     1       7.342   2.847  23.709  0.00  0.00    +0.200 C 
BRANCH  28  29
ATOM     29  C   UNL     1       6.364   2.393  22.630  0.00  0.00    +0.184 C 
BRANCH  29  30
ATOM     30  O   UNL     1       6.397   0.975  22.498  0.00  0.00    -0.393 OA
ATOM     31  H   UNL     1       7.322   0.705  22.662  0.00  0.00    +0.209 HD
ENDBRANCH  29  30
ENDBRANCH  28  29
ENDBRANCH  27  28
ENDBRANCH  23  27
ENDBRANCH  22  23
ENDBRANCH  21  22
ENDBRANCH   1  21
TORSDOF 22
ENDMDL
MODEL 7
REMARK VINA RESULT:      -5.3      1.416      2.392
REMARK  Name = 
REMARK  24 active torsions:
REMARK  status: ('A' for Active; 'I' for Inactive)
REMARK    1  A    between atoms: C_2  and  C_3
REMARK    2  A    between atoms: C_2  and  C_7
REMARK    3  A    between atoms: C_2  and  N_16
REMARK    4  A    between atoms: C_3  and  C_4
REMARK    5  A    between atoms: C_4  and  C_5
REMARK    6  A    between atoms: C_5  and  C_6
REMARK    7  A    between atoms: C_7  and  O_8
REMARK    8  A    between atoms: O_8  and  P_9
REMARK    9  A    between atoms: P_9  and  O_10
REMARK   10  A    between atoms: P_9  and  O_12
REMARK   11  A    between atoms: O_12  and  C_13
REMARK   12  A    between atoms: C_13  and  C_14
REMARK   13  A    between atoms: C_14  and  O_15
REMARK   14  A    between atoms: C_17  and  C_19
REMARK   15  A    between atoms: C_19  and  C_20
REMARK   16  A    between atoms: C_20  and  C_21
REMARK   17  A    between atoms: C_21  and  C_22
REMARK   18  A    between atoms: C_22  and  C_23
REMARK   19  A    between atoms: C_23  and  C_24
REMARK   20  A    between atoms: C_24  and  C_25
REMARK   21  A    between atoms: C_25  and  C_26
REMARK   22  A    between atoms: C_26  and  C_27
REMARK   23  A    between atoms: C_27  and  C_28
REMARK   24  A    between atoms: C_28  and  C_29
REMARK                            x       y       z     vdW  Elec       q    Type
REMARK                         _______ _______ _______ _____ _____    ______ ____
ROOT
ATOM      1  C   UNL     1       7.267  -2.690  23.685  0.00  0.00    +0.099 C 
ENDROOT
BRANCH   1   2
ATOM      2  N   UNL     1       8.250  -1.676  23.320  0.00  0.00    -0.310 N 
ATOM      3  H   UNL     1       7.936  -0.859  22.811  0.00  0.00    +0.149 HD
ATOM      4  C   UNL     1       9.602  -1.911  23.403  0.00  0.00    +0.213 C 
ATOM      5  O   UNL     1      10.093  -2.953  23.824  0.00  0.00    -0.276 OA
BRANCH   4   6
ATOM      6  C   UNL     1      10.445  -0.723  23.003  0.00  0.00    +0.096 C 
BRANCH   6   7
ATOM      7  C   UNL     1       9.776   0.012  21.847  0.00  0.00    +0.009 C 
BRANCH   7   8
ATOM      8  C   UNL     1       9.951   1.521  21.973  0.00  0.00    +0.000 C 
BRANCH   8   9
ATOM      9  C   UNL     1      10.301   1.903  23.409  0.00  0.00    +0.000 C 
BRANCH   9  10
ATOM     10  C   UNL     1      10.399   3.417  23.564  0.00  0.00    +0.000 C 
BRANCH  10  11
ATOM     11  C   UNL     1       9.160   3.975  24.260  0.00  0.00    +0.000 C 
BRANCH  11  12
ATOM     12  C   UNL     1       8.407   4.930  23.339  0.00  0.00    -0.000 C 
BRANCH  12  13
ATOM     13  C   UNL     1       6.943   5.053  23.749  0.00  0.00    -0.000 C 
BRANCH  13  14
ATOM     14  C   UNL     1       6.336   3.674  24.005  0.00  0.00    -0.000 C 
BRANCH  14  15
ATOM     15  C   UNL     1       6.124   2.911  22.701  0.00  0.00    -0.003 C 
ATOM     16  C   UNL     1       6.480   1.442  22.862  0.00  0.00    +0.004 C 
ENDBRANCH  14  15
ENDBRANCH  13  14
ENDBRANCH  12  13
ENDBRANCH  11  12
ENDBRANCH  10  11
ENDBRANCH   9  10
ENDBRANCH   8   9
ENDBRANCH   7   8
ENDBRANCH   6   7
ENDBRANCH   4   6
ENDBRANCH   1   2
BRANCH   1  17
ATOM     17  C   UNL     1       6.045  -2.654  22.745  0.00  0.00    +0.024 C 
BRANCH  17  18
ATOM     18  C   UNL     1       5.995  -3.806  21.736  0.00  0.00    +0.002 C 
BRANCH  18  19
ATOM     19  C   UNL     1       7.081  -4.846  22.014  0.00  0.00    -0.003 C 
ATOM     20  C   UNL     1       6.525  -6.257  21.904  0.00  0.00    +0.004 C 
ENDBRANCH  18  19
ENDBRANCH  17  18
ENDBRANCH   1  17
BRANCH   1  21
ATOM     21  C   UNL     1       6.913  -2.556  25.170  0.00  0.00    +0.194 C 
BRANCH  21  22
ATOM     22  O   UNL     1       6.681  -3.826  25.752  0.00  0.00    -0.285 OA
BRANCH  22  23
ATOM     23  P   UNL     1       7.958  -4.679  26.206  0.00  0.00    +0.475 P 
ATOM     24  O   UNL     1       8.534  -5.603  25.188  0.00  0.00    -0.227 OA
BRANCH  23  25
ATOM     25  O   UNL     1       9.003  -3.550  26.662  0.00  0.00    -0.302 OA
ATOM     26  H   UNL     1       9.877  -3.726  26.263  0.00  0.00    +0.222 HD
ENDBRANCH  23  25
BRANCH  23  27
ATOM     27  O   UNL     1       7.536  -5.342  27.602  0.00  0.00    -0.284 OA
BRANCH  27  28
ATOM     28  C   UNL     1       6.176  -5.285  28.007  0.00  0.00    +0.200 C 
BRANCH  28  29
ATOM     29  C   UNL     1       5.875  -6.219  29.176  0.00  0.00    +0.184 C 
BRANCH  29  30
ATOM     30  O   UNL     1       6.668  -7.399  29.082  0.00  0.00    -0.393 OA
ATOM     31  H   UNL     1       7.525  -7.188  29.502  0.00  0.00    +0.209 HD
ENDBRANCH  29  30
ENDBRANCH  28  29
ENDBRANCH  27  28
ENDBRANCH  23  27
ENDBRANCH  22  23
ENDBRANCH  21  22
ENDBRANCH   1  21
TORSDOF 22
ENDMDL
MODEL 8
REMARK VINA RESULT:      -5.3      4.455      9.632
REMARK  Name = 
REMARK  24 active torsions:
REMARK  status: ('A' for Active; 'I' for Inactive)
REMARK    1  A    between atoms: C_2  and  C_3
REMARK    2  A    between atoms: C_2  and  C_7
REMARK    3  A    between atoms: C_2  and  N_16
REMARK    4  A    between atoms: C_3  and  C_4
REMARK    5  A    between atoms: C_4  and  C_5
REMARK    6  A    between atoms: C_5  and  C_6
REMARK    7  A    between atoms: C_7  and  O_8
REMARK    8  A    between atoms: O_8  and  P_9
REMARK    9  A    between atoms: P_9  and  O_10
REMARK   10  A    between atoms: P_9  and  O_12
REMARK   11  A    between atoms: O_12  and  C_13
REMARK   12  A    between atoms: C_13  and  C_14
REMARK   13  A    between atoms: C_14  and  O_15
REMARK   14  A    between atoms: C_17  and  C_19
REMARK   15  A    between atoms: C_19  and  C_20
REMARK   16  A    between atoms: C_20  and  C_21
REMARK   17  A    between atoms: C_21  and  C_22
REMARK   18  A    between atoms: C_22  and  C_23
REMARK   19  A    between atoms: C_23  and  C_24
REMARK   20  A    between atoms: C_24  and  C_25
REMARK   21  A    between atoms: C_25  and  C_26
REMARK   22  A    between atoms: C_26  and  C_27
REMARK   23  A    between atoms: C_27  and  C_28
REMARK   24  A    between atoms: C_28  and  C_29
REMARK                            x       y       z     vdW  Elec       q    Type
REMARK                         _______ _______ _______ _____ _____    ______ ____
ROOT
ATOM      1  C   UNL     1       8.498   1.630  23.738  0.00  0.00    +0.099 C 
ENDROOT
BRANCH   1   2
ATOM      2  N   UNL     1       8.277   0.727  24.862  0.00  0.00    -0.310 N 
ATOM      3  H   UNL     1       8.942   0.734  25.626  0.00  0.00    +0.149 HD
ATOM      4  C   UNL     1       7.367  -0.302  24.801  0.00  0.00    +0.213 C 
ATOM      5  O   UNL     1       6.643  -0.520  23.835  0.00  0.00    -0.276 OA
BRANCH   4   6
ATOM      6  C   UNL     1       7.274  -1.100  26.079  0.00  0.00    +0.096 C 
BRANCH   6   7
ATOM      7  C   UNL     1       8.513  -1.976  26.225  0.00  0.00    +0.009 C 
BRANCH   7   8
ATOM      8  C   UNL     1       8.164  -3.455  26.101  0.00  0.00    +0.000 C 
BRANCH   8   9
ATOM      9  C   UNL     1       9.093  -4.145  25.105  0.00  0.00    +0.000 C 
BRANCH   9  10
ATOM     10  C   UNL     1       8.298  -4.953  24.084  0.00  0.00    +0.000 C 
BRANCH  10  11
ATOM     11  C   UNL     1       7.634  -4.034  23.061  0.00  0.00    +0.000 C 
BRANCH  11  12
ATOM     12  C   UNL     1       6.925  -4.850  21.985  0.00  0.00    -0.000 C 
BRANCH  12  13
ATOM     13  C   UNL     1       5.922  -5.821  22.600  0.00  0.00    -0.000 C 
BRANCH  13  14
ATOM     14  C   UNL     1       4.654  -5.087  23.031  0.00  0.00    -0.000 C 
BRANCH  14  15
ATOM     15  C   UNL     1       3.490  -6.055  23.222  0.00  0.00    -0.003 C 
ATOM     16  C   UNL     1       2.169  -5.310  23.325  0.00  0.00    +0.004 C 
ENDBRANCH  14  15
ENDBRANCH  13  14
ENDBRANCH  12  13
ENDBRANCH  11  12
ENDBRANCH  10  11
ENDBRANCH   9  10
ENDBRANCH   8   9
ENDBRANCH   7   8
ENDBRANCH   6   7
ENDBRANCH   4   6
ENDBRANCH   1   2
BRANCH   1  17
ATOM     17  C   UNL     1       9.773   1.253  22.955  0.00  0.00    +0.024 C 
BRANCH  17  18
ATOM     18  C   UNL     1       9.504   0.638  21.578  0.00  0.00    +0.002 C 
BRANCH  18  19
ATOM     19  C   UNL     1       9.353  -0.882  21.659  0.00  0.00    -0.003 C 
ATOM     20  C   UNL     1      10.321  -1.473  22.671  0.00  0.00    +0.004 C 
ENDBRANCH  18  19
ENDBRANCH  17  18
ENDBRANCH   1  17
BRANCH   1  21
ATOM     21  C   UNL     1       8.478   3.082  24.229  0.00  0.00    +0.194 C 
BRANCH  21  22
ATOM     22  O   UNL     1       9.459   3.856  23.564  0.00  0.00    -0.285 OA
BRANCH  22  23
ATOM     23  P   UNL     1       9.540   5.415  23.919  0.00  0.00    +0.475 P 
ATOM     24  O   UNL     1       8.675   6.324  23.113  0.00  0.00    -0.227 OA
BRANCH  23  25
ATOM     25  O   UNL     1       9.171   5.450  25.479  0.00  0.00    -0.302 OA
ATOM     26  H   UNL     1       9.075   6.376  25.777  0.00  0.00    +0.222 HD
ENDBRANCH  23  25
BRANCH  23  27
ATOM     27  O   UNL     1      11.105   5.756  23.926  0.00  0.00    -0.284 OA
BRANCH  27  28
ATOM     28  C   UNL     1      12.019   4.804  23.399  0.00  0.00    +0.200 C 
BRANCH  28  29
ATOM     29  C   UNL     1      13.127   5.452  22.574  0.00  0.00    +0.184 C 
BRANCH  29  30
ATOM     30  O   UNL     1      14.404   5.104  23.102  0.00  0.00    -0.393 OA
ATOM     31  H   UNL     1      14.243   4.748  23.998  0.00  0.00    +0.209 HD
ENDBRANCH  29  30
ENDBRANCH  28  29
ENDBRANCH  27  28
ENDBRANCH  23  27
ENDBRANCH  22  23
ENDBRANCH  21  22
ENDBRANCH   1  21
TORSDOF 22
ENDMDL
MODEL 9
REMARK VINA RESULT:      -5.3      2.187      3.018
REMARK  Name = 
REMARK  24 active torsions:
REMARK  status: ('A' for Active; 'I' for Inactive)
REMARK    1  A    between atoms: C_2  and  C_3
REMARK    2  A    between atoms: C_2  and  C_7
REMARK    3  A    between atoms: C_2  and  N_16
REMARK    4  A    between atoms: C_3  and  C_4
REMARK    5  A    between atoms: C_4  and  C_5
REMARK    6  A    between atoms: C_5  and  C_6
REMARK    7  A    between atoms: C_7  and  O_8
REMARK    8  A    between atoms: O_8  and  P_9
REMARK    9  A    between atoms: P_9  and  O_10
REMARK   10  A    between atoms: P_9  and  O_12
REMARK   11  A    between atoms: O_12  and  C_13
REMARK   12  A    between atoms: C_13  and  C_14
REMARK   13  A    between atoms: C_14  and  O_15
REMARK   14  A    between atoms: C_17  and  C_19
REMARK   15  A    between atoms: C_19  and  C_20
REMARK   16  A    between atoms: C_20  and  C_21
REMARK   17  A    between atoms: C_21  and  C_22
REMARK   18  A    between atoms: C_22  and  C_23
REMARK   19  A    between atoms: C_23  and  C_24
REMARK   20  A    between atoms: C_24  and  C_25
REMARK   21  A    between atoms: C_25  and  C_26
REMARK   22  A    between atoms: C_26  and  C_27
REMARK   23  A    between atoms: C_27  and  C_28
REMARK   24  A    between atoms: C_28  and  C_29
REMARK                            x       y       z     vdW  Elec       q    Type
REMARK                         _______ _______ _______ _____ _____    ______ ____
ROOT
ATOM      1  C   UNL     1       7.802  -1.647  24.689  0.00  0.00    +0.099 C 
ENDROOT
BRANCH   1   2
ATOM      2  N   UNL     1       8.787  -0.575  24.778  0.00  0.00    -0.310 N 
ATOM      3  H   UNL     1       8.495   0.320  25.150  0.00  0.00    +0.149 HD
ATOM      4  C   UNL     1      10.003  -0.650  24.141  0.00  0.00    +0.213 C 
ATOM      5  O   UNL     1      10.379  -1.621  23.493  0.00  0.00    -0.276 OA
BRANCH   4   6
ATOM      6  C   UNL     1      10.884   0.553  24.383  0.00  0.00    +0.096 C 
BRANCH   6   7
ATOM      7  C   UNL     1      10.123   1.824  24.023  0.00  0.00    +0.009 C 
BRANCH   7   8
ATOM      8  C   UNL     1      10.151   2.081  22.521  0.00  0.00    +0.000 C 
BRANCH   8   9
ATOM      9  C   UNL     1       8.736   2.086  21.950  0.00  0.00    +0.000 C 
BRANCH   9  10
ATOM     10  C   UNL     1       7.720   2.502  23.008  0.00  0.00    +0.000 C 
BRANCH  10  11
ATOM     11  C   UNL     1       6.660   3.427  22.412  0.00  0.00    +0.000 C 
BRANCH  11  12
ATOM     12  C   UNL     1       7.220   4.833  22.217  0.00  0.00    -0.000 C 
BRANCH  12  13
ATOM     13  C   UNL     1       7.768   5.395  23.525  0.00  0.00    -0.000 C 
BRANCH  13  14
ATOM     14  C   UNL     1       9.093   6.117  23.289  0.00  0.00    -0.000 C 
BRANCH  14  15
ATOM     15  C   UNL     1      10.185   5.590  24.215  0.00  0.00    -0.003 C 
ATOM     16  C   UNL     1      11.536   5.579  23.518  0.00  0.00    +0.004 C 
ENDBRANCH  14  15
ENDBRANCH  13  14
ENDBRANCH  12  13
ENDBRANCH  11  12
ENDBRANCH  10  11
ENDBRANCH   9  10
ENDBRANCH   8   9
ENDBRANCH   7   8
ENDBRANCH   6   7
ENDBRANCH   4   6
ENDBRANCH   1   2
BRANCH   1  17
ATOM     17  C   UNL     1       6.440  -1.121  24.191  0.00  0.00    +0.024 C 
BRANCH  17  18
ATOM     18  C   UNL     1       5.521  -0.609  25.305  0.00  0.00    +0.002 C 
BRANCH  18  19
ATOM     19  C   UNL     1       5.430   0.917  25.303  0.00  0.00    -0.003 C 
ATOM     20  C   UNL     1       6.302   1.517  26.394  0.00  0.00    +0.004 C 
ENDBRANCH  18  19
ENDBRANCH  17  18
ENDBRANCH   1  17
BRANCH   1  21
ATOM     21  C   UNL     1       7.728  -2.394  26.025  0.00  0.00    +0.194 C 
BRANCH  21  22
ATOM     22  O   UNL     1       8.755  -3.364  26.122  0.00  0.00    -0.285 OA
BRANCH  22  23
ATOM     23  P   UNL     1       8.339  -4.903  25.976  0.00  0.00    +0.475 P 
ATOM     24  O   UNL     1       7.406  -5.235  24.862  0.00  0.00    -0.227 OA
BRANCH  23  25
ATOM     25  O   UNL     1       9.752  -5.647  25.828  0.00  0.00    -0.302 OA
ATOM     26  H   UNL     1       9.843  -6.329  26.521  0.00  0.00    +0.222 HD
ENDBRANCH  23  25
BRANCH  23  27
ATOM     27  O   UNL     1       7.869  -5.344  27.443  0.00  0.00    -0.284 OA
BRANCH  27  28
ATOM     28  C   UNL     1       6.478  -5.452  27.716  0.00  0.00    +0.200 C 
BRANCH  28  29
ATOM     29  C   UNL     1       6.185  -6.375  28.896  0.00  0.00    +0.184 C 
BRANCH  29  30
ATOM     30  O   UNL     1       6.252  -5.648  30.119  0.00  0.00    -0.393 OA
ATOM     31  H   UNL     1       6.271  -4.702  29.876  0.00  0.00    +0.209 HD
ENDBRANCH  29  30
ENDBRANCH  28  29
ENDBRANCH  27  28
ENDBRANCH  23  27
ENDBRANCH  22  23
ENDBRANCH  21  22
ENDBRANCH   1  21
TORSDOF 22
ENDMDL
