MODEL 1
REMARK VINA RESULT:      -6.8      0.000      0.000
REMARK  Name = 
REMARK  17 active torsions:
REMARK  status: ('A' for Active; 'I' for Inactive)
REMARK    1  A    between atoms: C_1  and  C_2
REMARK    2  A    between atoms: C_2  and  C_3
REMARK    3  A    between atoms: C_2  and  C_4
REMARK    4  A    between atoms: C_2  and  N_5
REMARK    5  A    between atoms: C_6  and  C_8
REMARK    6  A    between atoms: N_18  and  C_19
REMARK    7  A    between atoms: C_19  and  C_20
REMARK    8  A    between atoms: C_20  and  O_22
REMARK    9  A    between atoms: C_20  and  C_23
REMARK   10  A    between atoms: C_23  and  C_25
REMARK   11  A    between atoms: C_23  and  N_32
REMARK   12  A    between atoms: C_25  and  C_26
REMARK   13  A    between atoms: C_33  and  C_35
REMARK   14  A    between atoms: C_35  and  C_37
REMARK   15  A    between atoms: C_35  and  N_41
REMARK   16  A    between atoms: C_37  and  C_38
REMARK   17  A    between atoms: C_42  and  C_44
REMARK                            x       y       z     vdW  Elec       q    Type
REMARK                         _______ _______ _______ _____ _____    ______ ____
ROOT
ATOM      1  C   UNL     1       8.072   1.324  25.451  0.00  0.00    +0.107 C 
ENDROOT
BRANCH   1   2
ATOM      2  N   UNL     1       8.505  -0.018  24.996  0.00  0.00    -0.308 N 
ATOM      3  H   UNL     1       7.790  -0.731  24.928  0.00  0.00    +0.149 HD
ATOM      4  C   UNL     1       9.819  -0.318  24.683  0.00  0.00    +0.234 C 
ATOM      5  O   UNL     1      10.722   0.516  24.733  0.00  0.00    -0.274 OA
BRANCH   4   6
ATOM      6  C   UNL     1      10.085  -1.785  24.254  0.00  0.00    +0.168 C 
BRANCH   6   7
ATOM      7  N   UNL     1       8.971  -2.653  24.652  0.00  0.00    -0.298 N 
ATOM      8  H   UNL     1       8.057  -2.226  24.806  0.00  0.00    +0.150 HD
ATOM      9  C   UNL     1       9.123  -3.986  24.970  0.00  0.00    +0.263 C 
ATOM     10  O   UNL     1      10.193  -4.575  24.860  0.00  0.00    -0.269 OA
BRANCH   9  11
ATOM     11  C   UNL     1       7.888  -4.710  25.415  0.00  0.00    +0.126 A 
ATOM     12  C   UNL     1       7.707  -4.968  26.765  0.00  0.00    +0.033 A 
ATOM     13  C   UNL     1       6.558  -5.639  27.160  0.00  0.00    +0.012 A 
ATOM     14  C   UNL     1       5.614  -6.022  26.194  0.00  0.00    +0.000 A 
ATOM     15  C   UNL     1       5.886  -5.728  24.839  0.00  0.00    +0.072 A 
ATOM     16  C   UNL     1       4.942  -6.112  23.894  0.00  0.00    +0.028 A 
ATOM     17  C   UNL     1       3.756  -6.761  24.253  0.00  0.00    +0.002 A 
ATOM     18  C   UNL     1       3.499  -7.044  25.591  0.00  0.00    +0.001 A 
ATOM     19  C   UNL     1       4.429  -6.682  26.560  0.00  0.00    +0.010 A 
ATOM     20  N   UNL     1       7.008  -5.082  24.442  0.00  0.00    -0.242 NA
ENDBRANCH   9  11
ENDBRANCH   6   7
BRANCH   6  21
ATOM     21  C   UNL     1      10.432  -1.871  22.765  0.00  0.00    +0.127 C 
BRANCH  21  22
ATOM     22  C   UNL     1       9.269  -1.517  21.859  0.00  0.00    +0.213 C 
ATOM     23  O   UNL     1       8.221  -2.152  21.861  0.00  0.00    -0.276 OA
ATOM     24  N   UNL     1       9.443  -0.434  21.061  0.00  0.00    -0.329 N 
ATOM     25  H   UNL     1       8.683  -0.163  20.453  0.00  0.00    +0.145 HD
ATOM     26  H   UNL     1      10.277   0.135  21.085  0.00  0.00    +0.145 HD
ENDBRANCH  21  22
ENDBRANCH   6  21
ENDBRANCH   4   6
ENDBRANCH   1   2
BRANCH   1  27
ATOM     27  C   UNL     1       7.440   1.253  26.876  0.00  0.00    +0.149 C 
BRANCH  27  28
ATOM     28  O   UNL     1       8.204   0.358  27.695  0.00  0.00    -0.389 OA
ATOM     29  H   UNL     1       7.563  -0.295  28.036  0.00  0.00    +0.210 HD
ENDBRANCH  27  28
BRANCH  27  30
ATOM     30  C   UNL     1       5.940   0.802  26.818  0.00  0.00    +0.118 C 
BRANCH  30  32
ATOM     31  C   UNL     1       3.569   1.437  27.293  0.00  0.00    +0.143 C 
ATOM     32  N   UNL     1       5.000   1.456  27.775  0.00  0.00    -0.289 NA
ATOM     33  C   UNL     1       5.357   2.889  28.004  0.00  0.00    +0.089 C 
ATOM     34  C   UNL     1       5.254   3.767  26.738  0.00  0.00    +0.006 C 
ATOM     35  C   UNL     1       3.833   3.707  26.152  0.00  0.00    -0.005 C 
ATOM     36  C   UNL     1       3.780   4.470  24.820  0.00  0.00    +0.004 C 
ATOM     37  C   UNL     1       4.217   5.924  25.000  0.00  0.00    +0.000 C 
ATOM     38  C   UNL     1       5.585   6.030  25.674  0.00  0.00    +0.000 C 
ATOM     39  C   UNL     1       5.649   5.233  26.981  0.00  0.00    +0.005 C 
ATOM     40  C   UNL     1       3.356   2.259  25.999  0.00  0.00    +0.032 C 
BRANCH  31  43
ATOM     41  N   UNL     1       3.535  -1.066  27.640  0.00  0.00    -0.309 N 
ATOM     42  H   UNL     1       4.519  -0.943  27.858  0.00  0.00    +0.149 HD
ATOM     43  C   UNL     1       2.877   0.046  27.155  0.00  0.00    +0.231 C 
ATOM     44  O   UNL     1       1.720  -0.029  26.735  0.00  0.00    -0.274 OA
BRANCH  41  46
ATOM     45  C   UNL     1       2.786  -3.017  26.257  0.00  0.00    +0.031 C 
ATOM     46  C   UNL     1       2.941  -2.430  27.673  0.00  0.00    +0.026 C 
ATOM     47  C   UNL     1       3.854  -3.375  28.480  0.00  0.00    +0.031 C 
ATOM     48  C   UNL     1       1.561  -2.433  28.366  0.00  0.00    +0.031 C 
ENDBRANCH  41  46
ENDBRANCH  31  43
ENDBRANCH  30  32
ENDBRANCH  27  30
ENDBRANCH   1  27
BRANCH   1  49
ATOM     49  C   UNL     1       7.112   1.956  24.411  0.00  0.00    +0.060 C 
BRANCH  49  50
ATOM     50  C   UNL     1       7.535   3.335  23.952  0.00  0.00    -0.046 A 
ATOM     51  C   UNL     1       6.913   3.937  22.849  0.00  0.00    +0.004 A 
ATOM     52  C   UNL     1       7.291   5.210  22.425  0.00  0.00    +0.000 A 
ATOM     53  C   UNL     1       8.314   5.886  23.083  0.00  0.00    +0.000 A 
ATOM     54  C   UNL     1       8.963   5.288  24.161  0.00  0.00    +0.000 A 
ATOM     55  C   UNL     1       8.578   4.017  24.594  0.00  0.00    +0.004 A 
ENDBRANCH  49  50
ENDBRANCH   1  49
TORSDOF 14
ENDMDL
MODEL 2
REMARK VINA RESULT:      -6.4      1.420      2.007
REMARK  Name = 
REMARK  17 active torsions:
REMARK  status: ('A' for Active; 'I' for Inactive)
REMARK    1  A    between atoms: C_1  and  C_2
REMARK    2  A    between atoms: C_2  and  C_3
REMARK    3  A    between atoms: C_2  and  C_4
REMARK    4  A    between atoms: C_2  and  N_5
REMARK    5  A    between atoms: C_6  and  C_8
REMARK    6  A    between atoms: N_18  and  C_19
REMARK    7  A    between atoms: C_19  and  C_20
REMARK    8  A    between atoms: C_20  and  O_22
REMARK    9  A    between atoms: C_20  and  C_23
REMARK   10  A    between atoms: C_23  and  C_25
REMARK   11  A    between atoms: C_23  and  N_32
REMARK   12  A    between atoms: C_25  and  C_26
REMARK   13  A    between atoms: C_33  and  C_35
REMARK   14  A    between atoms: C_35  and  C_37
REMARK   15  A    between atoms: C_35  and  N_41
REMARK   16  A    between atoms: C_37  and  C_38
REMARK   17  A    between atoms: C_42  and  C_44
REMARK                            x       y       z     vdW  Elec       q    Type
REMARK                         _______ _______ _______ _____ _____    ______ ____
ROOT
ATOM      1  C   UNL     1       8.381   1.603  25.061  0.00  0.00    +0.107 C 
ENDROOT
BRANCH   1   2
ATOM      2  N   UNL     1       8.737   0.245  24.586  0.00  0.00    -0.308 N 
ATOM      3  H   UNL     1       7.986  -0.317  24.205  0.00  0.00    +0.149 HD
ATOM      4  C   UNL     1      10.021  -0.264  24.658  0.00  0.00    +0.234 C 
ATOM      5  O   UNL     1      10.971   0.383  25.097  0.00  0.00    -0.274 OA
BRANCH   4   6
ATOM      6  C   UNL     1      10.194  -1.716  24.139  0.00  0.00    +0.168 C 
BRANCH   6   7
ATOM      7  N   UNL     1       9.082  -2.562  24.584  0.00  0.00    -0.298 N 
ATOM      8  H   UNL     1       8.193  -2.114  24.812  0.00  0.00    +0.150 HD
ATOM      9  C   UNL     1       9.210  -3.909  24.850  0.00  0.00    +0.263 C 
ATOM     10  O   UNL     1      10.252  -4.527  24.652  0.00  0.00    -0.269 OA
BRANCH   9  11
ATOM     11  C   UNL     1       7.985  -4.610  25.355  0.00  0.00    +0.126 A 
ATOM     12  C   UNL     1       7.806  -4.758  26.722  0.00  0.00    +0.033 A 
ATOM     13  C   UNL     1       6.666  -5.409  27.171  0.00  0.00    +0.012 A 
ATOM     14  C   UNL     1       5.728  -5.883  26.240  0.00  0.00    +0.000 A 
ATOM     15  C   UNL     1       5.997  -5.699  24.865  0.00  0.00    +0.072 A 
ATOM     16  C   UNL     1       5.060  -6.173  23.956  0.00  0.00    +0.028 A 
ATOM     17  C   UNL     1       3.882  -6.806  24.369  0.00  0.00    +0.002 A 
ATOM     18  C   UNL     1       3.628  -6.979  25.725  0.00  0.00    +0.001 A 
ATOM     19  C   UNL     1       4.551  -6.526  26.661  0.00  0.00    +0.010 A 
ATOM     20  N   UNL     1       7.111  -5.074  24.416  0.00  0.00    -0.242 NA
ENDBRANCH   9  11
ENDBRANCH   6   7
BRANCH   6  21
ATOM     21  C   UNL     1      10.419  -1.739  22.625  0.00  0.00    +0.127 C 
BRANCH  21  22
ATOM     22  C   UNL     1       9.170  -1.413  21.830  0.00  0.00    +0.213 C 
ATOM     23  O   UNL     1       8.126  -2.040  21.965  0.00  0.00    -0.276 OA
ATOM     24  N   UNL     1       9.263  -0.363  20.976  0.00  0.00    -0.329 N 
ATOM     25  H   UNL     1       8.445  -0.110  20.439  0.00  0.00    +0.145 HD
ATOM     26  H   UNL     1      10.097   0.201  20.892  0.00  0.00    +0.145 HD
ENDBRANCH  21  22
ENDBRANCH   6  21
ENDBRANCH   4   6
ENDBRANCH   1   2
BRANCH   1  27
ATOM     27  C   UNL     1       7.095   1.567  25.944  0.00  0.00    +0.149 C 
BRANCH  27  28
ATOM     28  O   UNL     1       6.652   0.210  26.090  0.00  0.00    -0.389 OA
ATOM     29  H   UNL     1       6.438   0.107  27.037  0.00  0.00    +0.210 HD
ENDBRANCH  27  28
BRANCH  27  30
ATOM     30  C   UNL     1       5.955   2.455  25.335  0.00  0.00    +0.118 C 
BRANCH  30  32
ATOM     31  C   UNL     1       3.962   3.276  26.601  0.00  0.00    +0.143 C 
ATOM     32  N   UNL     1       5.397   3.530  26.207  0.00  0.00    -0.289 NA
ATOM     33  C   UNL     1       5.428   4.861  25.528  0.00  0.00    +0.089 C 
ATOM     34  C   UNL     1       4.551   4.932  24.259  0.00  0.00    +0.006 C 
ATOM     35  C   UNL     1       3.089   4.588  24.590  0.00  0.00    -0.005 C 
ATOM     36  C   UNL     1       2.257   4.527  23.301  0.00  0.00    +0.004 C 
ATOM     37  C   UNL     1       2.329   5.848  22.536  0.00  0.00    +0.000 C 
ATOM     38  C   UNL     1       3.772   6.279  22.273  0.00  0.00    +0.000 C 
ATOM     39  C   UNL     1       4.612   6.298  23.555  0.00  0.00    +0.005 C 
ATOM     40  C   UNL     1       2.994   3.287  25.394  0.00  0.00    +0.032 C 
BRANCH  31  43
ATOM     41  N   UNL     1       3.634   0.788  26.904  0.00  0.00    -0.309 N 
ATOM     42  H   UNL     1       3.579   0.779  25.891  0.00  0.00    +0.149 HD
ATOM     43  C   UNL     1       3.673   2.034  27.498  0.00  0.00    +0.231 C 
ATOM     44  O   UNL     1       3.607   2.158  28.724  0.00  0.00    -0.274 OA
BRANCH  41  46
ATOM     45  C   UNL     1       2.071  -0.620  28.265  0.00  0.00    +0.031 C 
ATOM     46  C   UNL     1       3.481  -0.485  27.660  0.00  0.00    +0.026 C 
ATOM     47  C   UNL     1       3.708  -1.680  26.713  0.00  0.00    +0.031 C 
ATOM     48  C   UNL     1       4.522  -0.602  28.794  0.00  0.00    +0.031 C 
ENDBRANCH  41  46
ENDBRANCH  31  43
ENDBRANCH  30  32
ENDBRANCH  27  30
ENDBRANCH   1  27
BRANCH   1  49
ATOM     49  C   UNL     1       8.244   2.570  23.858  0.00  0.00    +0.060 C 
BRANCH  49  50
ATOM     50  C   UNL     1       9.342   3.609  23.785  0.00  0.00    -0.046 A 
ATOM     51  C   UNL     1      10.639   3.245  23.395  0.00  0.00    +0.004 A 
ATOM     52  C   UNL     1      11.653   4.197  23.318  0.00  0.00    +0.000 A 
ATOM     53  C   UNL     1      11.390   5.522  23.654  0.00  0.00    +0.000 A 
ATOM     54  C   UNL     1      10.115   5.893  24.074  0.00  0.00    +0.000 A 
ATOM     55  C   UNL     1       9.094   4.942  24.141  0.00  0.00    +0.004 A 
ENDBRANCH  49  50
ENDBRANCH   1  49
TORSDOF 14
ENDMDL
MODEL 3
REMARK VINA RESULT:      -6.4      2.313      6.787
REMARK  Name = 
REMARK  17 active torsions:
REMARK  status: ('A' for Active; 'I' for Inactive)
REMARK    1  A    between atoms: C_1  and  C_2
REMARK    2  A    between atoms: C_2  and  C_3
REMARK    3  A    between atoms: C_2  and  C_4
REMARK    4  A    between atoms: C_2  and  N_5
REMARK    5  A    between atoms: C_6  and  C_8
REMARK    6  A    between atoms: N_18  and  C_19
REMARK    7  A    between atoms: C_19  and  C_20
REMARK    8  A    between atoms: C_20  and  O_22
REMARK    9  A    between atoms: C_20  and  C_23
REMARK   10  A    between atoms: C_23  and  C_25
REMARK   11  A    between atoms: C_23  and  N_32
REMARK   12  A    between atoms: C_25  and  C_26
REMARK   13  A    between atoms: C_33  and  C_35
REMARK   14  A    between atoms: C_35  and  C_37
REMARK   15  A    between atoms: C_35  and  N_41
REMARK   16  A    between atoms: C_37  and  C_38
REMARK   17  A    between atoms: C_42  and  C_44
REMARK                            x       y       z     vdW  Elec       q    Type
REMARK                         _______ _______ _______ _____ _____    ______ ____
ROOT
ATOM      1  C   UNL     1       8.389  -0.792  23.877  0.00  0.00    +0.107 C 
ENDROOT
BRANCH   1   2
ATOM      2  N   UNL     1       8.787   0.615  23.637  0.00  0.00    -0.308 N 
ATOM      3  H   UNL     1       8.390   1.313  24.254  0.00  0.00    +0.149 HD
ATOM      4  C   UNL     1       9.648   0.991  22.622  0.00  0.00    +0.234 C 
ATOM      5  O   UNL     1      10.170   0.181  21.858  0.00  0.00    -0.274 OA
BRANCH   4   6
ATOM      6  C   UNL     1       9.924   2.513  22.509  0.00  0.00    +0.168 C 
BRANCH   6   7
ATOM      7  N   UNL     1       8.688   3.280  22.701  0.00  0.00    -0.298 N 
ATOM      8  H   UNL     1       8.673   4.001  23.424  0.00  0.00    +0.150 HD
ATOM      9  C   UNL     1       7.503   2.985  22.062  0.00  0.00    +0.263 C 
ATOM     10  O   UNL     1       7.410   2.105  21.211  0.00  0.00    -0.269 OA
BRANCH   9  11
ATOM     11  C   UNL     1       6.321   3.834  22.421  0.00  0.00    +0.126 A 
ATOM     12  C   UNL     1       6.474   5.211  22.489  0.00  0.00    +0.033 A 
ATOM     13  C   UNL     1       5.368   5.982  22.822  0.00  0.00    +0.012 A 
ATOM     14  C   UNL     1       4.136   5.355  23.066  0.00  0.00    +0.000 A 
ATOM     15  C   UNL     1       4.074   3.945  22.986  0.00  0.00    +0.072 A 
ATOM     16  C   UNL     1       2.848   3.339  23.229  0.00  0.00    +0.028 A 
ATOM     17  C   UNL     1       1.703   4.082  23.536  0.00  0.00    +0.002 A 
ATOM     18  C   UNL     1       1.776   5.469  23.610  0.00  0.00    +0.001 A 
ATOM     19  C   UNL     1       2.992   6.105  23.383  0.00  0.00    +0.010 A 
ATOM     20  N   UNL     1       5.149   3.184  22.670  0.00  0.00    -0.242 NA
ENDBRANCH   9  11
ENDBRANCH   6   7
BRANCH   6  21
ATOM     21  C   UNL     1      11.064   2.939  23.437  0.00  0.00    +0.127 C 
BRANCH  21  22
ATOM     22  C   UNL     1      11.302   4.436  23.444  0.00  0.00    +0.213 C 
ATOM     23  O   UNL     1      10.610   5.206  24.098  0.00  0.00    -0.276 OA
ATOM     24  N   UNL     1      12.350   4.876  22.703  0.00  0.00    -0.329 N 
ATOM     25  H   UNL     1      12.546   5.867  22.694  0.00  0.00    +0.145 HD
ATOM     26  H   UNL     1      12.966   4.252  22.201  0.00  0.00    +0.145 HD
ENDBRANCH  21  22
ENDBRANCH   6  21
ENDBRANCH   4   6
ENDBRANCH   1   2
BRANCH   1  27
ATOM     27  C   UNL     1       6.838  -0.923  23.987  0.00  0.00    +0.149 C 
BRANCH  27  28
ATOM     28  O   UNL     1       6.274  -1.063  22.676  0.00  0.00    -0.389 OA
ATOM     29  H   UNL     1       6.754  -1.805  22.263  0.00  0.00    +0.210 HD
ENDBRANCH  27  28
BRANCH  27  30
ATOM     30  C   UNL     1       6.210   0.307  24.729  0.00  0.00    +0.118 C 
BRANCH  30  32
ATOM     31  C   UNL     1       5.171   0.388  27.002  0.00  0.00    +0.143 C 
ATOM     32  N   UNL     1       6.450   0.405  26.199  0.00  0.00    -0.289 NA
ATOM     33  C   UNL     1       7.165   1.668  26.556  0.00  0.00    +0.089 C 
ATOM     34  C   UNL     1       6.366   2.949  26.232  0.00  0.00    +0.006 C 
ATOM     35  C   UNL     1       5.009   2.938  26.955  0.00  0.00    -0.005 C 
ATOM     36  C   UNL     1       4.168   4.146  26.518  0.00  0.00    +0.004 C 
ATOM     37  C   UNL     1       4.904   5.458  26.794  0.00  0.00    +0.000 C 
ATOM     38  C   UNL     1       6.302   5.471  26.176  0.00  0.00    +0.000 C 
ATOM     39  C   UNL     1       7.123   4.241  26.579  0.00  0.00    +0.005 C 
ATOM     40  C   UNL     1       4.269   1.615  26.727  0.00  0.00    +0.032 C 
BRANCH  31  43
ATOM     41  N   UNL     1       4.738  -2.000  27.706  0.00  0.00    -0.309 N 
ATOM     42  H   UNL     1       5.689  -1.957  28.058  0.00  0.00    +0.149 HD
ATOM     43  C   UNL     1       4.317  -0.915  26.963  0.00  0.00    +0.231 C 
ATOM     44  O   UNL     1       3.230  -0.925  26.379  0.00  0.00    -0.274 OA
BRANCH  41  46
ATOM     45  C   UNL     1       3.919  -4.053  26.525  0.00  0.00    +0.031 C 
ATOM     46  C   UNL     1       3.959  -3.260  27.845  0.00  0.00    +0.026 C 
ATOM     47  C   UNL     1       4.610  -4.157  28.917  0.00  0.00    +0.031 C 
ATOM     48  C   UNL     1       2.510  -2.985  28.304  0.00  0.00    +0.031 C 
ENDBRANCH  41  46
ENDBRANCH  31  43
ENDBRANCH  30  32
ENDBRANCH  27  30
ENDBRANCH   1  27
BRANCH   1  49
ATOM     49  C   UNL     1       9.119  -1.348  25.126  0.00  0.00    +0.060 C 
BRANCH  49  50
ATOM     50  C   UNL     1       8.770  -2.786  25.445  0.00  0.00    -0.046 A 
ATOM     51  C   UNL     1       7.982  -3.093  26.564  0.00  0.00    +0.004 A 
ATOM     52  C   UNL     1       7.649  -4.413  26.860  0.00  0.00    +0.000 A 
ATOM     53  C   UNL     1       8.123  -5.446  26.057  0.00  0.00    +0.000 A 
ATOM     54  C   UNL     1       8.933  -5.159  24.961  0.00  0.00    +0.000 A 
ATOM     55  C   UNL     1       9.258  -3.836  24.656  0.00  0.00    +0.004 A 
ENDBRANCH  49  50
ENDBRANCH   1  49
TORSDOF 14
ENDMDL
MODEL 4
REMARK VINA RESULT:      -6.2      2.146      7.053
REMARK  Name = 
REMARK  17 active torsions:
REMARK  status: ('A' for Active; 'I' for Inactive)
REMARK    1  A    between atoms: C_1  and  C_2
REMARK    2  A    between atoms: C_2  and  C_3
REMARK    3  A    between atoms: C_2  and  C_4
REMARK    4  A    between atoms: C_2  and  N_5
REMARK    5  A    between atoms: C_6  and  C_8
REMARK    6  A    between atoms: N_18  and  C_19
REMARK    7  A    between atoms: C_19  and  C_20
REMARK    8  A    between atoms: C_20  and  O_22
REMARK    9  A    between atoms: C_20  and  C_23
REMARK   10  A    between atoms: C_23  and  C_25
REMARK   11  A    between atoms: C_23  and  N_32
REMARK   12  A    between atoms: C_25  and  C_26
REMARK   13  A    between atoms: C_33  and  C_35
REMARK   14  A    between atoms: C_35  and  C_37
REMARK   15  A    between atoms: C_35  and  N_41
REMARK   16  A    between atoms: C_37  and  C_38
REMARK   17  A    between atoms: C_42  and  C_44
REMARK                            x       y       z     vdW  Elec       q    Type
REMARK                         _______ _______ _______ _____ _____    ______ ____
ROOT
ATOM      1  C   UNL     1       4.682   1.208  26.690  0.00  0.00    +0.107 C 
ENDROOT
BRANCH   1   2
ATOM      2  N   UNL     1       4.397  -0.192  27.084  0.00  0.00    -0.308 N 
ATOM      3  H   UNL     1       5.058  -0.895  26.780  0.00  0.00    +0.149 HD
ATOM      4  C   UNL     1       3.284  -0.554  27.820  0.00  0.00    +0.234 C 
ATOM      5  O   UNL     1       2.460   0.263  28.227  0.00  0.00    -0.274 OA
BRANCH   4   6
ATOM      6  C   UNL     1       3.140  -2.072  28.110  0.00  0.00    +0.168 C 
BRANCH   6   7
ATOM      7  N   UNL     1       3.750  -2.866  27.038  0.00  0.00    -0.298 N 
ATOM      8  H   UNL     1       4.643  -2.554  26.653  0.00  0.00    +0.150 HD
ATOM      9  C   UNL     1       3.118  -3.925  26.423  0.00  0.00    +0.263 C 
ATOM     10  O   UNL     1       2.023  -4.343  26.784  0.00  0.00    -0.269 OA
BRANCH   9  11
ATOM     11  C   UNL     1       3.863  -4.588  25.303  0.00  0.00    +0.126 A 
ATOM     12  C   UNL     1       4.003  -5.967  25.309  0.00  0.00    +0.033 A 
ATOM     13  C   UNL     1       4.695  -6.564  24.264  0.00  0.00    +0.012 A 
ATOM     14  C   UNL     1       5.217  -5.765  23.235  0.00  0.00    +0.000 A 
ATOM     15  C   UNL     1       5.037  -4.366  23.316  0.00  0.00    +0.072 A 
ATOM     16  C   UNL     1       5.558  -3.588  22.289  0.00  0.00    +0.028 A 
ATOM     17  C   UNL     1       6.234  -4.153  21.202  0.00  0.00    +0.002 A 
ATOM     18  C   UNL     1       6.403  -5.532  21.133  0.00  0.00    +0.001 A 
ATOM     19  C   UNL     1       5.903  -6.337  22.150  0.00  0.00    +0.010 A 
ATOM     20  N   UNL     1       4.371  -3.773  24.335  0.00  0.00    -0.242 NA
ENDBRANCH   9  11
ENDBRANCH   6   7
BRANCH   6  21
ATOM     21  C   UNL     1       3.660  -2.419  29.507  0.00  0.00    +0.127 C 
BRANCH  21  22
ATOM     22  C   UNL     1       3.762  -3.911  29.753  0.00  0.00    +0.213 C 
ATOM     23  O   UNL     1       4.832  -4.508  29.727  0.00  0.00    -0.276 OA
ATOM     24  N   UNL     1       2.599  -4.550  30.036  0.00  0.00    -0.329 N 
ATOM     25  H   UNL     1       2.632  -5.544  30.217  0.00  0.00    +0.145 HD
ATOM     26  H   UNL     1       1.716  -4.068  30.116  0.00  0.00    +0.145 HD
ENDBRANCH  21  22
ENDBRANCH   6  21
ENDBRANCH   4   6
ENDBRANCH   1   2
BRANCH   1  27
ATOM     27  C   UNL     1       5.554   1.258  25.397  0.00  0.00    +0.149 C 
BRANCH  27  28
ATOM     28  O   UNL     1       4.714   1.510  24.261  0.00  0.00    -0.389 OA
ATOM     29  H   UNL     1       3.977   2.053  24.598  0.00  0.00    +0.210 HD
ENDBRANCH  27  28
BRANCH  27  30
ATOM     30  C   UNL     1       6.364  -0.069  25.199  0.00  0.00    +0.118 C 
BRANCH  30  32
ATOM     31  C   UNL     1       8.844  -0.199  24.911  0.00  0.00    +0.143 C 
ATOM     32  N   UNL     1       7.688  -0.162  25.882  0.00  0.00    -0.289 NA
ATOM     33  C   UNL     1       7.789  -1.395  26.720  0.00  0.00    +0.089 C 
ATOM     34  C   UNL     1       7.707  -2.707  25.910  0.00  0.00    +0.006 C 
ATOM     35  C   UNL     1       8.811  -2.753  24.841  0.00  0.00    -0.005 C 
ATOM     36  C   UNL     1       8.634  -3.994  23.953  0.00  0.00    +0.004 C 
ATOM     37  C   UNL     1       8.652  -5.275  24.788  0.00  0.00    +0.000 C 
ATOM     38  C   UNL     1       7.635  -5.229  25.928  0.00  0.00    +0.000 C 
ATOM     39  C   UNL     1       7.786  -3.968  26.786  0.00  0.00    +0.005 C 
ATOM     40  C   UNL     1       8.840  -1.462  24.016  0.00  0.00    +0.032 C 
BRANCH  31  43
ATOM     41  N   UNL     1       8.914   2.309  24.615  0.00  0.00    -0.309 N 
ATOM     42  H   UNL     1       8.428   2.322  25.506  0.00  0.00    +0.149 HD
ATOM     43  C   UNL     1       9.089   1.068  24.037  0.00  0.00    +0.231 C 
ATOM     44  O   UNL     1       9.546   0.953  22.897  0.00  0.00    -0.274 OA
BRANCH  41  46
ATOM     45  C   UNL     1       8.334   3.799  22.686  0.00  0.00    +0.031 C 
ATOM     46  C   UNL     1       9.222   3.593  23.928  0.00  0.00    +0.026 C 
ATOM     47  C   UNL     1       8.971   4.770  24.891  0.00  0.00    +0.031 C 
ATOM     48  C   UNL     1      10.703   3.667  23.498  0.00  0.00    +0.031 C 
ENDBRANCH  41  46
ENDBRANCH  31  43
ENDBRANCH  30  32
ENDBRANCH  27  30
ENDBRANCH   1  27
BRANCH   1  49
ATOM     49  C   UNL     1       5.332   1.973  27.870  0.00  0.00    +0.060 C 
BRANCH  49  50
ATOM     50  C   UNL     1       5.516   3.452  27.610  0.00  0.00    -0.046 A 
ATOM     51  C   UNL     1       6.710   4.093  27.972  0.00  0.00    +0.004 A 
ATOM     52  C   UNL     1       6.890   5.453  27.728  0.00  0.00    +0.000 A 
ATOM     53  C   UNL     1       5.869   6.196  27.143  0.00  0.00    +0.000 A 
ATOM     54  C   UNL     1       4.665   5.580  26.807  0.00  0.00    +0.000 A 
ATOM     55  C   UNL     1       4.487   4.214  27.041  0.00  0.00    +0.004 A 
ENDBRANCH  49  50
ENDBRANCH   1  49
TORSDOF 14
ENDMDL
MODEL 5
REMARK VINA RESULT:      -6.1      2.360      4.271
REMARK  Name = 
REMARK  17 active torsions:
REMARK  status: ('A' for Active; 'I' for Inactive)
REMARK    1  A    between atoms: C_1  and  C_2
REMARK    2  A    between atoms: C_2  and  C_3
REMARK    3  A    between atoms: C_2  and  C_4
REMARK    4  A    between atoms: C_2  and  N_5
REMARK    5  A    between atoms: C_6  and  C_8
REMARK    6  A    between atoms: N_18  and  C_19
REMARK    7  A    between atoms: C_19  and  C_20
REMARK    8  A    between atoms: C_20  and  O_22
REMARK    9  A    between atoms: C_20  and  C_23
REMARK   10  A    between atoms: C_23  and  C_25
REMARK   11  A    between atoms: C_23  and  N_32
REMARK   12  A    between atoms: C_25  and  C_26
REMARK   13  A    between atoms: C_33  and  C_35
REMARK   14  A    between atoms: C_35  and  C_37
REMARK   15  A    between atoms: C_35  and  N_41
REMARK   16  A    between atoms: C_37  and  C_38
REMARK   17  A    between atoms: C_42  and  C_44
REMARK                            x       y       z     vdW  Elec       q    Type
REMARK                         _______ _______ _______ _____ _____    ______ ____
ROOT
ATOM      1  C   UNL     1       6.553  -0.264  25.526  0.00  0.00    +0.107 C 
ENDROOT
BRANCH   1   2
ATOM      2  N   UNL     1       6.613  -1.726  25.761  0.00  0.00    -0.308 N 
ATOM      3  H   UNL     1       5.823  -2.272  25.443  0.00  0.00    +0.149 HD
ATOM      4  C   UNL     1       7.677  -2.342  26.394  0.00  0.00    +0.234 C 
ATOM      5  O   UNL     1       8.667  -1.725  26.785  0.00  0.00    -0.274 OA
BRANCH   4   6
ATOM      6  C   UNL     1       7.548  -3.877  26.577  0.00  0.00    +0.168 C 
BRANCH   6   7
ATOM      7  N   UNL     1       6.459  -4.408  25.749  0.00  0.00    -0.298 N 
ATOM      8  H   UNL     1       6.072  -3.811  25.018  0.00  0.00    +0.150 HD
ATOM      9  C   UNL     1       5.834  -5.612  25.997  0.00  0.00    +0.263 C 
ATOM     10  O   UNL     1       6.198  -6.377  26.884  0.00  0.00    -0.269 OA
BRANCH   9  11
ATOM     11  C   UNL     1       4.699  -5.974  25.087  0.00  0.00    +0.126 A 
ATOM     12  C   UNL     1       4.433  -5.172  23.987  0.00  0.00    +0.033 A 
ATOM     13  C   UNL     1       3.379  -5.523  23.155  0.00  0.00    +0.012 A 
ATOM     14  C   UNL     1       2.628  -6.675  23.439  0.00  0.00    +0.000 A 
ATOM     15  C   UNL     1       2.962  -7.427  24.588  0.00  0.00    +0.072 A 
ATOM     16  C   UNL     1       2.210  -8.564  24.855  0.00  0.00    +0.028 A 
ATOM     17  C   UNL     1       1.161  -8.970  24.023  0.00  0.00    +0.002 A 
ATOM     18  C   UNL     1       0.842  -8.223  22.894  0.00  0.00    +0.001 A 
ATOM     19  C   UNL     1       1.568  -7.073  22.605  0.00  0.00    +0.010 A 
ATOM     20  N   UNL     1       3.982  -7.088  25.411  0.00  0.00    -0.242 NA
ENDBRANCH   9  11
ENDBRANCH   6   7
BRANCH   6  21
ATOM     21  C   UNL     1       8.891  -4.576  26.353  0.00  0.00    +0.127 C 
BRANCH  21  22
ATOM     22  C   UNL     1       9.296  -4.637  24.893  0.00  0.00    +0.213 C 
ATOM     23  O   UNL     1       9.056  -5.609  24.187  0.00  0.00    -0.276 OA
ATOM     24  N   UNL     1       9.919  -3.536  24.400  0.00  0.00    -0.329 N 
ATOM     25  H   UNL     1      10.192  -3.538  23.428  0.00  0.00    +0.145 HD
ATOM     26  H   UNL     1      10.076  -2.705  24.951  0.00  0.00    +0.145 HD
ENDBRANCH  21  22
ENDBRANCH   6  21
ENDBRANCH   4   6
ENDBRANCH   1   2
BRANCH   1  27
ATOM     27  C   UNL     1       5.373   0.381  26.316  0.00  0.00    +0.149 C 
BRANCH  27  28
ATOM     28  O   UNL     1       4.221  -0.470  26.240  0.00  0.00    -0.389 OA
ATOM     29  H   UNL     1       4.255  -0.875  25.353  0.00  0.00    +0.210 HD
ENDBRANCH  27  28
BRANCH  27  30
ATOM     30  C   UNL     1       5.035   1.814  25.777  0.00  0.00    +0.118 C 
BRANCH  30  32
ATOM     31  C   UNL     1       4.602   4.212  26.337  0.00  0.00    +0.143 C 
ATOM     32  N   UNL     1       5.400   2.969  26.649  0.00  0.00    -0.289 NA
ATOM     33  C   UNL     1       6.841   3.335  26.502  0.00  0.00    +0.089 C 
ATOM     34  C   UNL     1       7.220   3.817  25.085  0.00  0.00    +0.006 C 
ATOM     35  C   UNL     1       6.366   5.030  24.679  0.00  0.00    -0.005 C 
ATOM     36  C   UNL     1       6.652   5.413  23.220  0.00  0.00    +0.004 C 
ATOM     37  C   UNL     1       8.136   5.717  23.012  0.00  0.00    +0.000 C 
ATOM     38  C   UNL     1       9.028   4.575  23.496  0.00  0.00    +0.000 C 
ATOM     39  C   UNL     1       8.710   4.165  24.939  0.00  0.00    +0.005 C 
ATOM     40  C   UNL     1       4.876   4.765  24.917  0.00  0.00    +0.032 C 
BRANCH  31  43
ATOM     41  N   UNL     1       2.620   4.154  27.904  0.00  0.00    -0.309 N 
ATOM     42  H   UNL     1       3.321   3.961  28.613  0.00  0.00    +0.149 HD
ATOM     43  C   UNL     1       3.065   4.163  26.598  0.00  0.00    +0.231 C 
ATOM     44  O   UNL     1       2.275   4.254  25.655  0.00  0.00    -0.274 OA
BRANCH  41  46
ATOM     45  C   UNL     1       0.463   2.885  28.030  0.00  0.00    +0.031 C 
ATOM     46  C   UNL     1       1.184   4.222  28.290  0.00  0.00    +0.026 C 
ATOM     47  C   UNL     1       1.066   4.541  29.794  0.00  0.00    +0.031 C 
ATOM     48  C   UNL     1       0.443   5.343  27.530  0.00  0.00    +0.031 C 
ENDBRANCH  41  46
ENDBRANCH  31  43
ENDBRANCH  30  32
ENDBRANCH  27  30
ENDBRANCH   1  27
BRANCH   1  49
ATOM     49  C   UNL     1       6.474   0.029  24.006  0.00  0.00    +0.060 C 
BRANCH  49  50
ATOM     50  C   UNL     1       7.780   0.509  23.410  0.00  0.00    -0.046 A 
ATOM     51  C   UNL     1       8.961   0.467  24.165  0.00  0.00    +0.004 A 
ATOM     52  C   UNL     1      10.170   0.899  23.621  0.00  0.00    +0.000 A 
ATOM     53  C   UNL     1      10.207   1.404  22.324  0.00  0.00    +0.000 A 
ATOM     54  C   UNL     1       9.036   1.482  21.574  0.00  0.00    +0.000 A 
ATOM     55  C   UNL     1       7.826   1.038  22.113  0.00  0.00    +0.004 A 
ENDBRANCH  49  50
ENDBRANCH   1  49
TORSDOF 14
ENDMDL
MODEL 6
REMARK VINA RESULT:      -6.0      1.896      5.726
REMARK  Name = 
REMARK  17 active torsions:
REMARK  status: ('A' for Active; 'I' for Inactive)
REMARK    1  A    between atoms: C_1  and  C_2
REMARK    2  A    between atoms: C_2  and  C_3
REMARK    3  A    between atoms: C_2  and  C_4
REMARK    4  A    between atoms: C_2  and  N_5
REMARK    5  A    between atoms: C_6  and  C_8
REMARK    6  A    between atoms: N_18  and  C_19
REMARK    7  A    between atoms: C_19  and  C_20
REMARK    8  A    between atoms: C_20  and  O_22
REMARK    9  A    between atoms: C_20  and  C_23
REMARK   10  A    between atoms: C_23  and  C_25
REMARK   11  A    between atoms: C_23  and  N_32
REMARK   12  A    between atoms: C_25  and  C_26
REMARK   13  A    between atoms: C_33  and  C_35
REMARK   14  A    between atoms: C_35  and  C_37
REMARK   15  A    between atoms: C_35  and  N_41
REMARK   16  A    between atoms: C_37  and  C_38
REMARK   17  A    between atoms: C_42  and  C_44
REMARK                            x       y       z     vdW  Elec       q    Type
REMARK                         _______ _______ _______ _____ _____    ______ ____
ROOT
ATOM      1  C   UNL     1       4.005   3.862  24.662  0.00  0.00    +0.107 C 
ENDROOT
BRANCH   1   2
ATOM      2  N   UNL     1       4.343   3.010  25.826  0.00  0.00    -0.308 N 
ATOM      3  H   UNL     1       5.274   3.108  26.209  0.00  0.00    +0.149 HD
ATOM      4  C   UNL     1       3.454   2.105  26.378  0.00  0.00    +0.234 C 
ATOM      5  O   UNL     1       2.306   1.960  25.962  0.00  0.00    -0.274 OA
BRANCH   4   6
ATOM      6  C   UNL     1       3.998   1.281  27.575  0.00  0.00    +0.168 C 
BRANCH   6   7
ATOM      7  N   UNL     1       4.381  -0.068  27.143  0.00  0.00    -0.298 N 
ATOM      8  H   UNL     1       5.272  -0.186  26.658  0.00  0.00    +0.150 HD
ATOM      9  C   UNL     1       3.543  -1.160  27.227  0.00  0.00    +0.263 C 
ATOM     10  O   UNL     1       2.436  -1.106  27.751  0.00  0.00    -0.269 OA
BRANCH   9  11
ATOM     11  C   UNL     1       4.075  -2.452  26.684  0.00  0.00    +0.126 A 
ATOM     12  C   UNL     1       4.715  -3.334  27.542  0.00  0.00    +0.033 A 
ATOM     13  C   UNL     1       5.200  -4.526  27.023  0.00  0.00    +0.012 A 
ATOM     14  C   UNL     1       5.019  -4.810  25.660  0.00  0.00    +0.000 A 
ATOM     15  C   UNL     1       4.366  -3.849  24.856  0.00  0.00    +0.072 A 
ATOM     16  C   UNL     1       4.194  -4.144  23.509  0.00  0.00    +0.028 A 
ATOM     17  C   UNL     1       4.639  -5.348  22.953  0.00  0.00    +0.002 A 
ATOM     18  C   UNL     1       5.280  -6.287  23.755  0.00  0.00    +0.001 A 
ATOM     19  C   UNL     1       5.477  -6.017  25.104  0.00  0.00    +0.010 A 
ATOM     20  N   UNL     1       3.897  -2.679  25.351  0.00  0.00    -0.242 NA
ENDBRANCH   9  11
ENDBRANCH   6   7
BRANCH   6  21
ATOM     21  C   UNL     1       5.112   2.034  28.305  0.00  0.00    +0.127 C 
BRANCH  21  22
ATOM     22  C   UNL     1       6.459   1.345  28.214  0.00  0.00    +0.213 C 
ATOM     23  O   UNL     1       6.741   0.366  28.895  0.00  0.00    -0.276 OA
ATOM     24  N   UNL     1       7.332   1.857  27.311  0.00  0.00    -0.329 N 
ATOM     25  H   UNL     1       8.235   1.414  27.216  0.00  0.00    +0.145 HD
ATOM     26  H   UNL     1       7.099   2.628  26.702  0.00  0.00    +0.145 HD
ENDBRANCH  21  22
ENDBRANCH   6  21
ENDBRANCH   4   6
ENDBRANCH   1   2
BRANCH   1  27
ATOM     27  C   UNL     1       4.558   3.246  23.339  0.00  0.00    +0.149 C 
BRANCH  27  28
ATOM     28  O   UNL     1       3.491   2.608  22.624  0.00  0.00    -0.389 OA
ATOM     29  H   UNL     1       3.726   1.662  22.594  0.00  0.00    +0.210 HD
ENDBRANCH  27  28
BRANCH  27  30
ATOM     30  C   UNL     1       5.718   2.229  23.621  0.00  0.00    +0.118 C 
BRANCH  30  32
ATOM     31  C   UNL     1       8.144   1.798  23.200  0.00  0.00    +0.143 C 
ATOM     32  N   UNL     1       6.802   2.140  22.599  0.00  0.00    -0.289 NA
ATOM     33  C   UNL     1       6.975   3.432  21.867  0.00  0.00    +0.089 C 
ATOM     34  C   UNL     1       7.421   4.603  22.768  0.00  0.00    +0.006 C 
ATOM     35  C   UNL     1       8.742   4.267  23.480  0.00  0.00    -0.005 C 
ATOM     36  C   UNL     1       9.103   5.378  24.476  0.00  0.00    +0.004 C 
ATOM     37  C   UNL     1       9.210   6.733  23.775  0.00  0.00    +0.000 C 
ATOM     38  C   UNL     1       7.952   7.062  22.972  0.00  0.00    +0.000 C 
ATOM     39  C   UNL     1       7.570   5.932  22.009  0.00  0.00    +0.005 C 
ATOM     40  C   UNL     1       8.674   2.894  24.156  0.00  0.00    +0.032 C 
BRANCH  31  43
ATOM     41  N   UNL     1       8.094  -0.726  23.088  0.00  0.00    -0.309 N 
ATOM     42  H   UNL     1       7.646  -0.571  22.190  0.00  0.00    +0.149 HD
ATOM     43  C   UNL     1       8.296   0.397  23.865  0.00  0.00    +0.231 C 
ATOM     44  O   UNL     1       8.709   0.305  25.024  0.00  0.00    -0.274 OA
BRANCH  41  46
ATOM     45  C   UNL     1       9.816  -2.427  23.734  0.00  0.00    +0.031 C 
ATOM     46  C   UNL     1       8.316  -2.117  23.568  0.00  0.00    +0.026 C 
ATOM     47  C   UNL     1       7.638  -2.307  24.940  0.00  0.00    +0.031 C 
ATOM     48  C   UNL     1       7.697  -3.155  22.609  0.00  0.00    +0.031 C 
ENDBRANCH  41  46
ENDBRANCH  31  43
ENDBRANCH  30  32
ENDBRANCH  27  30
ENDBRANCH   1  27
BRANCH   1  49
ATOM     49  C   UNL     1       4.509   5.309  24.895  0.00  0.00    +0.060 C 
BRANCH  49  50
ATOM     50  C   UNL     1       5.132   5.524  26.258  0.00  0.00    -0.046 A 
ATOM     51  C   UNL     1       6.500   5.291  26.457  0.00  0.00    +0.004 A 
ATOM     52  C   UNL     1       7.082   5.494  27.707  0.00  0.00    +0.000 A 
ATOM     53  C   UNL     1       6.298   5.907  28.780  0.00  0.00    +0.000 A 
ATOM     54  C   UNL     1       4.932   6.112  28.605  0.00  0.00    +0.000 A 
ATOM     55  C   UNL     1       4.348   5.919  27.351  0.00  0.00    +0.004 A 
ENDBRANCH  49  50
ENDBRANCH   1  49
TORSDOF 14
ENDMDL
MODEL 7
REMARK VINA RESULT:      -6.0      2.868      6.285
REMARK  Name = 
REMARK  17 active torsions:
REMARK  status: ('A' for Active; 'I' for Inactive)
REMARK    1  A    between atoms: C_1  and  C_2
REMARK    2  A    between atoms: C_2  and  C_3
REMARK    3  A    between atoms: C_2  and  C_4
REMARK    4  A    between atoms: C_2  and  N_5
REMARK    5  A    between atoms: C_6  and  C_8
REMARK    6  A    between atoms: N_18  and  C_19
REMARK    7  A    between atoms: C_19  and  C_20
REMARK    8  A    between atoms: C_20  and  O_22
REMARK    9  A    between atoms: C_20  and  C_23
REMARK   10  A    between atoms: C_23  and  C_25
REMARK   11  A    between atoms: C_23  and  N_32
REMARK   12  A    between atoms: C_25  and  C_26
REMARK   13  A    between atoms: C_33  and  C_35
REMARK   14  A    between atoms: C_35  and  C_37
REMARK   15  A    between atoms: C_35  and  N_41
REMARK   16  A    between atoms: C_37  and  C_38
REMARK   17  A    between atoms: C_42  and  C_44
REMARK                            x       y       z     vdW  Elec       q    Type
REMARK                         _______ _______ _______ _____ _____    ______ ____
ROOT
ATOM      1  C   UNL     1       6.866   1.656  26.995  0.00  0.00    +0.107 C 
ENDROOT
BRANCH   1   2
ATOM      2  N   UNL     1       5.879   0.552  27.066  0.00  0.00    -0.308 N 
ATOM      3  H   UNL     1       5.664   0.075  26.200  0.00  0.00    +0.149 HD
ATOM      4  C   UNL     1       5.256   0.176  28.242  0.00  0.00    +0.234 C 
ATOM      5  O   UNL     1       5.495   0.711  29.324  0.00  0.00    -0.274 OA
BRANCH   4   6
ATOM      6  C   UNL     1       4.231  -0.982  28.114  0.00  0.00    +0.168 C 
BRANCH   6   7
ATOM      7  N   UNL     1       4.734  -2.022  27.209  0.00  0.00    -0.298 N 
ATOM      8  H   UNL     1       5.712  -2.302  27.290  0.00  0.00    +0.150 HD
ATOM      9  C   UNL     1       3.999  -2.538  26.163  0.00  0.00    +0.263 C 
ATOM     10  O   UNL     1       2.830  -2.228  25.958  0.00  0.00    -0.269 OA
BRANCH   9  11
ATOM     11  C   UNL     1       4.689  -3.552  25.300  0.00  0.00    +0.126 A 
ATOM     12  C   UNL     1       5.099  -4.751  25.862  0.00  0.00    +0.033 A 
ATOM     13  C   UNL     1       5.735  -5.678  25.048  0.00  0.00    +0.012 A 
ATOM     14  C   UNL     1       5.932  -5.385  23.689  0.00  0.00    +0.000 A 
ATOM     15  C   UNL     1       5.492  -4.132  23.203  0.00  0.00    +0.072 A 
ATOM     16  C   UNL     1       5.693  -3.857  21.856  0.00  0.00    +0.028 A 
ATOM     17  C   UNL     1       6.301  -4.777  20.995  0.00  0.00    +0.002 A 
ATOM     18  C   UNL     1       6.728  -6.007  21.485  0.00  0.00    +0.001 A 
ATOM     19  C   UNL     1       6.551  -6.309  22.831  0.00  0.00    +0.010 A 
ATOM     20  N   UNL     1       4.879  -3.218  23.991  0.00  0.00    -0.242 NA
ENDBRANCH   9  11
ENDBRANCH   6   7
BRANCH   6  21
ATOM     21  C   UNL     1       3.819  -1.509  29.490  0.00  0.00    +0.127 C 
BRANCH  21  22
ATOM     22  C   UNL     1       3.506  -2.993  29.494  0.00  0.00    +0.213 C 
ATOM     23  O   UNL     1       4.385  -3.847  29.489  0.00  0.00    -0.276 OA
ATOM     24  N   UNL     1       2.192  -3.325  29.531  0.00  0.00    -0.329 N 
ATOM     25  H   UNL     1       1.948  -4.306  29.546  0.00  0.00    +0.145 HD
ATOM     26  H   UNL     1       1.455  -2.637  29.591  0.00  0.00    +0.145 HD
ENDBRANCH  21  22
ENDBRANCH   6  21
ENDBRANCH   4   6
ENDBRANCH   1   2
BRANCH   1  27
ATOM     27  C   UNL     1       6.166   3.009  26.658  0.00  0.00    +0.149 C 
BRANCH  27  28
ATOM     28  O   UNL     1       5.189   3.308  27.665  0.00  0.00    -0.389 OA
ATOM     29  H   UNL     1       4.965   2.450  28.073  0.00  0.00    +0.210 HD
ENDBRANCH  27  28
BRANCH  27  30
ATOM     30  C   UNL     1       5.500   2.974  25.239  0.00  0.00    +0.118 C 
BRANCH  30  32
ATOM     31  C   UNL     1       5.390   3.836  22.894  0.00  0.00    +0.143 C 
ATOM     32  N   UNL     1       5.811   4.108  24.318  0.00  0.00    -0.289 NA
ATOM     33  C   UNL     1       7.276   4.403  24.285  0.00  0.00    +0.089 C 
ATOM     34  C   UNL     1       8.132   3.243  23.734  0.00  0.00    +0.006 C 
ATOM     35  C   UNL     1       7.680   2.862  22.314  0.00  0.00    -0.005 C 
ATOM     36  C   UNL     1       8.444   1.621  21.831  0.00  0.00    +0.004 C 
ATOM     37  C   UNL     1       9.954   1.858  21.860  0.00  0.00    +0.000 C 
ATOM     38  C   UNL     1      10.433   2.336  23.231  0.00  0.00    +0.000 C 
ATOM     39  C   UNL     1       9.639   3.549  23.729  0.00  0.00    +0.005 C 
ATOM     40  C   UNL     1       6.163   2.659  22.250  0.00  0.00    +0.032 C 
BRANCH  31  43
ATOM     41  N   UNL     1       3.344   4.254  21.471  0.00  0.00    -0.309 N 
ATOM     42  H   UNL     1       3.942   4.923  20.996  0.00  0.00    +0.149 HD
ATOM     43  C   UNL     1       3.864   3.682  22.614  0.00  0.00    +0.231 C 
ATOM     44  O   UNL     1       3.173   2.960  23.337  0.00  0.00    -0.274 OA
BRANCH  41  46
ATOM     45  C   UNL     1       0.941   4.606  22.088  0.00  0.00    +0.031 C 
ATOM     46  C   UNL     1       1.933   4.087  21.029  0.00  0.00    +0.026 C 
ATOM     47  C   UNL     1       1.698   4.882  19.729  0.00  0.00    +0.031 C 
ATOM     48  C   UNL     1       1.604   2.610  20.722  0.00  0.00    +0.031 C 
ENDBRANCH  41  46
ENDBRANCH  31  43
ENDBRANCH  30  32
ENDBRANCH  27  30
ENDBRANCH   1  27
BRANCH   1  49
ATOM     49  C   UNL     1       7.988   1.305  25.985  0.00  0.00    +0.060 C 
BRANCH  49  50
ATOM     50  C   UNL     1       8.105  -0.176  25.697  0.00  0.00    -0.046 A 
ATOM     51  C   UNL     1       8.369  -1.082  26.735  0.00  0.00    +0.004 A 
ATOM     52  C   UNL     1       8.471  -2.448  26.480  0.00  0.00    +0.000 A 
ATOM     53  C   UNL     1       8.338  -2.924  25.178  0.00  0.00    +0.000 A 
ATOM     54  C   UNL     1       8.107  -2.033  24.132  0.00  0.00    +0.000 A 
ATOM     55  C   UNL     1       7.993  -0.664  24.388  0.00  0.00    +0.004 A 
ENDBRANCH  49  50
ENDBRANCH   1  49
TORSDOF 14
ENDMDL
MODEL 8
REMARK VINA RESULT:      -6.0      2.316      3.831
REMARK  Name = 
REMARK  17 active torsions:
REMARK  status: ('A' for Active; 'I' for Inactive)
REMARK    1  A    between atoms: C_1  and  C_2
REMARK    2  A    between atoms: C_2  and  C_3
REMARK    3  A    between atoms: C_2  and  C_4
REMARK    4  A    between atoms: C_2  and  N_5
REMARK    5  A    between atoms: C_6  and  C_8
REMARK    6  A    between atoms: N_18  and  C_19
REMARK    7  A    between atoms: C_19  and  C_20
REMARK    8  A    between atoms: C_20  and  O_22
REMARK    9  A    between atoms: C_20  and  C_23
REMARK   10  A    between atoms: C_23  and  C_25
REMARK   11  A    between atoms: C_23  and  N_32
REMARK   12  A    between atoms: C_25  and  C_26
REMARK   13  A    between atoms: C_33  and  C_35
REMARK   14  A    between atoms: C_35  and  C_37
REMARK   15  A    between atoms: C_35  and  N_41
REMARK   16  A    between atoms: C_37  and  C_38
REMARK   17  A    between atoms: C_42  and  C_44
REMARK                            x       y       z     vdW  Elec       q    Type
REMARK                         _______ _______ _______ _____ _____    ______ ____
ROOT
ATOM      1  C   UNL     1       8.525   1.667  23.707  0.00  0.00    +0.107 C 
ENDROOT
BRANCH   1   2
ATOM      2  N   UNL     1       8.387   0.354  24.381  0.00  0.00    -0.308 N 
ATOM      3  H   UNL     1       8.003   0.359  25.317  0.00  0.00    +0.149 HD
ATOM      4  C   UNL     1       8.766  -0.838  23.789  0.00  0.00    +0.234 C 
ATOM      5  O   UNL     1       9.221  -0.900  22.648  0.00  0.00    -0.274 OA
BRANCH   4   6
ATOM      6  C   UNL     1       8.573  -2.107  24.661  0.00  0.00    +0.168 C 
BRANCH   6   7
ATOM      7  N   UNL     1       7.200  -2.612  24.545  0.00  0.00    -0.298 N 
ATOM      8  H   UNL     1       6.742  -2.562  23.634  0.00  0.00    +0.150 HD
ATOM      9  C   UNL     1       6.445  -3.016  25.626  0.00  0.00    +0.263 C 
ATOM     10  O   UNL     1       6.895  -3.066  26.766  0.00  0.00    -0.269 OA
BRANCH   9  11
ATOM     11  C   UNL     1       5.040  -3.447  25.334  0.00  0.00    +0.126 A 
ATOM     12  C   UNL     1       3.991  -2.822  25.992  0.00  0.00    +0.033 A 
ATOM     13  C   UNL     1       2.696  -3.234  25.709  0.00  0.00    +0.012 A 
ATOM     14  C   UNL     1       2.485  -4.251  24.765  0.00  0.00    +0.000 A 
ATOM     15  C   UNL     1       3.613  -4.841  24.151  0.00  0.00    +0.072 A 
ATOM     16  C   UNL     1       3.387  -5.846  23.218  0.00  0.00    +0.028 A 
ATOM     17  C   UNL     1       2.097  -6.267  22.881  0.00  0.00    +0.002 A 
ATOM     18  C   UNL     1       0.994  -5.678  23.491  0.00  0.00    +0.001 A 
ATOM     19  C   UNL     1       1.186  -4.677  24.437  0.00  0.00    +0.010 A 
ATOM     20  N   UNL     1       4.880  -4.453  24.427  0.00  0.00    -0.242 NA
ENDBRANCH   9  11
ENDBRANCH   6   7
BRANCH   6  21
ATOM     21  C   UNL     1       9.644  -3.156  24.353  0.00  0.00    +0.127 C 
BRANCH  21  22
ATOM     22  C   UNL     1       9.262  -4.551  24.808  0.00  0.00    +0.213 C 
ATOM     23  O   UNL     1       8.734  -5.363  24.057  0.00  0.00    -0.276 OA
ATOM     24  N   UNL     1       9.567  -4.864  26.093  0.00  0.00    -0.329 N 
ATOM     25  H   UNL     1       9.337  -5.790  26.426  0.00  0.00    +0.145 HD
ATOM     26  H   UNL     1      10.052  -4.229  26.710  0.00  0.00    +0.145 HD
ENDBRANCH  21  22
ENDBRANCH   6  21
ENDBRANCH   4   6
ENDBRANCH   1   2
BRANCH   1  27
ATOM     27  C   UNL     1       7.644   1.730  22.421  0.00  0.00    +0.149 C 
BRANCH  27  28
ATOM     28  O   UNL     1       8.323   2.489  21.411  0.00  0.00    -0.389 OA
ATOM     29  H   UNL     1       7.623   2.970  20.932  0.00  0.00    +0.210 HD
ENDBRANCH  27  28
BRANCH  27  30
ATOM     30  C   UNL     1       6.235   2.350  22.721  0.00  0.00    +0.118 C 
BRANCH  30  32
ATOM     31  C   UNL     1       5.238   3.016  24.915  0.00  0.00    +0.143 C 
ATOM     32  N   UNL     1       6.167   3.393  23.786  0.00  0.00    -0.289 NA
ATOM     33  C   UNL     1       5.681   4.699  23.247  0.00  0.00    +0.089 C 
ATOM     34  C   UNL     1       4.239   4.648  22.698  0.00  0.00    +0.006 C 
ATOM     35  C   UNL     1       3.261   4.177  23.787  0.00  0.00    -0.005 C 
ATOM     36  C   UNL     1       1.856   3.997  23.193  0.00  0.00    +0.004 C 
ATOM     37  C   UNL     1       1.357   5.295  22.559  0.00  0.00    +0.000 C 
ATOM     38  C   UNL     1       2.349   5.853  21.539  0.00  0.00    +0.000 C 
ATOM     39  C   UNL     1       3.760   5.991  22.122  0.00  0.00    +0.005 C 
ATOM     40  C   UNL     1       3.761   2.898  24.467  0.00  0.00    +0.032 C 
BRANCH  31  43
ATOM     41  N   UNL     1       6.048   1.993  27.079  0.00  0.00    -0.309 N 
ATOM     42  H   UNL     1       6.286   2.951  27.319  0.00  0.00    +0.149 HD
ATOM     43  C   UNL     1       5.627   1.780  25.782  0.00  0.00    +0.231 C 
ATOM     44  O   UNL     1       5.442   0.639  25.351  0.00  0.00    -0.274 OA
BRANCH  41  46
ATOM     45  C   UNL     1       7.582   0.089  27.628  0.00  0.00    +0.031 C 
ATOM     46  C   UNL     1       6.340   0.900  28.045  0.00  0.00    +0.026 C 
ATOM     47  C   UNL     1       6.611   1.498  29.440  0.00  0.00    +0.031 C 
ATOM     48  C   UNL     1       5.143  -0.064  28.192  0.00  0.00    +0.031 C 
ENDBRANCH  41  46
ENDBRANCH  31  43
ENDBRANCH  30  32
ENDBRANCH  27  30
ENDBRANCH   1  27
BRANCH   1  49
ATOM     49  C   UNL     1      10.018   1.962  23.415  0.00  0.00    +0.060 C 
BRANCH  49  50
ATOM     50  C   UNL     1      10.404   3.411  23.622  0.00  0.00    -0.046 A 
ATOM     51  C   UNL     1      11.689   3.858  23.283  0.00  0.00    +0.004 A 
ATOM     52  C   UNL     1      12.050   5.192  23.463  0.00  0.00    +0.000 A 
ATOM     53  C   UNL     1      11.138   6.091  24.010  0.00  0.00    +0.000 A 
ATOM     54  C   UNL     1       9.868   5.654  24.381  0.00  0.00    +0.000 A 
ATOM     55  C   UNL     1       9.501   4.320  24.190  0.00  0.00    +0.004 A 
ENDBRANCH  49  50
ENDBRANCH   1  49
TORSDOF 14
ENDMDL
MODEL 9
REMARK VINA RESULT:      -5.8      2.338      6.091
REMARK  Name = 
REMARK  17 active torsions:
REMARK  status: ('A' for Active; 'I' for Inactive)
REMARK    1  A    between atoms: C_1  and  C_2
REMARK    2  A    between atoms: C_2  and  C_3
REMARK    3  A    between atoms: C_2  and  C_4
REMARK    4  A    between atoms: C_2  and  N_5
REMARK    5  A    between atoms: C_6  and  C_8
REMARK    6  A    between atoms: N_18  and  C_19
REMARK    7  A    between atoms: C_19  and  C_20
REMARK    8  A    between atoms: C_20  and  O_22
REMARK    9  A    between atoms: C_20  and  C_23
REMARK   10  A    between atoms: C_23  and  C_25
REMARK   11  A    between atoms: C_23  and  N_32
REMARK   12  A    between atoms: C_25  and  C_26
REMARK   13  A    between atoms: C_33  and  C_35
REMARK   14  A    between atoms: C_35  and  C_37
REMARK   15  A    between atoms: C_35  and  N_41
REMARK   16  A    between atoms: C_37  and  C_38
REMARK   17  A    between atoms: C_42  and  C_44
REMARK                            x       y       z     vdW  Elec       q    Type
REMARK                         _______ _______ _______ _____ _____    ______ ____
ROOT
ATOM      1  C   UNL     1       6.249   0.247  26.046  0.00  0.00    +0.107 C 
ENDROOT
BRANCH   1   2
ATOM      2  N   UNL     1       6.581  -1.191  25.910  0.00  0.00    -0.308 N 
ATOM      3  H   UNL     1       5.932  -1.762  25.385  0.00  0.00    +0.149 HD
ATOM      4  C   UNL     1       7.710  -1.757  26.473  0.00  0.00    +0.234 C 
ATOM      5  O   UNL     1       8.539  -1.105  27.106  0.00  0.00    -0.274 OA
BRANCH   4   6
ATOM      6  C   UNL     1       7.874  -3.284  26.249  0.00  0.00    +0.168 C 
BRANCH   6   7
ATOM      7  N   UNL     1       6.716  -3.830  25.532  0.00  0.00    -0.298 N 
ATOM      8  H   UNL     1       6.250  -3.238  24.843  0.00  0.00    +0.150 HD
ATOM      9  C   UNL     1       6.135  -5.042  25.838  0.00  0.00    +0.263 C 
ATOM     10  O   UNL     1       6.596  -5.803  26.683  0.00  0.00    -0.269 OA
BRANCH   9  11
ATOM     11  C   UNL     1       4.921  -5.420  25.043  0.00  0.00    +0.126 A 
ATOM     12  C   UNL     1       4.441  -4.541  24.085  0.00  0.00    +0.033 A 
ATOM     13  C   UNL     1       3.316  -4.907  23.358  0.00  0.00    +0.012 A 
ATOM     14  C   UNL     1       2.710  -6.150  23.602  0.00  0.00    +0.000 A 
ATOM     15  C   UNL     1       3.260  -6.978  24.606  0.00  0.00    +0.072 A 
ATOM     16  C   UNL     1       2.650  -8.205  24.835  0.00  0.00    +0.028 A 
ATOM     17  C   UNL     1       1.535  -8.626  24.103  0.00  0.00    +0.002 A 
ATOM     18  C   UNL     1       1.004  -7.802  23.116  0.00  0.00    +0.001 A 
ATOM     19  C   UNL     1       1.584  -6.563  22.869  0.00  0.00    +0.010 A 
ATOM     20  N   UNL     1       4.351  -6.626  25.327  0.00  0.00    -0.242 NA
ENDBRANCH   9  11
ENDBRANCH   6   7
BRANCH   6  21
ATOM     21  C   UNL     1       9.216  -3.605  25.588  0.00  0.00    +0.127 C 
BRANCH  21  22
ATOM     22  C   UNL     1       9.241  -4.962  24.913  0.00  0.00    +0.213 C 
ATOM     23  O   UNL     1       8.804  -5.139  23.782  0.00  0.00    -0.276 OA
ATOM     24  N   UNL     1       9.805  -5.971  25.624  0.00  0.00    -0.329 N 
ATOM     25  H   UNL     1       9.850  -6.887  25.200  0.00  0.00    +0.145 HD
ATOM     26  H   UNL     1      10.220  -5.834  26.534  0.00  0.00    +0.145 HD
ENDBRANCH  21  22
ENDBRANCH   6  21
ENDBRANCH   4   6
ENDBRANCH   1   2
BRANCH   1  27
ATOM     27  C   UNL     1       7.535   1.098  26.284  0.00  0.00    +0.149 C 
BRANCH  27  28
ATOM     28  O   UNL     1       7.543   1.590  27.631  0.00  0.00    -0.389 OA
ATOM     29  H   UNL     1       6.666   1.366  27.995  0.00  0.00    +0.210 HD
ENDBRANCH  27  28
BRANCH  27  30
ATOM     30  C   UNL     1       7.636   2.284  25.264  0.00  0.00    +0.118 C 
BRANCH  30  32
ATOM     31  C   UNL     1       9.015   3.406  23.506  0.00  0.00    +0.143 C 
ATOM     32  N   UNL     1       9.006   2.696  24.838  0.00  0.00    -0.289 NA
ATOM     33  C   UNL     1       9.917   1.518  24.704  0.00  0.00    +0.089 C 
ATOM     34  C   UNL     1       9.483   0.517  23.612  0.00  0.00    +0.006 C 
ATOM     35  C   UNL     1       9.386   1.215  22.245  0.00  0.00    -0.005 C 
ATOM     36  C   UNL     1       8.823   0.245  21.196  0.00  0.00    +0.004 C 
ATOM     37  C   UNL     1       9.686  -1.012  21.088  0.00  0.00    +0.000 C 
ATOM     38  C   UNL     1       9.892  -1.683  22.446  0.00  0.00    +0.000 C 
ATOM     39  C   UNL     1      10.414  -0.702  23.502  0.00  0.00    +0.005 C 
ATOM     40  C   UNL     1       8.559   2.501  22.336  0.00  0.00    +0.032 C 
BRANCH  31  43
ATOM     41  N   UNL     1       6.978   4.812  22.996  0.00  0.00    -0.309 N 
ATOM     42  H   UNL     1       6.634   3.964  22.556  0.00  0.00    +0.149 HD
ATOM     43  C   UNL     1       8.290   4.784  23.423  0.00  0.00    +0.231 C 
ATOM     44  O   UNL     1       8.845   5.801  23.848  0.00  0.00    -0.274 OA
BRANCH  41  46
ATOM     45  C   UNL     1       6.606   7.032  21.895  0.00  0.00    +0.031 C 
ATOM     46  C   UNL     1       6.139   6.040  22.978  0.00  0.00    +0.026 C 
ATOM     47  C   UNL     1       4.674   5.664  22.677  0.00  0.00    +0.031 C 
ATOM     48  C   UNL     1       6.150   6.756  24.346  0.00  0.00    +0.031 C 
ENDBRANCH  41  46
ENDBRANCH  31  43
ENDBRANCH  30  32
ENDBRANCH  27  30
ENDBRANCH   1  27
BRANCH   1  49
ATOM     49  C   UNL     1       5.194   0.448  27.163  0.00  0.00    +0.060 C 
BRANCH  49  50
ATOM     50  C   UNL     1       4.328   1.674  26.969  0.00  0.00    -0.046 A 
ATOM     51  C   UNL     1       3.765   2.327  28.075  0.00  0.00    +0.004 A 
ATOM     52  C   UNL     1       2.973   3.462  27.906  0.00  0.00    +0.000 A 
ATOM     53  C   UNL     1       2.711   3.941  26.626  0.00  0.00    +0.000 A 
ATOM     54  C   UNL     1       3.237   3.284  25.516  0.00  0.00    +0.000 A 
ATOM     55  C   UNL     1       4.040   2.154  25.684  0.00  0.00    +0.004 A 
ENDBRANCH  49  50
ENDBRANCH   1  49
TORSDOF 14
ENDMDL
