MODEL 1
REMARK VINA RESULT:      -5.3      0.000      0.000
REMARK  Name = 
REMARK  20 active torsions:
REMARK  status: ('A' for Active; 'I' for Inactive)
REMARK    1  A    between atoms: C_2  and  C_3
REMARK    2  A    between atoms: C_2  and  C_4
REMARK    3  A    between atoms: C_2  and  C_17
REMARK    4  A    between atoms: C_4  and  C_5
REMARK    5  A    between atoms: C_5  and  C_6
REMARK    6  A    between atoms: C_6  and  C_7
REMARK    7  A    between atoms: C_7  and  C_8
REMARK    8  A    between atoms: C_8  and  O_10
REMARK    9  A    between atoms: C_8  and  C_11
REMARK   10  A    between atoms: C_11  and  C_13
REMARK   11  A    between atoms: C_11  and  C_15
REMARK   12  A    between atoms: C_13  and  O_14
REMARK   13  A    between atoms: C_17  and  C_18
REMARK   14  A    between atoms: C_18  and  C_20
REMARK   15  A    between atoms: C_18  and  C_21
REMARK   16  A    between atoms: C_21  and  C_22
REMARK   17  A    between atoms: C_22  and  C_24
REMARK   18  A    between atoms: C_22  and  C_25
REMARK   19  A    between atoms: C_25  and  C_26
REMARK   20  A    between atoms: C_26  and  O_27
REMARK                            x       y       z     vdW  Elec       q    Type
REMARK                         _______ _______ _______ _____ _____    ______ ____
ROOT
ATOM      1  C   UNL     1       5.733  -5.177  21.836  0.00  0.00    -0.014 C 
ATOM      2  C   UNL     1       6.888  -6.176  21.983  0.00  0.00    +0.007 C 
ENDROOT
BRANCH   1   3
ATOM      3  C   UNL     1       6.272  -3.738  21.700  0.00  0.00    +0.003 C 
BRANCH   3   4
ATOM      4  C   UNL     1       7.561  -3.452  22.485  0.00  0.00    +0.000 C 
BRANCH   4   5
ATOM      5  C   UNL     1       7.497  -2.238  23.424  0.00  0.00    +0.003 C 
BRANCH   5   6
ATOM      6  C   UNL     1       8.850  -1.534  23.535  0.00  0.00    +0.032 C 
BRANCH   6   7
ATOM      7  C   UNL     1       9.430  -1.086  22.191  0.00  0.00    +0.127 C 
BRANCH   7   8
ATOM      8  O   UNL     1      10.612  -1.839  21.928  0.00  0.00    -0.391 OA
ATOM      9  H   UNL     1      11.354  -1.206  22.044  0.00  0.00    +0.210 HD
ENDBRANCH   7   8
BRANCH   7  10
ATOM     10  C   UNL     1       9.749   0.418  22.182  0.00  0.00    +0.106 C 
BRANCH  10  11
ATOM     11  C   UNL     1      10.394   0.832  23.489  0.00  0.00    +0.231 C 
ATOM     12  O   UNL     1      10.276   1.959  23.974  0.00  0.00    -0.301 OA
ENDBRANCH  10  11
BRANCH  10  13
ATOM     13  C   UNL     1       8.582   1.353  21.873  0.00  0.00    +0.169 C 
BRANCH  13  14
ATOM     14  O   UNL     1       9.005   2.672  21.570  0.00  0.00    -0.394 OA
ATOM     15  H   UNL     1       8.331   3.288  21.928  0.00  0.00    +0.209 HD
ENDBRANCH  13  14
ENDBRANCH  10  13
ENDBRANCH   7  10
ENDBRANCH   6   7
ENDBRANCH   5   6
ENDBRANCH   4   5
ENDBRANCH   3   4
ENDBRANCH   1   3
BRANCH   1  16
ATOM     16  C   UNL     1       4.740  -5.322  23.017  0.00  0.00    +0.006 C 
BRANCH  16  17
ATOM     17  C   UNL     1       5.347  -5.829  24.359  0.00  0.00    -0.014 C 
ATOM     18  C   UNL     1       4.479  -6.969  24.906  0.00  0.00    +0.007 C 
BRANCH  17  19
ATOM     19  C   UNL     1       5.491  -4.698  25.396  0.00  0.00    +0.007 C 
BRANCH  19  20
ATOM     20  C   UNL     1       6.729  -4.769  26.329  0.00  0.00    -0.003 C 
ATOM     21  C   UNL     1       6.382  -5.372  27.698  0.00  0.00    +0.008 C 
BRANCH  20  22
ATOM     22  C   UNL     1       7.848  -5.520  25.579  0.00  0.00    +0.123 C 
BRANCH  22  23
ATOM     23  C   UNL     1       9.223  -4.914  25.738  0.00  0.00    +0.305 C 
ATOM     24  O   UNL     1       9.950  -4.605  24.803  0.00  0.00    -0.251 OA
BRANCH  23  25
ATOM     25  O   UNL     1       9.597  -4.750  27.022  0.00  0.00    -0.481 OA
ATOM     26  H   UNL     1       9.790  -3.822  27.261  0.00  0.00    +0.295 HD
ENDBRANCH  23  25
ENDBRANCH  22  23
ENDBRANCH  20  22
ENDBRANCH  19  20
ENDBRANCH  17  19
ENDBRANCH  16  17
ENDBRANCH   1  16
TORSDOF 17
ENDMDL
MODEL 2
REMARK VINA RESULT:      -5.2      1.934      3.361
REMARK  Name = 
REMARK  20 active torsions:
REMARK  status: ('A' for Active; 'I' for Inactive)
REMARK    1  A    between atoms: C_2  and  C_3
REMARK    2  A    between atoms: C_2  and  C_4
REMARK    3  A    between atoms: C_2  and  C_17
REMARK    4  A    between atoms: C_4  and  C_5
REMARK    5  A    between atoms: C_5  and  C_6
REMARK    6  A    between atoms: C_6  and  C_7
REMARK    7  A    between atoms: C_7  and  C_8
REMARK    8  A    between atoms: C_8  and  O_10
REMARK    9  A    between atoms: C_8  and  C_11
REMARK   10  A    between atoms: C_11  and  C_13
REMARK   11  A    between atoms: C_11  and  C_15
REMARK   12  A    between atoms: C_13  and  O_14
REMARK   13  A    between atoms: C_17  and  C_18
REMARK   14  A    between atoms: C_18  and  C_20
REMARK   15  A    between atoms: C_18  and  C_21
REMARK   16  A    between atoms: C_21  and  C_22
REMARK   17  A    between atoms: C_22  and  C_24
REMARK   18  A    between atoms: C_22  and  C_25
REMARK   19  A    between atoms: C_25  and  C_26
REMARK   20  A    between atoms: C_26  and  O_27
REMARK                            x       y       z     vdW  Elec       q    Type
REMARK                         _______ _______ _______ _____ _____    ______ ____
ROOT
ATOM      1  C   UNL     1       7.479  -2.354  23.685  0.00  0.00    -0.014 C 
ATOM      2  C   UNL     1       6.299  -1.374  23.721  0.00  0.00    +0.007 C 
ENDROOT
BRANCH   1   3
ATOM      3  C   UNL     1       8.795  -1.612  23.375  0.00  0.00    +0.003 C 
BRANCH   3   4
ATOM      4  C   UNL     1       9.154  -1.525  21.883  0.00  0.00    +0.000 C 
BRANCH   4   5
ATOM      5  C   UNL     1       9.482  -0.114  21.373  0.00  0.00    +0.003 C 
BRANCH   5   6
ATOM      6  C   UNL     1       8.448   0.913  21.838  0.00  0.00    +0.032 C 
BRANCH   6   7
ATOM      7  C   UNL     1       9.039   2.286  22.164  0.00  0.00    +0.127 C 
BRANCH   7   8
ATOM      8  O   UNL     1      10.330   2.383  21.566  0.00  0.00    -0.391 OA
ATOM      9  H   UNL     1      10.405   1.597  20.983  0.00  0.00    +0.210 HD
ENDBRANCH   7   8
BRANCH   7  10
ATOM     10  C   UNL     1       9.140   2.516  23.681  0.00  0.00    +0.106 C 
BRANCH  10  11
ATOM     11  C   UNL     1      10.537   2.197  24.175  0.00  0.00    +0.231 C 
ATOM     12  O   UNL     1      10.998   1.055  24.208  0.00  0.00    -0.301 OA
ENDBRANCH  10  11
BRANCH  10  13
ATOM     13  C   UNL     1       8.117   1.782  24.544  0.00  0.00    +0.169 C 
BRANCH  13  14
ATOM     14  O   UNL     1       8.706   1.135  25.659  0.00  0.00    -0.394 OA
ATOM     15  H   UNL     1       9.619   1.483  25.755  0.00  0.00    +0.209 HD
ENDBRANCH  13  14
ENDBRANCH  10  13
ENDBRANCH   7  10
ENDBRANCH   6   7
ENDBRANCH   5   6
ENDBRANCH   4   5
ENDBRANCH   3   4
ENDBRANCH   1   3
BRANCH   1  16
ATOM     16  C   UNL     1       7.199  -3.498  22.676  0.00  0.00    +0.006 C 
BRANCH  16  17
ATOM     17  C   UNL     1       7.652  -4.922  23.118  0.00  0.00    -0.014 C 
ATOM     18  C   UNL     1       7.193  -5.944  22.072  0.00  0.00    +0.007 C 
BRANCH  17  19
ATOM     19  C   UNL     1       7.126  -5.291  24.519  0.00  0.00    +0.007 C 
BRANCH  19  20
ATOM     20  C   UNL     1       8.183  -5.392  25.650  0.00  0.00    -0.003 C 
ATOM     21  C   UNL     1       9.573  -4.937  25.179  0.00  0.00    +0.008 C 
BRANCH  20  22
ATOM     22  C   UNL     1       7.650  -4.614  26.871  0.00  0.00    +0.123 C 
BRANCH  22  23
ATOM     23  C   UNL     1       6.678  -5.389  27.729  0.00  0.00    +0.305 C 
ATOM     24  O   UNL     1       5.493  -5.108  27.851  0.00  0.00    -0.251 OA
BRANCH  23  25
ATOM     25  O   UNL     1       7.236  -6.431  28.375  0.00  0.00    -0.481 OA
ATOM     26  H   UNL     1       7.606  -7.113  27.780  0.00  0.00    +0.295 HD
ENDBRANCH  23  25
ENDBRANCH  22  23
ENDBRANCH  20  22
ENDBRANCH  19  20
ENDBRANCH  17  19
ENDBRANCH  16  17
ENDBRANCH   1  16
TORSDOF 17
ENDMDL
MODEL 3
REMARK VINA RESULT:      -5.1      2.144      2.967
REMARK  Name = 
REMARK  20 active torsions:
REMARK  status: ('A' for Active; 'I' for Inactive)
REMARK    1  A    between atoms: C_2  and  C_3
REMARK    2  A    between atoms: C_2  and  C_4
REMARK    3  A    between atoms: C_2  and  C_17
REMARK    4  A    between atoms: C_4  and  C_5
REMARK    5  A    between atoms: C_5  and  C_6
REMARK    6  A    between atoms: C_6  and  C_7
REMARK    7  A    between atoms: C_7  and  C_8
REMARK    8  A    between atoms: C_8  and  O_10
REMARK    9  A    between atoms: C_8  and  C_11
REMARK   10  A    between atoms: C_11  and  C_13
REMARK   11  A    between atoms: C_11  and  C_15
REMARK   12  A    between atoms: C_13  and  O_14
REMARK   13  A    between atoms: C_17  and  C_18
REMARK   14  A    between atoms: C_18  and  C_20
REMARK   15  A    between atoms: C_18  and  C_21
REMARK   16  A    between atoms: C_21  and  C_22
REMARK   17  A    between atoms: C_22  and  C_24
REMARK   18  A    between atoms: C_22  and  C_25
REMARK   19  A    between atoms: C_25  and  C_26
REMARK   20  A    between atoms: C_26  and  O_27
REMARK                            x       y       z     vdW  Elec       q    Type
REMARK                         _______ _______ _______ _____ _____    ______ ____
ROOT
ATOM      1  C   UNL     1       7.102  -4.866  23.001  0.00  0.00    -0.014 C 
ATOM      2  C   UNL     1       7.177  -6.048  22.025  0.00  0.00    +0.007 C 
ENDROOT
BRANCH   1   3
ATOM      3  C   UNL     1       7.150  -3.526  22.238  0.00  0.00    +0.003 C 
BRANCH   3   4
ATOM      4  C   UNL     1       6.282  -2.408  22.837  0.00  0.00    +0.000 C 
BRANCH   4   5
ATOM      5  C   UNL     1       7.023  -1.097  23.135  0.00  0.00    +0.003 C 
BRANCH   5   6
ATOM      6  C   UNL     1       8.526  -1.321  23.311  0.00  0.00    +0.032 C 
BRANCH   6   7
ATOM      7  C   UNL     1       9.384  -0.643  22.241  0.00  0.00    +0.127 C 
BRANCH   7   8
ATOM      8  O   UNL     1      10.281  -1.607  21.695  0.00  0.00    -0.391 OA
ATOM      9  H   UNL     1      10.619  -1.206  20.864  0.00  0.00    +0.210 HD
ENDBRANCH   7   8
BRANCH   7  10
ATOM     10  C   UNL     1      10.172   0.547  22.814  0.00  0.00    +0.106 C 
BRANCH  10  11
ATOM     11  C   UNL     1      10.238   0.461  24.325  0.00  0.00    +0.231 C 
ATOM     12  O   UNL     1      11.283   0.593  24.965  0.00  0.00    -0.301 OA
ENDBRANCH  10  11
BRANCH  10  13
ATOM     13  C   UNL     1       9.690   1.936  22.404  0.00  0.00    +0.169 C 
BRANCH  13  14
ATOM     14  O   UNL     1       9.029   1.936  21.151  0.00  0.00    -0.394 OA
ATOM     15  H   UNL     1       8.436   2.718  21.128  0.00  0.00    +0.209 HD
ENDBRANCH  13  14
ENDBRANCH  10  13
ENDBRANCH   7  10
ENDBRANCH   6   7
ENDBRANCH   5   6
ENDBRANCH   4   5
ENDBRANCH   3   4
ENDBRANCH   1   3
BRANCH   1  16
ATOM     16  C   UNL     1       8.223  -4.974  24.067  0.00  0.00    +0.006 C 
BRANCH  16  17
ATOM     17  C   UNL     1       7.835  -4.539  25.511  0.00  0.00    -0.014 C 
ATOM     18  C   UNL     1       9.095  -4.505  26.384  0.00  0.00    +0.007 C 
BRANCH  17  19
ATOM     19  C   UNL     1       6.761  -5.458  26.126  0.00  0.00    +0.007 C 
BRANCH  19  20
ATOM     20  C   UNL     1       5.364  -4.827  26.364  0.00  0.00    -0.003 C 
ATOM     21  C   UNL     1       5.426  -3.292  26.400  0.00  0.00    +0.008 C 
BRANCH  20  22
ATOM     22  C   UNL     1       4.400  -5.388  25.299  0.00  0.00    +0.123 C 
BRANCH  22  23
ATOM     23  C   UNL     1       4.217  -6.888  25.352  0.00  0.00    +0.305 C 
ATOM     24  O   UNL     1       4.291  -7.624  24.377  0.00  0.00    -0.251 OA
BRANCH  23  25
ATOM     25  O   UNL     1       3.944  -7.357  26.584  0.00  0.00    -0.481 OA
ATOM     26  H   UNL     1       3.577  -6.684  27.191  0.00  0.00    +0.295 HD
ENDBRANCH  23  25
ENDBRANCH  22  23
ENDBRANCH  20  22
ENDBRANCH  19  20
ENDBRANCH  17  19
ENDBRANCH  16  17
ENDBRANCH   1  16
TORSDOF 17
ENDMDL
MODEL 4
REMARK VINA RESULT:      -5.1      1.914      3.728
REMARK  Name = 
REMARK  20 active torsions:
REMARK  status: ('A' for Active; 'I' for Inactive)
REMARK    1  A    between atoms: C_2  and  C_3
REMARK    2  A    between atoms: C_2  and  C_4
REMARK    3  A    between atoms: C_2  and  C_17
REMARK    4  A    between atoms: C_4  and  C_5
REMARK    5  A    between atoms: C_5  and  C_6
REMARK    6  A    between atoms: C_6  and  C_7
REMARK    7  A    between atoms: C_7  and  C_8
REMARK    8  A    between atoms: C_8  and  O_10
REMARK    9  A    between atoms: C_8  and  C_11
REMARK   10  A    between atoms: C_11  and  C_13
REMARK   11  A    between atoms: C_11  and  C_15
REMARK   12  A    between atoms: C_13  and  O_14
REMARK   13  A    between atoms: C_17  and  C_18
REMARK   14  A    between atoms: C_18  and  C_20
REMARK   15  A    between atoms: C_18  and  C_21
REMARK   16  A    between atoms: C_21  and  C_22
REMARK   17  A    between atoms: C_22  and  C_24
REMARK   18  A    between atoms: C_22  and  C_25
REMARK   19  A    between atoms: C_25  and  C_26
REMARK   20  A    between atoms: C_26  and  O_27
REMARK                            x       y       z     vdW  Elec       q    Type
REMARK                         _______ _______ _______ _____ _____    ______ ____
ROOT
ATOM      1  C   UNL     1       8.390  -1.467  25.144  0.00  0.00    -0.014 C 
ATOM      2  C   UNL     1       8.519  -1.505  26.673  0.00  0.00    +0.007 C 
ENDROOT
BRANCH   1   3
ATOM      3  C   UNL     1       9.257  -0.336  24.553  0.00  0.00    +0.003 C 
BRANCH   3   4
ATOM      4  C   UNL     1      10.249  -0.781  23.467  0.00  0.00    +0.000 C 
BRANCH   4   5
ATOM      5  C   UNL     1       9.880  -0.364  22.036  0.00  0.00    +0.003 C 
BRANCH   5   6
ATOM      6  C   UNL     1       8.547   0.384  21.989  0.00  0.00    +0.032 C 
BRANCH   6   7
ATOM      7  C   UNL     1       8.669   1.847  21.556  0.00  0.00    +0.127 C 
BRANCH   7   8
ATOM      8  O   UNL     1      10.043   2.225  21.601  0.00  0.00    -0.391 OA
ATOM      9  H   UNL     1      10.462   1.770  20.838  0.00  0.00    +0.210 HD
ENDBRANCH   7   8
BRANCH   7  10
ATOM     10  C   UNL     1       7.835   2.777  22.453  0.00  0.00    +0.106 C 
BRANCH  10  11
ATOM     11  C   UNL     1       8.738   3.599  23.350  0.00  0.00    +0.231 C 
ATOM     12  O   UNL     1       9.283   3.146  24.358  0.00  0.00    -0.301 OA
ENDBRANCH  10  11
BRANCH  10  13
ATOM     13  C   UNL     1       6.752   2.108  23.296  0.00  0.00    +0.169 C 
BRANCH  13  14
ATOM     14  O   UNL     1       5.488   2.105  22.658  0.00  0.00    -0.394 OA
ATOM     15  H   UNL     1       5.622   2.405  21.733  0.00  0.00    +0.209 HD
ENDBRANCH  13  14
ENDBRANCH  10  13
ENDBRANCH   7  10
ENDBRANCH   6   7
ENDBRANCH   5   6
ENDBRANCH   4   5
ENDBRANCH   3   4
ENDBRANCH   1   3
BRANCH   1  16
ATOM     16  C   UNL     1       6.901  -1.342  24.731  0.00  0.00    +0.006 C 
BRANCH  16  17
ATOM     17  C   UNL     1       6.381  -2.413  23.726  0.00  0.00    -0.014 C 
ATOM     18  C   UNL     1       5.277  -3.240  24.395  0.00  0.00    +0.007 C 
BRANCH  17  19
ATOM     19  C   UNL     1       7.513  -3.320  23.206  0.00  0.00    +0.007 C 
BRANCH  19  20
ATOM     20  C   UNL     1       7.476  -4.802  23.663  0.00  0.00    -0.003 C 
ATOM     21  C   UNL     1       7.323  -5.766  22.476  0.00  0.00    +0.008 C 
BRANCH  20  22
ATOM     22  C   UNL     1       8.728  -5.066  24.525  0.00  0.00    +0.123 C 
BRANCH  22  23
ATOM     23  C   UNL     1       8.439  -5.298  25.990  0.00  0.00    +0.305 C 
ATOM     24  O   UNL     1       7.391  -5.763  26.419  0.00  0.00    -0.251 OA
BRANCH  23  25
ATOM     25  O   UNL     1       9.446  -4.931  26.806  0.00  0.00    -0.481 OA
ATOM     26  H   UNL     1      10.068  -4.292  26.403  0.00  0.00    +0.295 HD
ENDBRANCH  23  25
ENDBRANCH  22  23
ENDBRANCH  20  22
ENDBRANCH  19  20
ENDBRANCH  17  19
ENDBRANCH  16  17
ENDBRANCH   1  16
TORSDOF 17
ENDMDL
MODEL 5
REMARK VINA RESULT:      -5.1      2.541      4.417
REMARK  Name = 
REMARK  20 active torsions:
REMARK  status: ('A' for Active; 'I' for Inactive)
REMARK    1  A    between atoms: C_2  and  C_3
REMARK    2  A    between atoms: C_2  and  C_4
REMARK    3  A    between atoms: C_2  and  C_17
REMARK    4  A    between atoms: C_4  and  C_5
REMARK    5  A    between atoms: C_5  and  C_6
REMARK    6  A    between atoms: C_6  and  C_7
REMARK    7  A    between atoms: C_7  and  C_8
REMARK    8  A    between atoms: C_8  and  O_10
REMARK    9  A    between atoms: C_8  and  C_11
REMARK   10  A    between atoms: C_11  and  C_13
REMARK   11  A    between atoms: C_11  and  C_15
REMARK   12  A    between atoms: C_13  and  O_14
REMARK   13  A    between atoms: C_17  and  C_18
REMARK   14  A    between atoms: C_18  and  C_20
REMARK   15  A    between atoms: C_18  and  C_21
REMARK   16  A    between atoms: C_21  and  C_22
REMARK   17  A    between atoms: C_22  and  C_24
REMARK   18  A    between atoms: C_22  and  C_25
REMARK   19  A    between atoms: C_25  and  C_26
REMARK   20  A    between atoms: C_26  and  O_27
REMARK                            x       y       z     vdW  Elec       q    Type
REMARK                         _______ _______ _______ _____ _____    ______ ____
ROOT
ATOM      1  C   UNL     1       9.286  -1.900  24.880  0.00  0.00    -0.014 C 
ATOM      2  C   UNL     1       7.796  -1.574  25.046  0.00  0.00    +0.007 C 
ENDROOT
BRANCH   1   3
ATOM      3  C   UNL     1       9.959  -0.899  23.918  0.00  0.00    +0.003 C 
BRANCH   3   4
ATOM      4  C   UNL     1      10.014  -1.349  22.450  0.00  0.00    +0.000 C 
BRANCH   4   5
ATOM      5  C   UNL     1       9.383  -0.373  21.446  0.00  0.00    +0.003 C 
BRANCH   5   6
ATOM      6  C   UNL     1       8.368   0.555  22.116  0.00  0.00    +0.032 C 
BRANCH   6   7
ATOM      7  C   UNL     1       8.665   2.044  21.924  0.00  0.00    +0.127 C 
BRANCH   7   8
ATOM      8  O   UNL     1       9.977   2.184  21.383  0.00  0.00    -0.391 OA
ATOM      9  H   UNL     1      10.209   3.130  21.510  0.00  0.00    +0.210 HD
ENDBRANCH   7   8
BRANCH   7  10
ATOM     10  C   UNL     1       8.552   2.821  23.246  0.00  0.00    +0.106 C 
BRANCH  10  11
ATOM     11  C   UNL     1       9.926   3.214  23.750  0.00  0.00    +0.231 C 
ATOM     12  O   UNL     1      10.835   2.404  23.936  0.00  0.00    -0.301 OA
ENDBRANCH  10  11
BRANCH  10  13
ATOM     13  C   UNL     1       7.776   2.135  24.368  0.00  0.00    +0.169 C 
BRANCH  13  14
ATOM     14  O   UNL     1       8.558   1.946  25.535  0.00  0.00    -0.394 OA
ATOM     15  H   UNL     1       8.357   1.050  25.883  0.00  0.00    +0.209 HD
ENDBRANCH  13  14
ENDBRANCH  10  13
ENDBRANCH   7  10
ENDBRANCH   6   7
ENDBRANCH   5   6
ENDBRANCH   4   5
ENDBRANCH   3   4
ENDBRANCH   1   3
BRANCH   1  16
ATOM     16  C   UNL     1       9.469  -3.369  24.421  0.00  0.00    +0.006 C 
BRANCH  16  17
ATOM     17  C   UNL     1       8.261  -4.319  24.678  0.00  0.00    -0.014 C 
ATOM     18  C   UNL     1       8.696  -5.443  25.626  0.00  0.00    +0.007 C 
BRANCH  17  19
ATOM     19  C   UNL     1       7.684  -4.893  23.369  0.00  0.00    +0.007 C 
BRANCH  19  20
ATOM     20  C   UNL     1       6.263  -4.414  22.972  0.00  0.00    -0.003 C 
ATOM     21  C   UNL     1       6.309  -3.229  21.995  0.00  0.00    +0.008 C 
BRANCH  20  22
ATOM     22  C   UNL     1       5.481  -5.633  22.440  0.00  0.00    +0.123 C 
BRANCH  22  23
ATOM     23  C   UNL     1       4.203  -5.930  23.191  0.00  0.00    +0.305 C 
ATOM     24  O   UNL     1       4.075  -6.845  23.994  0.00  0.00    -0.251 OA
BRANCH  23  25
ATOM     25  O   UNL     1       3.190  -5.097  22.886  0.00  0.00    -0.481 OA
ATOM     26  H   UNL     1       2.692  -4.779  23.665  0.00  0.00    +0.295 HD
ENDBRANCH  23  25
ENDBRANCH  22  23
ENDBRANCH  20  22
ENDBRANCH  19  20
ENDBRANCH  17  19
ENDBRANCH  16  17
ENDBRANCH   1  16
TORSDOF 17
ENDMDL
MODEL 6
REMARK VINA RESULT:      -5.1      3.324      8.535
REMARK  Name = 
REMARK  20 active torsions:
REMARK  status: ('A' for Active; 'I' for Inactive)
REMARK    1  A    between atoms: C_2  and  C_3
REMARK    2  A    between atoms: C_2  and  C_4
REMARK    3  A    between atoms: C_2  and  C_17
REMARK    4  A    between atoms: C_4  and  C_5
REMARK    5  A    between atoms: C_5  and  C_6
REMARK    6  A    between atoms: C_6  and  C_7
REMARK    7  A    between atoms: C_7  and  C_8
REMARK    8  A    between atoms: C_8  and  O_10
REMARK    9  A    between atoms: C_8  and  C_11
REMARK   10  A    between atoms: C_11  and  C_13
REMARK   11  A    between atoms: C_11  and  C_15
REMARK   12  A    between atoms: C_13  and  O_14
REMARK   13  A    between atoms: C_17  and  C_18
REMARK   14  A    between atoms: C_18  and  C_20
REMARK   15  A    between atoms: C_18  and  C_21
REMARK   16  A    between atoms: C_21  and  C_22
REMARK   17  A    between atoms: C_22  and  C_24
REMARK   18  A    between atoms: C_22  and  C_25
REMARK   19  A    between atoms: C_25  and  C_26
REMARK   20  A    between atoms: C_26  and  O_27
REMARK                            x       y       z     vdW  Elec       q    Type
REMARK                         _______ _______ _______ _____ _____    ______ ____
ROOT
ATOM      1  C   UNL     1      10.026   0.607  22.759  0.00  0.00    -0.014 C 
ATOM      2  C   UNL     1       9.533  -0.019  21.448  0.00  0.00    +0.007 C 
ENDROOT
BRANCH   1   3
ATOM      3  C   UNL     1       9.133   0.174  23.939  0.00  0.00    +0.003 C 
BRANCH   3   4
ATOM      4  C   UNL     1       9.667  -1.015  24.754  0.00  0.00    +0.000 C 
BRANCH   4   5
ATOM      5  C   UNL     1       8.706  -2.206  24.876  0.00  0.00    +0.003 C 
BRANCH   5   6
ATOM      6  C   UNL     1       8.501  -2.910  23.534  0.00  0.00    +0.032 C 
BRANCH   6   7
ATOM      7  C   UNL     1       7.842  -4.287  23.648  0.00  0.00    +0.127 C 
BRANCH   7   8
ATOM      8  O   UNL     1       8.820  -5.229  24.083  0.00  0.00    -0.391 OA
ATOM      9  H   UNL     1       9.685  -4.846  23.816  0.00  0.00    +0.210 HD
ENDBRANCH   7   8
BRANCH   7  10
ATOM     10  C   UNL     1       7.231  -4.738  22.311  0.00  0.00    +0.106 C 
BRANCH  10  11
ATOM     11  C   UNL     1       6.285  -3.682  21.776  0.00  0.00    +0.231 C 
ATOM     12  O   UNL     1       5.085  -3.646  22.056  0.00  0.00    -0.301 OA
ENDBRANCH  10  11
BRANCH  10  13
ATOM     13  C   UNL     1       6.532  -6.095  22.311  0.00  0.00    +0.169 C 
BRANCH  13  14
ATOM     14  O   UNL     1       5.730  -6.296  21.161  0.00  0.00    -0.394 OA
ATOM     15  H   UNL     1       4.799  -6.111  21.413  0.00  0.00    +0.209 HD
ENDBRANCH  13  14
ENDBRANCH  10  13
ENDBRANCH   7  10
ENDBRANCH   6   7
ENDBRANCH   5   6
ENDBRANCH   4   5
ENDBRANCH   3   4
ENDBRANCH   1   3
BRANCH   1  16
ATOM     16  C   UNL     1      10.109   2.150  22.622  0.00  0.00    +0.006 C 
BRANCH  16  17
ATOM     17  C   UNL     1       9.155   2.968  23.541  0.00  0.00    -0.014 C 
ATOM     18  C   UNL     1       8.019   3.555  22.694  0.00  0.00    +0.007 C 
BRANCH  17  19
ATOM     19  C   UNL     1       9.898   4.076  24.312  0.00  0.00    +0.007 C 
BRANCH  19  20
ATOM     20  C   UNL     1      10.475   5.241  23.465  0.00  0.00    -0.003 C 
ATOM     21  C   UNL     1       9.585   6.492  23.527  0.00  0.00    +0.008 C 
BRANCH  20  22
ATOM     22  C   UNL     1      11.929   5.485  23.918  0.00  0.00    +0.123 C 
BRANCH  22  23
ATOM     23  C   UNL     1      12.964   5.277  22.836  0.00  0.00    +0.305 C 
ATOM     24  O   UNL     1      12.732   5.365  21.637  0.00  0.00    -0.251 OA
BRANCH  23  25
ATOM     25  O   UNL     1      14.186   4.964  23.308  0.00  0.00    -0.481 OA
ATOM     26  H   UNL     1      14.390   5.368  24.175  0.00  0.00    +0.295 HD
ENDBRANCH  23  25
ENDBRANCH  22  23
ENDBRANCH  20  22
ENDBRANCH  19  20
ENDBRANCH  17  19
ENDBRANCH  16  17
ENDBRANCH   1  16
TORSDOF 17
ENDMDL
MODEL 7
REMARK VINA RESULT:      -5.1      2.398      4.147
REMARK  Name = 
REMARK  20 active torsions:
REMARK  status: ('A' for Active; 'I' for Inactive)
REMARK    1  A    between atoms: C_2  and  C_3
REMARK    2  A    between atoms: C_2  and  C_4
REMARK    3  A    between atoms: C_2  and  C_17
REMARK    4  A    between atoms: C_4  and  C_5
REMARK    5  A    between atoms: C_5  and  C_6
REMARK    6  A    between atoms: C_6  and  C_7
REMARK    7  A    between atoms: C_7  and  C_8
REMARK    8  A    between atoms: C_8  and  O_10
REMARK    9  A    between atoms: C_8  and  C_11
REMARK   10  A    between atoms: C_11  and  C_13
REMARK   11  A    between atoms: C_11  and  C_15
REMARK   12  A    between atoms: C_13  and  O_14
REMARK   13  A    between atoms: C_17  and  C_18
REMARK   14  A    between atoms: C_18  and  C_20
REMARK   15  A    between atoms: C_18  and  C_21
REMARK   16  A    between atoms: C_21  and  C_22
REMARK   17  A    between atoms: C_22  and  C_24
REMARK   18  A    between atoms: C_22  and  C_25
REMARK   19  A    between atoms: C_25  and  C_26
REMARK   20  A    between atoms: C_26  and  O_27
REMARK                            x       y       z     vdW  Elec       q    Type
REMARK                         _______ _______ _______ _____ _____    ______ ____
ROOT
ATOM      1  C   UNL     1       9.827  -1.197  24.480  0.00  0.00    -0.014 C 
ATOM      2  C   UNL     1      10.567   0.134  24.669  0.00  0.00    +0.007 C 
ENDROOT
BRANCH   1   3
ATOM      3  C   UNL     1      10.142  -1.804  23.097  0.00  0.00    +0.003 C 
BRANCH   3   4
ATOM      4  C   UNL     1       9.127  -1.466  21.995  0.00  0.00    +0.000 C 
BRANCH   4   5
ATOM      5  C   UNL     1       9.348  -0.116  21.297  0.00  0.00    +0.003 C 
BRANCH   5   6
ATOM      6  C   UNL     1       8.294   0.915  21.708  0.00  0.00    +0.032 C 
BRANCH   6   7
ATOM      7  C   UNL     1       8.834   2.341  21.827  0.00  0.00    +0.127 C 
BRANCH   7   8
ATOM      8  O   UNL     1      10.252   2.309  21.683  0.00  0.00    -0.391 OA
ATOM      9  H   UNL     1      10.542   1.496  22.151  0.00  0.00    +0.210 HD
ENDBRANCH   7   8
BRANCH   7  10
ATOM     10  C   UNL     1       8.454   2.982  23.173  0.00  0.00    +0.106 C 
BRANCH  10  11
ATOM     11  C   UNL     1       7.316   3.965  22.991  0.00  0.00    +0.231 C 
ATOM     12  O   UNL     1       7.080   4.879  23.783  0.00  0.00    -0.301 OA
ENDBRANCH  10  11
BRANCH  10  13
ATOM     13  C   UNL     1       9.588   3.653  23.945  0.00  0.00    +0.169 C 
BRANCH  13  14
ATOM     14  O   UNL     1      10.058   4.829  23.310  0.00  0.00    -0.394 OA
ATOM     15  H   UNL     1      10.832   4.580  22.760  0.00  0.00    +0.209 HD
ENDBRANCH  13  14
ENDBRANCH  10  13
ENDBRANCH   7  10
ENDBRANCH   6   7
ENDBRANCH   5   6
ENDBRANCH   4   5
ENDBRANCH   3   4
ENDBRANCH   1   3
BRANCH   1  16
ATOM     16  C   UNL     1       8.305  -1.004  24.704  0.00  0.00    +0.006 C 
BRANCH  16  17
ATOM     17  C   UNL     1       7.744  -1.527  26.060  0.00  0.00    -0.014 C 
ATOM     18  C   UNL     1       7.917  -0.442  27.129  0.00  0.00    +0.007 C 
BRANCH  17  19
ATOM     19  C   UNL     1       8.412  -2.845  26.496  0.00  0.00    +0.007 C 
BRANCH  19  20
ATOM     20  C   UNL     1       7.481  -4.077  26.645  0.00  0.00    -0.003 C 
ATOM     21  C   UNL     1       6.157  -3.890  25.889  0.00  0.00    +0.008 C 
BRANCH  20  22
ATOM     22  C   UNL     1       8.274  -5.328  26.217  0.00  0.00    +0.123 C 
BRANCH  22  23
ATOM     23  C   UNL     1       9.072  -5.157  24.945  0.00  0.00    +0.305 C 
ATOM     24  O   UNL     1       8.575  -4.955  23.844  0.00  0.00    -0.251 OA
BRANCH  23  25
ATOM     25  O   UNL     1      10.403  -5.260  25.122  0.00  0.00    -0.481 OA
ATOM     26  H   UNL     1      10.905  -4.482  24.809  0.00  0.00    +0.295 HD
ENDBRANCH  23  25
ENDBRANCH  22  23
ENDBRANCH  20  22
ENDBRANCH  19  20
ENDBRANCH  17  19
ENDBRANCH  16  17
ENDBRANCH   1  16
TORSDOF 17
ENDMDL
MODEL 8
REMARK VINA RESULT:      -5.1      1.550      2.821
REMARK  Name = 
REMARK  20 active torsions:
REMARK  status: ('A' for Active; 'I' for Inactive)
REMARK    1  A    between atoms: C_2  and  C_3
REMARK    2  A    between atoms: C_2  and  C_4
REMARK    3  A    between atoms: C_2  and  C_17
REMARK    4  A    between atoms: C_4  and  C_5
REMARK    5  A    between atoms: C_5  and  C_6
REMARK    6  A    between atoms: C_6  and  C_7
REMARK    7  A    between atoms: C_7  and  C_8
REMARK    8  A    between atoms: C_8  and  O_10
REMARK    9  A    between atoms: C_8  and  C_11
REMARK   10  A    between atoms: C_11  and  C_13
REMARK   11  A    between atoms: C_11  and  C_15
REMARK   12  A    between atoms: C_13  and  O_14
REMARK   13  A    between atoms: C_17  and  C_18
REMARK   14  A    between atoms: C_18  and  C_20
REMARK   15  A    between atoms: C_18  and  C_21
REMARK   16  A    between atoms: C_21  and  C_22
REMARK   17  A    between atoms: C_22  and  C_24
REMARK   18  A    between atoms: C_22  and  C_25
REMARK   19  A    between atoms: C_25  and  C_26
REMARK   20  A    between atoms: C_26  and  O_27
REMARK                            x       y       z     vdW  Elec       q    Type
REMARK                         _______ _______ _______ _____ _____    ______ ____
ROOT
ATOM      1  C   UNL     1       7.245  -2.353  23.223  0.00  0.00    -0.014 C 
ATOM      2  C   UNL     1       6.617  -0.962  23.067  0.00  0.00    +0.007 C 
ENDROOT
BRANCH   1   3
ATOM      3  C   UNL     1       8.697  -2.356  22.704  0.00  0.00    +0.003 C 
BRANCH   3   4
ATOM      4  C   UNL     1       9.770  -2.126  23.779  0.00  0.00    +0.000 C 
BRANCH   4   5
ATOM      5  C   UNL     1      10.360  -0.709  23.819  0.00  0.00    +0.003 C 
BRANCH   5   6
ATOM      6  C   UNL     1      10.188   0.015  22.483  0.00  0.00    +0.032 C 
BRANCH   6   7
ATOM      7  C   UNL     1       9.545   1.399  22.605  0.00  0.00    +0.127 C 
BRANCH   7   8
ATOM      8  O   UNL     1       9.846   2.149  21.430  0.00  0.00    -0.391 OA
ATOM      9  H   UNL     1      10.012   1.480  20.731  0.00  0.00    +0.210 HD
ENDBRANCH   7   8
BRANCH   7  10
ATOM     10  C   UNL     1      10.042   2.148  23.853  0.00  0.00    +0.106 C 
BRANCH  10  11
ATOM     11  C   UNL     1       8.879   2.506  24.755  0.00  0.00    +0.231 C 
ATOM     12  O   UNL     1       8.030   3.349  24.461  0.00  0.00    -0.301 OA
ENDBRANCH  10  11
BRANCH  10  13
ATOM     13  C   UNL     1      10.891   3.391  23.600  0.00  0.00    +0.169 C 
BRANCH  13  14
ATOM     14  O   UNL     1      10.136   4.470  23.075  0.00  0.00    -0.394 OA
ATOM     15  H   UNL     1      10.512   5.300  23.440  0.00  0.00    +0.209 HD
ENDBRANCH  13  14
ENDBRANCH  10  13
ENDBRANCH   7  10
ENDBRANCH   6   7
ENDBRANCH   5   6
ENDBRANCH   4   5
ENDBRANCH   3   4
ENDBRANCH   1   3
BRANCH   1  16
ATOM     16  C   UNL     1       6.368  -3.423  22.522  0.00  0.00    +0.006 C 
BRANCH  16  17
ATOM     17  C   UNL     1       6.643  -4.901  22.927  0.00  0.00    -0.014 C 
ATOM     18  C   UNL     1       6.616  -5.782  21.672  0.00  0.00    +0.007 C 
BRANCH  17  19
ATOM     19  C   UNL     1       5.642  -5.411  23.982  0.00  0.00    +0.007 C 
BRANCH  19  20
ATOM     20  C   UNL     1       6.075  -5.281  25.466  0.00  0.00    -0.003 C 
ATOM     21  C   UNL     1       5.383  -6.323  26.359  0.00  0.00    +0.008 C 
BRANCH  20  22
ATOM     22  C   UNL     1       7.615  -5.337  25.519  0.00  0.00    +0.123 C 
BRANCH  22  23
ATOM     23  C   UNL     1       8.245  -4.319  26.443  0.00  0.00    +0.305 C 
ATOM     24  O   UNL     1       7.779  -3.208  26.661  0.00  0.00    -0.251 OA
BRANCH  23  25
ATOM     25  O   UNL     1       9.393  -4.738  27.008  0.00  0.00    -0.481 OA
ATOM     26  H   UNL     1       9.929  -5.319  26.431  0.00  0.00    +0.295 HD
ENDBRANCH  23  25
ENDBRANCH  22  23
ENDBRANCH  20  22
ENDBRANCH  19  20
ENDBRANCH  17  19
ENDBRANCH  16  17
ENDBRANCH   1  16
TORSDOF 17
ENDMDL
MODEL 9
REMARK VINA RESULT:      -5.0      2.417      4.291
REMARK  Name = 
REMARK  20 active torsions:
REMARK  status: ('A' for Active; 'I' for Inactive)
REMARK    1  A    between atoms: C_2  and  C_3
REMARK    2  A    between atoms: C_2  and  C_4
REMARK    3  A    between atoms: C_2  and  C_17
REMARK    4  A    between atoms: C_4  and  C_5
REMARK    5  A    between atoms: C_5  and  C_6
REMARK    6  A    between atoms: C_6  and  C_7
REMARK    7  A    between atoms: C_7  and  C_8
REMARK    8  A    between atoms: C_8  and  O_10
REMARK    9  A    between atoms: C_8  and  C_11
REMARK   10  A    between atoms: C_11  and  C_13
REMARK   11  A    between atoms: C_11  and  C_15
REMARK   12  A    between atoms: C_13  and  O_14
REMARK   13  A    between atoms: C_17  and  C_18
REMARK   14  A    between atoms: C_18  and  C_20
REMARK   15  A    between atoms: C_18  and  C_21
REMARK   16  A    between atoms: C_21  and  C_22
REMARK   17  A    between atoms: C_22  and  C_24
REMARK   18  A    between atoms: C_22  and  C_25
REMARK   19  A    between atoms: C_25  and  C_26
REMARK   20  A    between atoms: C_26  and  O_27
REMARK                            x       y       z     vdW  Elec       q    Type
REMARK                         _______ _______ _______ _____ _____    ______ ____
ROOT
ATOM      1  C   UNL     1       8.614  -1.817  26.273  0.00  0.00    -0.014 C 
ATOM      2  C   UNL     1       7.287  -1.144  26.651  0.00  0.00    +0.007 C 
ENDROOT
BRANCH   1   3
ATOM      3  C   UNL     1       9.101  -1.325  24.895  0.00  0.00    +0.003 C 
BRANCH   3   4
ATOM      4  C   UNL     1       9.862   0.010  24.915  0.00  0.00    +0.000 C 
BRANCH   4   5
ATOM      5  C   UNL     1      10.581   0.370  23.607  0.00  0.00    +0.003 C 
BRANCH   5   6
ATOM      6  C   UNL     1       9.751  -0.010  22.379  0.00  0.00    +0.032 C 
BRANCH   6   7
ATOM      7  C   UNL     1       9.350   1.181  21.507  0.00  0.00    +0.127 C 
BRANCH   7   8
ATOM      8  O   UNL     1      10.286   2.236  21.713  0.00  0.00    -0.391 OA
ATOM      9  H   UNL     1      10.410   2.286  22.686  0.00  0.00    +0.210 HD
ENDBRANCH   7   8
BRANCH   7  10
ATOM     10  C   UNL     1       7.926   1.667  21.827  0.00  0.00    +0.106 C 
BRANCH  10  11
ATOM     11  C   UNL     1       7.970   3.000  22.547  0.00  0.00    +0.231 C 
ATOM     12  O   UNL     1       8.382   3.133  23.700  0.00  0.00    -0.301 OA
ENDBRANCH  10  11
BRANCH  10  13
ATOM     13  C   UNL     1       7.042   0.697  22.607  0.00  0.00    +0.169 C 
BRANCH  13  14
ATOM     14  O   UNL     1       6.092   1.360  23.422  0.00  0.00    -0.394 OA
ATOM     15  H   UNL     1       5.317   0.765  23.519  0.00  0.00    +0.209 HD
ENDBRANCH  13  14
ENDBRANCH  10  13
ENDBRANCH   7  10
ENDBRANCH   6   7
ENDBRANCH   5   6
ENDBRANCH   4   5
ENDBRANCH   3   4
ENDBRANCH   1   3
BRANCH   1  16
ATOM     16  C   UNL     1       8.471  -3.360  26.330  0.00  0.00    +0.006 C 
BRANCH  16  17
ATOM     17  C   UNL     1       7.071  -3.929  25.954  0.00  0.00    -0.014 C 
ATOM     18  C   UNL     1       6.521  -4.738  27.135  0.00  0.00    +0.007 C 
BRANCH  17  19
ATOM     19  C   UNL     1       7.115  -4.783  24.672  0.00  0.00    +0.007 C 
BRANCH  19  20
ATOM     20  C   UNL     1       6.257  -4.286  23.479  0.00  0.00    -0.003 C 
ATOM     21  C   UNL     1       5.892  -2.799  23.615  0.00  0.00    +0.008 C 
BRANCH  20  22
ATOM     22  C   UNL     1       7.007  -4.629  22.176  0.00  0.00    +0.123 C 
BRANCH  22  23
ATOM     23  C   UNL     1       6.347  -5.700  21.339  0.00  0.00    +0.305 C 
ATOM     24  O   UNL     1       5.999  -5.547  20.176  0.00  0.00    -0.251 OA
BRANCH  23  25
ATOM     25  O   UNL     1       6.154  -6.860  21.997  0.00  0.00    -0.481 OA
ATOM     26  H   UNL     1       5.662  -7.530  21.482  0.00  0.00    +0.295 HD
ENDBRANCH  23  25
ENDBRANCH  22  23
ENDBRANCH  20  22
ENDBRANCH  19  20
ENDBRANCH  17  19
ENDBRANCH  16  17
ENDBRANCH   1  16
TORSDOF 17
ENDMDL
