MODEL 1
REMARK VINA RESULT:      -4.5      0.000      0.000
REMARK  Name = 
REMARK  18 active torsions:
REMARK  status: ('A' for Active; 'I' for Inactive)
REMARK    1  A    between atoms: O_1  and  C_2
REMARK    2  A    between atoms: C_2  and  C_3
REMARK    3  A    between atoms: C_3  and  C_4
REMARK    4  A    between atoms: C_3  and  C_6
REMARK    5  A    between atoms: C_3  and  N_8
REMARK    6  A    between atoms: C_4  and  O_5
REMARK    7  A    between atoms: C_6  and  O_7
REMARK    8  A    between atoms: N_8  and  C_9
REMARK    9  A    between atoms: C_9  and  C_10
REMARK   10  A    between atoms: C_10  and  C_11
REMARK   11  A    between atoms: C_11  and  N_12
REMARK   12  A    between atoms: N_12  and  C_13
REMARK   13  A    between atoms: C_13  and  C_14
REMARK   14  A    between atoms: C_13  and  C_16
REMARK   15  A    between atoms: C_13  and  C_18
REMARK   16  A    between atoms: C_14  and  O_15
REMARK   17  A    between atoms: C_16  and  O_17
REMARK   18  A    between atoms: C_18  and  O_19
REMARK                            x       y       z     vdW  Elec       q    Type
REMARK                         _______ _______ _______ _____ _____    ______ ____
ROOT
ATOM      1  C   UNL     1       8.164  -0.502  26.165  0.00  0.00    +0.030 C 
ENDROOT
BRANCH   1   2
ATOM      2  C   UNL     1       8.131  -2.028  26.316  0.00  0.00    +0.083 C 
BRANCH   2   3
ATOM      3  N   UNL     1       7.408  -2.693  25.224  0.00  0.00    -0.305 NA
ATOM      4  H   UNL     1       7.484  -2.097  24.394  0.00  0.00    +0.123 HD
BRANCH   3   5
ATOM      5  C   UNL     1       7.950  -4.041  24.845  0.00  0.00    +0.089 C 
BRANCH   5   6
ATOM      6  C   UNL     1       9.495  -4.129  24.990  0.00  0.00    +0.182 C 
BRANCH   6   7
ATOM      7  O   UNL     1      10.171  -3.367  23.989  0.00  0.00    -0.393 OA
ATOM      8  H   UNL     1       9.939  -3.733  23.118  0.00  0.00    +0.209 HD
ENDBRANCH   6   7
ENDBRANCH   5   6
BRANCH   5   9
ATOM      9  C   UNL     1       7.298  -5.156  25.707  0.00  0.00    +0.182 C 
BRANCH   9  10
ATOM     10  O   UNL     1       8.262  -5.808  26.535  0.00  0.00    -0.393 OA
ATOM     11  H   UNL     1       8.497  -6.652  26.087  0.00  0.00    +0.209 HD
ENDBRANCH   9  10
ENDBRANCH   5   9
BRANCH   5  12
ATOM     12  C   UNL     1       7.597  -4.306  23.341  0.00  0.00    +0.182 C 
BRANCH  12  13
ATOM     13  O   UNL     1       7.746  -3.160  22.499  0.00  0.00    -0.393 OA
ATOM     14  H   UNL     1       6.948  -3.141  21.931  0.00  0.00    +0.209 HD
ENDBRANCH  12  13
ENDBRANCH   5  12
ENDBRANCH   3   5
ENDBRANCH   2   3
ENDBRANCH   1   2
BRANCH   1  15
ATOM     15  C   UNL     1       9.218   0.050  25.199  0.00  0.00    +0.083 C 
BRANCH  15  16
ATOM     16  N   UNL     1       9.249  -0.661  23.911  0.00  0.00    -0.305 NA
ATOM     17  H   UNL     1      10.217  -0.962  23.766  0.00  0.00    +0.123 HD
BRANCH  16  18
ATOM     18  C   UNL     1       8.933   0.228  22.737  0.00  0.00    +0.089 C 
BRANCH  18  19
ATOM     19  C   UNL     1       9.359  -0.385  21.370  0.00  0.00    +0.182 C 
BRANCH  19  20
ATOM     20  O   UNL     1      10.075  -1.615  21.491  0.00  0.00    -0.393 OA
ATOM     21  H   UNL     1      10.387  -1.668  22.418  0.00  0.00    +0.209 HD
ENDBRANCH  19  20
ENDBRANCH  18  19
BRANCH  18  22
ATOM     22  C   UNL     1       9.730   1.545  22.981  0.00  0.00    +0.182 C 
BRANCH  22  23
ATOM     23  O   UNL     1      10.120   2.131  21.739  0.00  0.00    -0.393 OA
ATOM     24  H   UNL     1       9.418   1.849  21.111  0.00  0.00    +0.209 HD
ENDBRANCH  22  23
ENDBRANCH  18  22
BRANCH  18  25
ATOM     25  C   UNL     1       7.423   0.590  22.683  0.00  0.00    +0.182 C 
BRANCH  25  26
ATOM     26  O   UNL     1       6.629  -0.572  22.932  0.00  0.00    -0.393 OA
ATOM     27  H   UNL     1       6.902  -1.244  22.279  0.00  0.00    +0.209 HD
ENDBRANCH  25  26
ENDBRANCH  18  25
ENDBRANCH  16  18
ENDBRANCH  15  16
ENDBRANCH   1  15
TORSDOF 18
ENDMDL
MODEL 2
REMARK VINA RESULT:      -4.4      0.835      2.878
REMARK  Name = 
REMARK  18 active torsions:
REMARK  status: ('A' for Active; 'I' for Inactive)
REMARK    1  A    between atoms: O_1  and  C_2
REMARK    2  A    between atoms: C_2  and  C_3
REMARK    3  A    between atoms: C_3  and  C_4
REMARK    4  A    between atoms: C_3  and  C_6
REMARK    5  A    between atoms: C_3  and  N_8
REMARK    6  A    between atoms: C_4  and  O_5
REMARK    7  A    between atoms: C_6  and  O_7
REMARK    8  A    between atoms: N_8  and  C_9
REMARK    9  A    between atoms: C_9  and  C_10
REMARK   10  A    between atoms: C_10  and  C_11
REMARK   11  A    between atoms: C_11  and  N_12
REMARK   12  A    between atoms: N_12  and  C_13
REMARK   13  A    between atoms: C_13  and  C_14
REMARK   14  A    between atoms: C_13  and  C_16
REMARK   15  A    between atoms: C_13  and  C_18
REMARK   16  A    between atoms: C_14  and  O_15
REMARK   17  A    between atoms: C_16  and  O_17
REMARK   18  A    between atoms: C_18  and  O_19
REMARK                            x       y       z     vdW  Elec       q    Type
REMARK                         _______ _______ _______ _____ _____    ______ ____
ROOT
ATOM      1  C   UNL     1       8.616  -0.592  26.352  0.00  0.00    +0.030 C 
ENDROOT
BRANCH   1   2
ATOM      2  C   UNL     1       8.631  -2.109  26.576  0.00  0.00    +0.083 C 
BRANCH   2   3
ATOM      3  N   UNL     1       7.691  -2.824  25.703  0.00  0.00    -0.305 NA
ATOM      4  H   UNL     1       7.718  -2.373  24.784  0.00  0.00    +0.123 HD
BRANCH   3   5
ATOM      5  C   UNL     1       8.015  -4.274  25.488  0.00  0.00    +0.089 C 
BRANCH   5   6
ATOM      6  C   UNL     1       7.036  -5.223  26.236  0.00  0.00    +0.182 C 
BRANCH   6   7
ATOM      7  O   UNL     1       7.701  -5.997  27.236  0.00  0.00    -0.393 OA
ATOM      8  H   UNL     1       7.310  -5.781  28.100  0.00  0.00    +0.209 HD
ENDBRANCH   6   7
ENDBRANCH   5   6
BRANCH   5   9
ATOM      9  C   UNL     1       7.997  -4.621  23.975  0.00  0.00    +0.182 C 
BRANCH   9  10
ATOM     10  O   UNL     1       8.764  -3.687  23.214  0.00  0.00    -0.393 OA
ATOM     11  H   UNL     1       8.604  -3.894  22.266  0.00  0.00    +0.209 HD
ENDBRANCH   9  10
ENDBRANCH   5   9
BRANCH   5  12
ATOM     12  C   UNL     1       9.456  -4.542  26.044  0.00  0.00    +0.182 C 
BRANCH  12  13
ATOM     13  O   UNL     1      10.188  -5.525  25.310  0.00  0.00    -0.393 OA
ATOM     14  H   UNL     1      10.954  -5.762  25.873  0.00  0.00    +0.209 HD
ENDBRANCH  12  13
ENDBRANCH   5  12
ENDBRANCH   3   5
ENDBRANCH   2   3
ENDBRANCH   1   2
BRANCH   1  15
ATOM     15  C   UNL     1       9.564  -0.068  25.267  0.00  0.00    +0.083 C 
BRANCH  15  16
ATOM     16  N   UNL     1       9.474  -0.824  24.008  0.00  0.00    -0.305 NA
ATOM     17  H   UNL     1      10.428  -1.114  23.772  0.00  0.00    +0.123 HD
BRANCH  16  18
ATOM     18  C   UNL     1       9.019   0.017  22.845  0.00  0.00    +0.089 C 
BRANCH  18  19
ATOM     19  C   UNL     1       9.552   1.480  22.900  0.00  0.00    +0.182 C 
BRANCH  19  20
ATOM     20  O   UNL     1       9.956   1.991  21.629  0.00  0.00    -0.393 OA
ATOM     21  H   UNL     1      10.737   2.560  21.791  0.00  0.00    +0.209 HD
ENDBRANCH  19  20
ENDBRANCH  18  19
BRANCH  18  22
ATOM     22  C   UNL     1       7.463   0.033  22.921  0.00  0.00    +0.182 C 
BRANCH  22  23
ATOM     23  O   UNL     1       6.961  -1.278  23.183  0.00  0.00    -0.393 OA
ATOM     24  H   UNL     1       6.033  -1.246  22.860  0.00  0.00    +0.209 HD
ENDBRANCH  22  23
ENDBRANCH  18  22
BRANCH  18  25
ATOM     25  C   UNL     1       9.421  -0.620  21.485  0.00  0.00    +0.182 C 
BRANCH  25  26
ATOM     26  O   UNL     1      10.353  -1.683  21.696  0.00  0.00    -0.393 OA
ATOM     27  H   UNL     1      10.830  -1.478  22.523  0.00  0.00    +0.209 HD
ENDBRANCH  25  26
ENDBRANCH  18  25
ENDBRANCH  16  18
ENDBRANCH  15  16
ENDBRANCH   1  15
TORSDOF 18
ENDMDL
MODEL 3
REMARK VINA RESULT:      -4.3      1.532      2.880
REMARK  Name = 
REMARK  18 active torsions:
REMARK  status: ('A' for Active; 'I' for Inactive)
REMARK    1  A    between atoms: O_1  and  C_2
REMARK    2  A    between atoms: C_2  and  C_3
REMARK    3  A    between atoms: C_3  and  C_4
REMARK    4  A    between atoms: C_3  and  C_6
REMARK    5  A    between atoms: C_3  and  N_8
REMARK    6  A    between atoms: C_4  and  O_5
REMARK    7  A    between atoms: C_6  and  O_7
REMARK    8  A    between atoms: N_8  and  C_9
REMARK    9  A    between atoms: C_9  and  C_10
REMARK   10  A    between atoms: C_10  and  C_11
REMARK   11  A    between atoms: C_11  and  N_12
REMARK   12  A    between atoms: N_12  and  C_13
REMARK   13  A    between atoms: C_13  and  C_14
REMARK   14  A    between atoms: C_13  and  C_16
REMARK   15  A    between atoms: C_13  and  C_18
REMARK   16  A    between atoms: C_14  and  O_15
REMARK   17  A    between atoms: C_16  and  O_17
REMARK   18  A    between atoms: C_18  and  O_19
REMARK                            x       y       z     vdW  Elec       q    Type
REMARK                         _______ _______ _______ _____ _____    ______ ____
ROOT
ATOM      1  C   UNL     1       6.360  -1.121  25.150  0.00  0.00    +0.030 C 
ENDROOT
BRANCH   1   2
ATOM      2  C   UNL     1       6.816  -2.192  26.148  0.00  0.00    +0.083 C 
BRANCH   2   3
ATOM      3  N   UNL     1       8.126  -2.766  25.810  0.00  0.00    -0.305 NA
ATOM      4  H   UNL     1       8.784  -2.490  26.545  0.00  0.00    +0.123 HD
BRANCH   3   5
ATOM      5  C   UNL     1       8.152  -4.264  25.737  0.00  0.00    +0.089 C 
BRANCH   5   6
ATOM      6  C   UNL     1       7.665  -4.806  24.364  0.00  0.00    +0.182 C 
BRANCH   6   7
ATOM      7  O   UNL     1       7.996  -3.923  23.292  0.00  0.00    -0.393 OA
ATOM      8  H   UNL     1       7.967  -3.010  23.627  0.00  0.00    +0.209 HD
ENDBRANCH   6   7
ENDBRANCH   5   6
BRANCH   5   9
ATOM      9  C   UNL     1       9.583  -4.801  26.012  0.00  0.00    +0.182 C 
BRANCH   9  10
ATOM     10  O   UNL     1      10.270  -5.106  24.798  0.00  0.00    -0.393 OA
ATOM     11  H   UNL     1      11.171  -4.717  24.875  0.00  0.00    +0.209 HD
ENDBRANCH   9  10
ENDBRANCH   5   9
BRANCH   5  12
ATOM     12  C   UNL     1       7.189  -4.826  26.839  0.00  0.00    +0.182 C 
BRANCH  12  13
ATOM     13  O   UNL     1       7.749  -5.890  27.612  0.00  0.00    -0.393 OA
ATOM     14  H   UNL     1       7.843  -6.646  26.996  0.00  0.00    +0.209 HD
ENDBRANCH  12  13
ENDBRANCH   5  12
ENDBRANCH   3   5
ENDBRANCH   2   3
ENDBRANCH   1   2
BRANCH   1  15
ATOM     15  C   UNL     1       7.470  -0.246  24.557  0.00  0.00    +0.083 C 
BRANCH  15  16
ATOM     16  N   UNL     1       8.061  -0.812  23.335  0.00  0.00    -0.305 NA
ATOM     17  H   UNL     1       8.374  -1.758  23.571  0.00  0.00    +0.123 HD
BRANCH  16  18
ATOM     18  C   UNL     1       9.303  -0.088  22.888  0.00  0.00    +0.089 C 
BRANCH  18  19
ATOM     19  C   UNL     1       9.116   0.682  21.547  0.00  0.00    +0.182 C 
BRANCH  19  20
ATOM     20  O   UNL     1       9.849   1.905  21.479  0.00  0.00    -0.393 OA
ATOM     21  H   UNL     1      10.454   1.913  22.249  0.00  0.00    +0.209 HD
ENDBRANCH  19  20
ENDBRANCH  18  19
BRANCH  18  22
ATOM     22  C   UNL     1      10.389  -1.189  22.701  0.00  0.00    +0.182 C 
BRANCH  22  23
ATOM     23  O   UNL     1      10.182  -2.259  23.624  0.00  0.00    -0.393 OA
ATOM     24  H   UNL     1      11.084  -2.465  23.956  0.00  0.00    +0.209 HD
ENDBRANCH  22  23
ENDBRANCH  18  22
BRANCH  18  25
ATOM     25  C   UNL     1       9.812   0.901  23.974  0.00  0.00    +0.182 C 
BRANCH  25  26
ATOM     26  O   UNL     1      11.022   0.412  24.555  0.00  0.00    -0.393 OA
ATOM     27  H   UNL     1      10.784   0.028  25.421  0.00  0.00    +0.209 HD
ENDBRANCH  25  26
ENDBRANCH  18  25
ENDBRANCH  16  18
ENDBRANCH  15  16
ENDBRANCH   1  15
TORSDOF 18
ENDMDL
MODEL 4
REMARK VINA RESULT:      -4.3      1.736      5.458
REMARK  Name = 
REMARK  18 active torsions:
REMARK  status: ('A' for Active; 'I' for Inactive)
REMARK    1  A    between atoms: O_1  and  C_2
REMARK    2  A    between atoms: C_2  and  C_3
REMARK    3  A    between atoms: C_3  and  C_4
REMARK    4  A    between atoms: C_3  and  C_6
REMARK    5  A    between atoms: C_3  and  N_8
REMARK    6  A    between atoms: C_4  and  O_5
REMARK    7  A    between atoms: C_6  and  O_7
REMARK    8  A    between atoms: N_8  and  C_9
REMARK    9  A    between atoms: C_9  and  C_10
REMARK   10  A    between atoms: C_10  and  C_11
REMARK   11  A    between atoms: C_11  and  N_12
REMARK   12  A    between atoms: N_12  and  C_13
REMARK   13  A    between atoms: C_13  and  C_14
REMARK   14  A    between atoms: C_13  and  C_16
REMARK   15  A    between atoms: C_13  and  C_18
REMARK   16  A    between atoms: C_14  and  O_15
REMARK   17  A    between atoms: C_16  and  O_17
REMARK   18  A    between atoms: C_18  and  O_19
REMARK                            x       y       z     vdW  Elec       q    Type
REMARK                         _______ _______ _______ _____ _____    ______ ____
ROOT
ATOM      1  C   UNL     1       6.514  -1.950  23.231  0.00  0.00    +0.030 C 
ENDROOT
BRANCH   1   2
ATOM      2  C   UNL     1       7.177  -0.630  22.819  0.00  0.00    +0.083 C 
BRANCH   2   3
ATOM      3  N   UNL     1       8.218  -0.196  23.761  0.00  0.00    -0.305 NA
ATOM      4  H   UNL     1       8.496  -1.013  24.313  0.00  0.00    +0.123 HD
BRANCH   3   5
ATOM      5  C   UNL     1       9.461   0.341  23.116  0.00  0.00    +0.089 C 
BRANCH   5   6
ATOM      6  C   UNL     1       9.360   1.859  22.790  0.00  0.00    +0.182 C 
BRANCH   6   7
ATOM      7  O   UNL     1       9.479   2.114  21.390  0.00  0.00    -0.393 OA
ATOM      8  H   UNL     1       8.595   2.048  20.990  0.00  0.00    +0.209 HD
ENDBRANCH   6   7
ENDBRANCH   5   6
BRANCH   5   9
ATOM      9  C   UNL     1      10.697   0.102  24.024  0.00  0.00    +0.182 C 
BRANCH   9  10
ATOM     10  O   UNL     1      10.424   0.449  25.382  0.00  0.00    -0.393 OA
ATOM     11  H   UNL     1      10.194  -0.386  25.849  0.00  0.00    +0.209 HD
ENDBRANCH   9  10
ENDBRANCH   5   9
BRANCH   5  12
ATOM     12  C   UNL     1       9.681  -0.422  21.764  0.00  0.00    +0.182 C 
BRANCH  12  13
ATOM     13  O   UNL     1      10.410  -1.644  21.899  0.00  0.00    -0.393 OA
ATOM     14  H   UNL     1      11.050  -1.494  22.626  0.00  0.00    +0.209 HD
ENDBRANCH  12  13
ENDBRANCH   5  12
ENDBRANCH   3   5
ENDBRANCH   2   3
ENDBRANCH   1   2
BRANCH   1  15
ATOM     15  C   UNL     1       7.359  -3.212  23.027  0.00  0.00    +0.083 C 
BRANCH  15  16
ATOM     16  N   UNL     1       8.588  -3.223  23.835  0.00  0.00    -0.305 NA
ATOM     17  H   UNL     1       9.291  -3.733  23.293  0.00  0.00    +0.123 HD
BRANCH  16  18
ATOM     18  C   UNL     1       8.444  -3.995  25.120  0.00  0.00    +0.089 C 
BRANCH  18  19
ATOM     19  C   UNL     1       8.102  -3.093  26.343  0.00  0.00    +0.182 C 
BRANCH  19  20
ATOM     20  O   UNL     1       8.680  -1.789  26.274  0.00  0.00    -0.393 OA
ATOM     21  H   UNL     1       9.546  -1.888  25.827  0.00  0.00    +0.209 HD
ENDBRANCH  19  20
ENDBRANCH  18  19
BRANCH  18  22
ATOM     22  C   UNL     1       9.824  -4.680  25.355  0.00  0.00    +0.182 C 
BRANCH  22  23
ATOM     23  O   UNL     1       9.750  -6.072  25.050  0.00  0.00    -0.393 OA
ATOM     24  H   UNL     1      10.689  -6.339  24.928  0.00  0.00    +0.209 HD
ENDBRANCH  22  23
ENDBRANCH  18  22
BRANCH  18  25
ATOM     25  C   UNL     1       7.373  -5.114  24.999  0.00  0.00    +0.182 C 
BRANCH  25  26
ATOM     26  O   UNL     1       7.201  -5.768  26.258  0.00  0.00    -0.393 OA
ATOM     27  H   UNL     1       7.172  -5.067  26.937  0.00  0.00    +0.209 HD
ENDBRANCH  25  26
ENDBRANCH  18  25
ENDBRANCH  16  18
ENDBRANCH  15  16
ENDBRANCH   1  15
TORSDOF 18
ENDMDL
MODEL 5
REMARK VINA RESULT:      -4.3      2.025      3.256
REMARK  Name = 
REMARK  18 active torsions:
REMARK  status: ('A' for Active; 'I' for Inactive)
REMARK    1  A    between atoms: O_1  and  C_2
REMARK    2  A    between atoms: C_2  and  C_3
REMARK    3  A    between atoms: C_3  and  C_4
REMARK    4  A    between atoms: C_3  and  C_6
REMARK    5  A    between atoms: C_3  and  N_8
REMARK    6  A    between atoms: C_4  and  O_5
REMARK    7  A    between atoms: C_6  and  O_7
REMARK    8  A    between atoms: N_8  and  C_9
REMARK    9  A    between atoms: C_9  and  C_10
REMARK   10  A    between atoms: C_10  and  C_11
REMARK   11  A    between atoms: C_11  and  N_12
REMARK   12  A    between atoms: N_12  and  C_13
REMARK   13  A    between atoms: C_13  and  C_14
REMARK   14  A    between atoms: C_13  and  C_16
REMARK   15  A    between atoms: C_13  and  C_18
REMARK   16  A    between atoms: C_14  and  O_15
REMARK   17  A    between atoms: C_16  and  O_17
REMARK   18  A    between atoms: C_18  and  O_19
REMARK                            x       y       z     vdW  Elec       q    Type
REMARK                         _______ _______ _______ _____ _____    ______ ____
ROOT
ATOM      1  C   UNL     1       7.568  -2.764  22.266  0.00  0.00    +0.030 C 
ENDROOT
BRANCH   1   2
ATOM      2  C   UNL     1       7.585  -3.999  23.175  0.00  0.00    +0.083 C 
BRANCH   2   3
ATOM      3  N   UNL     1       7.172  -3.699  24.552  0.00  0.00    -0.305 NA
ATOM      4  H   UNL     1       6.268  -4.155  24.710  0.00  0.00    +0.123 HD
BRANCH   3   5
ATOM      5  C   UNL     1       8.108  -4.204  25.611  0.00  0.00    +0.089 C 
BRANCH   5   6
ATOM      6  C   UNL     1       9.038  -5.339  25.097  0.00  0.00    +0.182 C 
BRANCH   6   7
ATOM      7  O   UNL     1      10.240  -5.434  25.863  0.00  0.00    -0.393 OA
ATOM      8  H   UNL     1      10.041  -5.913  26.686  0.00  0.00    +0.209 HD
ENDBRANCH   6   7
ENDBRANCH   5   6
BRANCH   5   9
ATOM      9  C   UNL     1       8.983  -3.048  26.166  0.00  0.00    +0.182 C 
BRANCH   9  10
ATOM     10  O   UNL     1       8.263  -1.814  26.197  0.00  0.00    -0.393 OA
ATOM     11  H   UNL     1       8.930  -1.098  26.297  0.00  0.00    +0.209 HD
ENDBRANCH   9  10
ENDBRANCH   5   9
BRANCH   5  12
ATOM     12  C   UNL     1       7.250  -4.787  26.787  0.00  0.00    +0.182 C 
BRANCH  12  13
ATOM     13  O   UNL     1       7.892  -5.840  27.508  0.00  0.00    -0.393 OA
ATOM     14  H   UNL     1       8.823  -5.844  27.201  0.00  0.00    +0.209 HD
ENDBRANCH  12  13
ENDBRANCH   5  12
ENDBRANCH   3   5
ENDBRANCH   2   3
ENDBRANCH   1   2
BRANCH   1  15
ATOM     15  C   UNL     1       8.692  -1.748  22.501  0.00  0.00    +0.083 C 
BRANCH  15  16
ATOM     16  N   UNL     1       8.312  -0.669  23.426  0.00  0.00    -0.305 NA
ATOM     17  H   UNL     1       7.399  -0.324  23.116  0.00  0.00    +0.123 HD
BRANCH  16  18
ATOM     18  C   UNL     1       9.229   0.523  23.353  0.00  0.00    +0.089 C 
BRANCH  18  19
ATOM     19  C   UNL     1       8.557   1.844  23.832  0.00  0.00    +0.182 C 
BRANCH  19  20
ATOM     20  O   UNL     1       9.482   2.807  24.339  0.00  0.00    -0.393 OA
ATOM     21  H   UNL     1      10.262   2.308  24.657  0.00  0.00    +0.209 HD
ENDBRANCH  19  20
ENDBRANCH  18  19
BRANCH  18  22
ATOM     22  C   UNL     1       9.621   0.660  21.851  0.00  0.00    +0.182 C 
BRANCH  22  23
ATOM     23  O   UNL     1      10.007   2.003  21.555  0.00  0.00    -0.393 OA
ATOM     24  H   UNL     1      10.982   2.002  21.676  0.00  0.00    +0.209 HD
ENDBRANCH  22  23
ENDBRANCH  18  22
BRANCH  18  25
ATOM     25  C   UNL     1      10.534   0.293  24.165  0.00  0.00    +0.182 C 
BRANCH  25  26
ATOM     26  O   UNL     1      10.250   0.306  25.566  0.00  0.00    -0.393 OA
ATOM     27  H   UNL     1      10.569  -0.544  25.925  0.00  0.00    +0.209 HD
ENDBRANCH  25  26
ENDBRANCH  18  25
ENDBRANCH  16  18
ENDBRANCH  15  16
ENDBRANCH   1  15
TORSDOF 18
ENDMDL
MODEL 6
REMARK VINA RESULT:      -4.3      0.905      5.260
REMARK  Name = 
REMARK  18 active torsions:
REMARK  status: ('A' for Active; 'I' for Inactive)
REMARK    1  A    between atoms: O_1  and  C_2
REMARK    2  A    between atoms: C_2  and  C_3
REMARK    3  A    between atoms: C_3  and  C_4
REMARK    4  A    between atoms: C_3  and  C_6
REMARK    5  A    between atoms: C_3  and  N_8
REMARK    6  A    between atoms: C_4  and  O_5
REMARK    7  A    between atoms: C_6  and  O_7
REMARK    8  A    between atoms: N_8  and  C_9
REMARK    9  A    between atoms: C_9  and  C_10
REMARK   10  A    between atoms: C_10  and  C_11
REMARK   11  A    between atoms: C_11  and  N_12
REMARK   12  A    between atoms: N_12  and  C_13
REMARK   13  A    between atoms: C_13  and  C_14
REMARK   14  A    between atoms: C_13  and  C_16
REMARK   15  A    between atoms: C_13  and  C_18
REMARK   16  A    between atoms: C_14  and  O_15
REMARK   17  A    between atoms: C_16  and  O_17
REMARK   18  A    between atoms: C_18  and  O_19
REMARK                            x       y       z     vdW  Elec       q    Type
REMARK                         _______ _______ _______ _____ _____    ______ ____
ROOT
ATOM      1  C   UNL     1       8.599  -0.693  26.241  0.00  0.00    +0.030 C 
ENDROOT
BRANCH   1   2
ATOM      2  C   UNL     1       9.592  -0.240  25.164  0.00  0.00    +0.083 C 
BRANCH   2   3
ATOM      3  N   UNL     1       9.300  -0.809  23.842  0.00  0.00    -0.305 NA
ATOM      4  H   UNL     1       8.414  -1.318  23.913  0.00  0.00    +0.123 HD
BRANCH   3   5
ATOM      5  C   UNL     1       9.137   0.203  22.746  0.00  0.00    +0.089 C 
BRANCH   5   6
ATOM      6  C   UNL     1      10.073   1.432  22.922  0.00  0.00    +0.182 C 
BRANCH   6   7
ATOM      7  O   UNL     1      10.161   2.212  21.729  0.00  0.00    -0.393 OA
ATOM      8  H   UNL     1      10.441   1.630  21.002  0.00  0.00    +0.209 HD
ENDBRANCH   6   7
ENDBRANCH   5   6
BRANCH   5   9
ATOM      9  C   UNL     1       9.407  -0.442  21.360  0.00  0.00    +0.182 C 
BRANCH   9  10
ATOM     10  O   UNL     1      10.196  -1.626  21.477  0.00  0.00    -0.393 OA
ATOM     11  H   UNL     1       9.583  -2.352  21.733  0.00  0.00    +0.209 HD
ENDBRANCH   9  10
ENDBRANCH   5   9
BRANCH   5  12
ATOM     12  C   UNL     1       7.658   0.723  22.775  0.00  0.00    +0.182 C 
BRANCH  12  13
ATOM     13  O   UNL     1       7.522   2.059  23.262  0.00  0.00    -0.393 OA
ATOM     14  H   UNL     1       6.609   2.123  23.613  0.00  0.00    +0.209 HD
ENDBRANCH  12  13
ENDBRANCH   5  12
ENDBRANCH   3   5
ENDBRANCH   2   3
ENDBRANCH   1   2
BRANCH   1  15
ATOM     15  C   UNL     1       8.483  -2.208  26.445  0.00  0.00    +0.083 C 
BRANCH  15  16
ATOM     16  N   UNL     1       7.500  -2.839  25.550  0.00  0.00    -0.305 NA
ATOM     17  H   UNL     1       6.655  -2.995  26.106  0.00  0.00    +0.123 HD
BRANCH  16  18
ATOM     18  C   UNL     1       7.920  -4.206  25.080  0.00  0.00    +0.089 C 
BRANCH  18  19
ATOM     19  C   UNL     1       9.462  -4.424  25.126  0.00  0.00    +0.182 C 
BRANCH  19  20
ATOM     20  O   UNL     1       9.865  -5.750  24.785  0.00  0.00    -0.393 OA
ATOM     21  H   UNL     1      10.623  -5.972  25.365  0.00  0.00    +0.209 HD
ENDBRANCH  19  20
ENDBRANCH  18  19
BRANCH  18  22
ATOM     22  C   UNL     1       7.429  -4.313  23.606  0.00  0.00    +0.182 C 
BRANCH  22  23
ATOM     23  O   UNL     1       8.056  -3.319  22.795  0.00  0.00    -0.393 OA
ATOM     24  H   UNL     1       7.371  -2.620  22.702  0.00  0.00    +0.209 HD
ENDBRANCH  22  23
ENDBRANCH  18  22
BRANCH  18  25
ATOM     25  C   UNL     1       7.224  -5.331  25.895  0.00  0.00    +0.182 C 
BRANCH  25  26
ATOM     26  O   UNL     1       8.093  -5.800  26.928  0.00  0.00    -0.393 OA
ATOM     27  H   UNL     1       9.005  -5.711  26.590  0.00  0.00    +0.209 HD
ENDBRANCH  25  26
ENDBRANCH  18  25
ENDBRANCH  16  18
ENDBRANCH  15  16
ENDBRANCH   1  15
TORSDOF 18
ENDMDL
MODEL 7
REMARK VINA RESULT:      -4.3      2.009      2.900
REMARK  Name = 
REMARK  18 active torsions:
REMARK  status: ('A' for Active; 'I' for Inactive)
REMARK    1  A    between atoms: O_1  and  C_2
REMARK    2  A    between atoms: C_2  and  C_3
REMARK    3  A    between atoms: C_3  and  C_4
REMARK    4  A    between atoms: C_3  and  C_6
REMARK    5  A    between atoms: C_3  and  N_8
REMARK    6  A    between atoms: C_4  and  O_5
REMARK    7  A    between atoms: C_6  and  O_7
REMARK    8  A    between atoms: N_8  and  C_9
REMARK    9  A    between atoms: C_9  and  C_10
REMARK   10  A    between atoms: C_10  and  C_11
REMARK   11  A    between atoms: C_11  and  N_12
REMARK   12  A    between atoms: N_12  and  C_13
REMARK   13  A    between atoms: C_13  and  C_14
REMARK   14  A    between atoms: C_13  and  C_16
REMARK   15  A    between atoms: C_13  and  C_18
REMARK   16  A    between atoms: C_14  and  O_15
REMARK   17  A    between atoms: C_16  and  O_17
REMARK   18  A    between atoms: C_18  and  O_19
REMARK                            x       y       z     vdW  Elec       q    Type
REMARK                         _______ _______ _______ _____ _____    ______ ____
ROOT
ATOM      1  C   UNL     1       7.604  -2.979  22.244  0.00  0.00    +0.030 C 
ENDROOT
BRANCH   1   2
ATOM      2  C   UNL     1       7.535  -4.206  23.161  0.00  0.00    +0.083 C 
BRANCH   2   3
ATOM      3  N   UNL     1       7.059  -3.882  24.513  0.00  0.00    -0.305 NA
ATOM      4  H   UNL     1       6.134  -4.309  24.626  0.00  0.00    +0.123 HD
BRANCH   3   5
ATOM      5  C   UNL     1       7.922  -4.405  25.623  0.00  0.00    +0.089 C 
BRANCH   5   6
ATOM      6  C   UNL     1       8.655  -3.272  26.397  0.00  0.00    +0.182 C 
BRANCH   6   7
ATOM      7  O   UNL     1       7.965  -2.026  26.300  0.00  0.00    -0.393 OA
ATOM      8  H   UNL     1       8.055  -1.696  25.390  0.00  0.00    +0.209 HD
ENDBRANCH   6   7
ENDBRANCH   5   6
BRANCH   5   9
ATOM      9  C   UNL     1       7.079  -5.238  26.627  0.00  0.00    +0.182 C 
BRANCH   9  10
ATOM     10  O   UNL     1       7.909  -5.918  27.570  0.00  0.00    -0.393 OA
ATOM     11  H   UNL     1       7.721  -5.524  28.451  0.00  0.00    +0.209 HD
ENDBRANCH   9  10
ENDBRANCH   5   9
BRANCH   5  12
ATOM     12  C   UNL     1       9.015  -5.338  24.997  0.00  0.00    +0.182 C 
BRANCH  12  13
ATOM     13  O   UNL     1      10.177  -5.499  25.812  0.00  0.00    -0.393 OA
ATOM     14  H   UNL     1      10.305  -4.642  26.268  0.00  0.00    +0.209 HD
ENDBRANCH  12  13
ENDBRANCH   5  12
ENDBRANCH   3   5
ENDBRANCH   2   3
ENDBRANCH   1   2
BRANCH   1  15
ATOM     15  C   UNL     1       8.735  -1.988  22.540  0.00  0.00    +0.083 C 
BRANCH  15  16
ATOM     16  N   UNL     1       8.359  -0.957  23.520  0.00  0.00    -0.305 NA
ATOM     17  H   UNL     1       7.434  -0.615  23.246  0.00  0.00    +0.123 HD
BRANCH  16  18
ATOM     18  C   UNL     1       9.254   0.253  23.478  0.00  0.00    +0.089 C 
BRANCH  18  19
ATOM     19  C   UNL     1       9.893   0.496  22.078  0.00  0.00    +0.182 C 
BRANCH  19  20
ATOM     20  O   UNL     1       9.290   1.565  21.350  0.00  0.00    -0.393 OA
ATOM     21  H   UNL     1       9.930   2.306  21.356  0.00  0.00    +0.209 HD
ENDBRANCH  19  20
ENDBRANCH  18  19
BRANCH  18  22
ATOM     22  C   UNL     1      10.382  -0.023  24.517  0.00  0.00    +0.182 C 
BRANCH  22  23
ATOM     23  O   UNL     1       9.898   0.172  25.846  0.00  0.00    -0.393 OA
ATOM     24  H   UNL     1       9.387  -0.646  26.036  0.00  0.00    +0.209 HD
ENDBRANCH  22  23
ENDBRANCH  18  22
BRANCH  18  25
ATOM     25  C   UNL     1       8.502   1.538  23.923  0.00  0.00    +0.182 C 
BRANCH  25  26
ATOM     26  O   UNL     1       9.435   2.589  24.181  0.00  0.00    -0.393 OA
ATOM     27  H   UNL     1      10.148   2.205  24.726  0.00  0.00    +0.209 HD
ENDBRANCH  25  26
ENDBRANCH  18  25
ENDBRANCH  16  18
ENDBRANCH  15  16
ENDBRANCH   1  15
TORSDOF 18
ENDMDL
MODEL 8
REMARK VINA RESULT:      -4.3      0.847      2.057
REMARK  Name = 
REMARK  18 active torsions:
REMARK  status: ('A' for Active; 'I' for Inactive)
REMARK    1  A    between atoms: O_1  and  C_2
REMARK    2  A    between atoms: C_2  and  C_3
REMARK    3  A    between atoms: C_3  and  C_4
REMARK    4  A    between atoms: C_3  and  C_6
REMARK    5  A    between atoms: C_3  and  N_8
REMARK    6  A    between atoms: C_4  and  O_5
REMARK    7  A    between atoms: C_6  and  O_7
REMARK    8  A    between atoms: N_8  and  C_9
REMARK    9  A    between atoms: C_9  and  C_10
REMARK   10  A    between atoms: C_10  and  C_11
REMARK   11  A    between atoms: C_11  and  N_12
REMARK   12  A    between atoms: N_12  and  C_13
REMARK   13  A    between atoms: C_13  and  C_14
REMARK   14  A    between atoms: C_13  and  C_16
REMARK   15  A    between atoms: C_13  and  C_18
REMARK   16  A    between atoms: C_14  and  O_15
REMARK   17  A    between atoms: C_16  and  O_17
REMARK   18  A    between atoms: C_18  and  O_19
REMARK                            x       y       z     vdW  Elec       q    Type
REMARK                         _______ _______ _______ _____ _____    ______ ____
ROOT
ATOM      1  C   UNL     1       8.791  -0.325  26.381  0.00  0.00    +0.030 C 
ENDROOT
BRANCH   1   2
ATOM      2  C   UNL     1       7.814  -1.474  26.107  0.00  0.00    +0.083 C 
BRANCH   2   3
ATOM      3  N   UNL     1       8.413  -2.797  26.332  0.00  0.00    -0.305 NA
ATOM      4  H   UNL     1       8.094  -3.129  27.247  0.00  0.00    +0.123 HD
BRANCH   3   5
ATOM      5  C   UNL     1       8.021  -3.841  25.327  0.00  0.00    +0.089 C 
BRANCH   5   6
ATOM      6  C   UNL     1       7.038  -3.298  24.252  0.00  0.00    +0.182 C 
BRANCH   6   7
ATOM      7  O   UNL     1       7.678  -3.110  22.989  0.00  0.00    -0.393 OA
ATOM      8  H   UNL     1       8.633  -3.251  23.106  0.00  0.00    +0.209 HD
ENDBRANCH   6   7
ENDBRANCH   5   6
BRANCH   5   9
ATOM      9  C   UNL     1       9.277  -4.417  24.618  0.00  0.00    +0.182 C 
BRANCH   9  10
ATOM     10  O   UNL     1      10.126  -3.377  24.131  0.00  0.00    -0.393 OA
ATOM     11  H   UNL     1      11.037  -3.748  24.093  0.00  0.00    +0.209 HD
ENDBRANCH   9  10
ENDBRANCH   5   9
BRANCH   5  12
ATOM     12  C   UNL     1       7.299  -5.007  26.087  0.00  0.00    +0.182 C 
BRANCH  12  13
ATOM     13  O   UNL     1       8.180  -5.837  26.847  0.00  0.00    -0.393 OA
ATOM     14  H   UNL     1       9.003  -5.319  26.960  0.00  0.00    +0.209 HD
ENDBRANCH  12  13
ENDBRANCH   5  12
ENDBRANCH   3   5
ENDBRANCH   2   3
ENDBRANCH   1   2
BRANCH   1  15
ATOM     15  C   UNL     1       9.652   0.116  25.191  0.00  0.00    +0.083 C 
BRANCH  15  16
ATOM     16  N   UNL     1       9.387  -0.656  23.967  0.00  0.00    -0.305 NA
ATOM     17  H   UNL     1      10.263  -1.127  23.722  0.00  0.00    +0.123 HD
BRANCH  16  18
ATOM     18  C   UNL     1       9.059   0.210  22.781  0.00  0.00    +0.089 C 
BRANCH  18  19
ATOM     19  C   UNL     1       9.388  -0.467  21.417  0.00  0.00    +0.182 C 
BRANCH  19  20
ATOM     20  O   UNL     1      10.053  -1.724  21.545  0.00  0.00    -0.393 OA
ATOM     21  H   UNL     1      10.483  -1.725  22.425  0.00  0.00    +0.209 HD
ENDBRANCH  19  20
ENDBRANCH  18  19
BRANCH  18  22
ATOM     22  C   UNL     1       9.929   1.492  22.942  0.00  0.00    +0.182 C 
BRANCH  22  23
ATOM     23  O   UNL     1      10.168   2.099  21.672  0.00  0.00    -0.393 OA
ATOM     24  H   UNL     1      10.799   2.826  21.870  0.00  0.00    +0.209 HD
ENDBRANCH  22  23
ENDBRANCH  18  22
BRANCH  18  25
ATOM     25  C   UNL     1       7.567   0.646  22.784  0.00  0.00    +0.182 C 
BRANCH  25  26
ATOM     26  O   UNL     1       7.357   1.688  21.829  0.00  0.00    -0.393 OA
ATOM     27  H   UNL     1       7.998   2.395  22.038  0.00  0.00    +0.209 HD
ENDBRANCH  25  26
ENDBRANCH  18  25
ENDBRANCH  16  18
ENDBRANCH  15  16
ENDBRANCH   1  15
TORSDOF 18
ENDMDL
MODEL 9
REMARK VINA RESULT:      -4.2      0.933      5.256
REMARK  Name = 
REMARK  18 active torsions:
REMARK  status: ('A' for Active; 'I' for Inactive)
REMARK    1  A    between atoms: O_1  and  C_2
REMARK    2  A    between atoms: C_2  and  C_3
REMARK    3  A    between atoms: C_3  and  C_4
REMARK    4  A    between atoms: C_3  and  C_6
REMARK    5  A    between atoms: C_3  and  N_8
REMARK    6  A    between atoms: C_4  and  O_5
REMARK    7  A    between atoms: C_6  and  O_7
REMARK    8  A    between atoms: N_8  and  C_9
REMARK    9  A    between atoms: C_9  and  C_10
REMARK   10  A    between atoms: C_10  and  C_11
REMARK   11  A    between atoms: C_11  and  N_12
REMARK   12  A    between atoms: N_12  and  C_13
REMARK   13  A    between atoms: C_13  and  C_14
REMARK   14  A    between atoms: C_13  and  C_16
REMARK   15  A    between atoms: C_13  and  C_18
REMARK   16  A    between atoms: C_14  and  O_15
REMARK   17  A    between atoms: C_16  and  O_17
REMARK   18  A    between atoms: C_18  and  O_19
REMARK                            x       y       z     vdW  Elec       q    Type
REMARK                         _______ _______ _______ _____ _____    ______ ____
ROOT
ATOM      1  C   UNL     1       8.229  -0.781  26.426  0.00  0.00    +0.030 C 
ENDROOT
BRANCH   1   2
ATOM      2  C   UNL     1       9.151   0.095  25.570  0.00  0.00    +0.083 C 
BRANCH   2   3
ATOM      3  N   UNL     1       9.746  -0.636  24.442  0.00  0.00    -0.305 NA
ATOM      4  H   UNL     1       9.363  -1.586  24.452  0.00  0.00    +0.123 HD
BRANCH   3   5
ATOM      5  C   UNL     1       9.445  -0.056  23.091  0.00  0.00    +0.089 C 
BRANCH   5   6
ATOM      6  C   UNL     1      10.031  -0.907  21.929  0.00  0.00    +0.182 C 
BRANCH   6   7
ATOM      7  O   UNL     1       9.337  -0.686  20.701  0.00  0.00    -0.393 OA
ATOM      8  H   UNL     1       8.582  -0.099  20.878  0.00  0.00    +0.209 HD
ENDBRANCH   6   7
ENDBRANCH   5   6
BRANCH   5   9
ATOM      9  C   UNL     1       7.912   0.088  22.886  0.00  0.00    +0.182 C 
BRANCH   9  10
ATOM     10  O   UNL     1       7.277  -1.185  22.773  0.00  0.00    -0.393 OA
ATOM     11  H   UNL     1       7.679  -1.636  21.996  0.00  0.00    +0.209 HD
ENDBRANCH   9  10
ENDBRANCH   5   9
BRANCH   5  12
ATOM     12  C   UNL     1      10.094   1.368  23.013  0.00  0.00    +0.182 C 
BRANCH  12  13
ATOM     13  O   UNL     1      10.099   1.933  21.700  0.00  0.00    -0.393 OA
ATOM     14  H   UNL     1      10.964   2.383  21.607  0.00  0.00    +0.209 HD
ENDBRANCH  12  13
ENDBRANCH   5  12
ENDBRANCH   3   5
ENDBRANCH   2   3
ENDBRANCH   1   2
BRANCH   1  15
ATOM     15  C   UNL     1       8.455  -2.293  26.318  0.00  0.00    +0.083 C 
BRANCH  15  16
ATOM     16  N   UNL     1       7.699  -2.914  25.219  0.00  0.00    -0.305 NA
ATOM     17  H   UNL     1       6.711  -2.872  25.483  0.00  0.00    +0.123 HD
BRANCH  16  18
ATOM     18  C   UNL     1       7.999  -4.379  25.049  0.00  0.00    +0.089 C 
BRANCH  18  19
ATOM     19  C   UNL     1       7.242  -5.283  26.067  0.00  0.00    +0.182 C 
BRANCH  19  20
ATOM     20  O   UNL     1       8.084  -5.846  27.073  0.00  0.00    -0.393 OA
ATOM     21  H   UNL     1       8.022  -6.819  26.980  0.00  0.00    +0.209 HD
ENDBRANCH  19  20
ENDBRANCH  18  19
BRANCH  18  22
ATOM     22  C   UNL     1       9.534  -4.523  25.277  0.00  0.00    +0.182 C 
BRANCH  22  23
ATOM     23  O   UNL     1       9.981  -5.819  24.875  0.00  0.00    -0.393 OA
ATOM     24  H   UNL     1       9.592  -5.938  23.980  0.00  0.00    +0.209 HD
ENDBRANCH  22  23
ENDBRANCH  18  22
BRANCH  18  25
ATOM     25  C   UNL     1       7.686  -4.865  23.607  0.00  0.00    +0.182 C 
BRANCH  25  26
ATOM     26  O   UNL     1       6.674  -4.044  23.020  0.00  0.00    -0.393 OA
ATOM     27  H   UNL     1       5.853  -4.572  23.012  0.00  0.00    +0.209 HD
ENDBRANCH  25  26
ENDBRANCH  18  25
ENDBRANCH  16  18
ENDBRANCH  15  16
ENDBRANCH   1  15
TORSDOF 18
ENDMDL
