MODEL 1
REMARK VINA RESULT:      -6.7      0.000      0.000
REMARK  Name = 
REMARK  7 active torsions:
REMARK  status: ('A' for Active; 'I' for Inactive)
REMARK    1  A    between atoms: C_1  and  C_2
REMARK    2  A    between atoms: C_4  and  C_27
REMARK    3  A    between atoms: C_6  and  C_7
REMARK    4  A    between atoms: C_8  and  O_9
REMARK    5  A    between atoms: O_9  and  C_10
REMARK    6  A    between atoms: N_17  and  C_18
REMARK    7  A    between atoms: C_21  and  C_24
REMARK                            x       y       z     vdW  Elec       q    Type
REMARK                         _______ _______ _______ _____ _____    ______ ____
ROOT
ATOM      1  C   UNL     1       6.297  -3.467  25.183  0.00  0.00    +0.241 A 
ATOM      2  N   UNL     1       7.169  -3.029  24.264  0.00  0.00    -0.178 NA
ATOM      3  C   UNL     1       7.295  -1.713  24.048  0.00  0.00    +0.224 A 
ATOM      4  N   UNL     1       8.352  -1.334  23.207  0.00  0.00    -0.283 N 
ATOM      5  H   UNL     1       8.834  -2.170  22.907  0.00  0.00    +0.155 HD
ATOM      6  N   UNL     1       6.512  -0.815  24.643  0.00  0.00    -0.198 NA
ATOM      7  C   UNL     1       5.568  -1.259  25.483  0.00  0.00    +0.139 A 
ATOM      8  N   UNL     1       4.819  -0.244  26.077  0.00  0.00    -0.342 N 
ATOM      9  H   UNL     1       5.093   0.638  25.650  0.00  0.00    +0.144 HD
ATOM     10  H   UNL     1       3.820  -0.409  26.022  0.00  0.00    +0.144 HD
ATOM     11  C   UNL     1       5.408  -2.603  25.793  0.00  0.00    +0.119 A 
ATOM     12 BR   UNL     1       4.048  -3.192  26.969  0.00  0.00    -0.041 Br
ENDROOT
BRANCH   4  13
ATOM     13  C   UNL     1       9.121  -0.152  23.185  0.00  0.00    +0.034 A 
ATOM     14  C   UNL     1       9.857   0.205  24.331  0.00  0.00    +0.024 A 
ATOM     15  C   UNL     1      10.598   1.398  24.371  0.00  0.00    +0.020 A 
ATOM     16  C   UNL     1      10.639   2.245  23.263  0.00  0.00    +0.052 A 
ATOM     17  C   UNL     1       9.946   1.878  22.109  0.00  0.00    +0.020 A 
ATOM     18  C   UNL     1       9.208   0.686  22.076  0.00  0.00    +0.024 A 
BRANCH  16  19
ATOM     19  C   UNL     1      11.372   3.482  23.302  0.00  0.00    +0.099 C 
ATOM     20  N   UNL     1      11.967   4.477  23.333  0.00  0.00    -0.191 NA
ENDBRANCH  16  19
ENDBRANCH   4  13
BRANCH   1  21
ATOM     21  O   UNL     1       6.205  -4.825  25.489  0.00  0.00    -0.436 OA
BRANCH  21  24
ATOM     22  C   UNL     1       5.357  -5.241  22.410  0.00  0.00    +0.047 C 
ATOM     23  C   UNL     1       4.803  -5.864  23.654  0.00  0.00    -0.007 A 
ATOM     24  C   UNL     1       5.305  -5.746  24.969  0.00  0.00    +0.136 A 
ATOM     25  C   UNL     1       4.711  -6.577  25.973  0.00  0.00    -0.007 A 
ATOM     26  C   UNL     1       5.244  -6.645  27.384  0.00  0.00    +0.047 C 
ATOM     27  C   UNL     1       3.600  -7.399  25.677  0.00  0.00    +0.025 A 
ATOM     28  C   UNL     1       3.068  -7.435  24.397  0.00  0.00    +0.052 A 
ATOM     29  C   UNL     1       3.677  -6.684  23.403  0.00  0.00    +0.025 A 
BRANCH  28  30
ATOM     30  C   UNL     1       1.933  -8.245  24.072  0.00  0.00    +0.099 C 
ATOM     31  N   UNL     1       1.026  -8.932  23.835  0.00  0.00    -0.191 NA
ENDBRANCH  28  30
ENDBRANCH  21  24
ENDBRANCH   1  21
TORSDOF 5
ENDMDL
MODEL 2
REMARK VINA RESULT:      -6.6      2.136      3.052
REMARK  Name = 
REMARK  7 active torsions:
REMARK  status: ('A' for Active; 'I' for Inactive)
REMARK    1  A    between atoms: C_1  and  C_2
REMARK    2  A    between atoms: C_4  and  C_27
REMARK    3  A    between atoms: C_6  and  C_7
REMARK    4  A    between atoms: C_8  and  O_9
REMARK    5  A    between atoms: O_9  and  C_10
REMARK    6  A    between atoms: N_17  and  C_18
REMARK    7  A    between atoms: C_21  and  C_24
REMARK                            x       y       z     vdW  Elec       q    Type
REMARK                         _______ _______ _______ _____ _____    ______ ____
ROOT
ATOM      1  C   UNL     1       7.771  -2.232  24.316  0.00  0.00    +0.241 A 
ATOM      2  N   UNL     1       7.662  -1.053  23.690  0.00  0.00    -0.178 NA
ATOM      3  C   UNL     1       8.115   0.057  24.289  0.00  0.00    +0.224 A 
ATOM      4  N   UNL     1       8.129   1.213  23.495  0.00  0.00    -0.283 N 
ATOM      5  H   UNL     1       7.772   0.975  22.580  0.00  0.00    +0.155 HD
ATOM      6  N   UNL     1       8.583   0.053  25.536  0.00  0.00    -0.198 NA
ATOM      7  C   UNL     1       8.594  -1.109  26.201  0.00  0.00    +0.139 A 
ATOM      8  N   UNL     1       9.127  -1.017  27.487  0.00  0.00    -0.342 N 
ATOM      9  H   UNL     1       9.302  -0.034  27.683  0.00  0.00    +0.144 HD
ATOM     10  H   UNL     1       8.541  -1.455  28.188  0.00  0.00    +0.144 HD
ATOM     11  C   UNL     1       8.186  -2.307  25.631  0.00  0.00    +0.119 A 
ATOM     12 BR   UNL     1       8.197  -3.924  26.614  0.00  0.00    -0.041 Br
ENDROOT
BRANCH   4  13
ATOM     13  C   UNL     1       8.979   2.337  23.537  0.00  0.00    +0.034 A 
ATOM     14  C   UNL     1      10.338   2.179  23.205  0.00  0.00    +0.024 A 
ATOM     15  C   UNL     1      11.232   3.261  23.279  0.00  0.00    +0.020 A 
ATOM     16  C   UNL     1      10.783   4.525  23.662  0.00  0.00    +0.052 A 
ATOM     17  C   UNL     1       9.429   4.700  23.953  0.00  0.00    +0.020 A 
ATOM     18  C   UNL     1       8.544   3.616  23.877  0.00  0.00    +0.024 A 
BRANCH  16  19
ATOM     19  C   UNL     1      11.693   5.634  23.769  0.00  0.00    +0.099 C 
ATOM     20  N   UNL     1      12.428   6.526  23.861  0.00  0.00    -0.191 NA
ENDBRANCH  16  19
ENDBRANCH   4  13
BRANCH   1  21
ATOM     21  O   UNL     1       7.386  -3.415  23.683  0.00  0.00    -0.436 OA
BRANCH  21  24
ATOM     22  C   UNL     1       4.698  -2.414  25.146  0.00  0.00    +0.047 C 
ATOM     23  C   UNL     1       4.925  -3.591  24.249  0.00  0.00    -0.007 A 
ATOM     24  C   UNL     1       6.096  -3.905  23.526  0.00  0.00    +0.136 A 
ATOM     25  C   UNL     1       6.019  -4.988  22.593  0.00  0.00    -0.007 A 
ATOM     26  C   UNL     1       7.157  -5.337  21.664  0.00  0.00    +0.047 C 
ATOM     27  C   UNL     1       4.849  -5.775  22.483  0.00  0.00    +0.025 A 
ATOM     28  C   UNL     1       3.738  -5.503  23.266  0.00  0.00    +0.052 A 
ATOM     29  C   UNL     1       3.781  -4.415  24.125  0.00  0.00    +0.025 A 
BRANCH  28  30
ATOM     30  C   UNL     1       2.546  -6.293  23.188  0.00  0.00    +0.099 C 
ATOM     31  N   UNL     1       1.580  -6.930  23.083  0.00  0.00    -0.191 NA
ENDBRANCH  28  30
ENDBRANCH  21  24
ENDBRANCH   1  21
TORSDOF 5
ENDMDL
MODEL 3
REMARK VINA RESULT:      -6.6      3.597     10.171
REMARK  Name = 
REMARK  7 active torsions:
REMARK  status: ('A' for Active; 'I' for Inactive)
REMARK    1  A    between atoms: C_1  and  C_2
REMARK    2  A    between atoms: C_4  and  C_27
REMARK    3  A    between atoms: C_6  and  C_7
REMARK    4  A    between atoms: C_8  and  O_9
REMARK    5  A    between atoms: O_9  and  C_10
REMARK    6  A    between atoms: N_17  and  C_18
REMARK    7  A    between atoms: C_21  and  C_24
REMARK                            x       y       z     vdW  Elec       q    Type
REMARK                         _______ _______ _______ _____ _____    ______ ____
ROOT
ATOM      1  C   UNL     1       6.986   3.155  25.046  0.00  0.00    +0.241 A 
ATOM      2  N   UNL     1       6.954   1.919  25.564  0.00  0.00    -0.178 NA
ATOM      3  C   UNL     1       5.944   1.098  25.251  0.00  0.00    +0.224 A 
ATOM      4  N   UNL     1       6.081  -0.228  25.686  0.00  0.00    -0.283 N 
ATOM      5  H   UNL     1       6.957  -0.310  26.183  0.00  0.00    +0.155 HD
ATOM      6  N   UNL     1       4.905   1.494  24.517  0.00  0.00    -0.198 NA
ATOM      7  C   UNL     1       4.884   2.762  24.086  0.00  0.00    +0.139 A 
ATOM      8  N   UNL     1       3.772   3.073  23.303  0.00  0.00    -0.342 N 
ATOM      9  H   UNL     1       3.146   2.271  23.317  0.00  0.00    +0.144 HD
ATOM     10  H   UNL     1       3.314   3.929  23.595  0.00  0.00    +0.144 HD
ATOM     11  C   UNL     1       5.917   3.657  24.331  0.00  0.00    +0.119 A 
ATOM     12 BR   UNL     1       5.838   5.446  23.722  0.00  0.00    -0.041 Br
ENDROOT
BRANCH   4  13
ATOM     13  C   UNL     1       5.588  -1.426  25.130  0.00  0.00    +0.034 A 
ATOM     14  C   UNL     1       6.130  -1.890  23.916  0.00  0.00    +0.024 A 
ATOM     15  C   UNL     1       5.636  -3.053  23.301  0.00  0.00    +0.020 A 
ATOM     16  C   UNL     1       4.610  -3.787  23.895  0.00  0.00    +0.052 A 
ATOM     17  C   UNL     1       4.095  -3.358  25.119  0.00  0.00    +0.020 A 
ATOM     18  C   UNL     1       4.592  -2.197  25.727  0.00  0.00    +0.024 A 
BRANCH  16  19
ATOM     19  C   UNL     1       4.077  -4.964  23.261  0.00  0.00    +0.099 C 
ATOM     20  N   UNL     1       3.650  -5.911  22.745  0.00  0.00    -0.191 NA
ENDBRANCH  16  19
ENDBRANCH   4  13
BRANCH   1  21
ATOM     21  O   UNL     1       8.068   4.002  25.287  0.00  0.00    -0.436 OA
BRANCH  21  24
ATOM     22  C   UNL     1       9.587   1.853  23.430  0.00  0.00    +0.047 C 
ATOM     23  C   UNL     1       9.949   3.268  23.759  0.00  0.00    -0.007 A 
ATOM     24  C   UNL     1       9.173   4.209  24.472  0.00  0.00    +0.136 A 
ATOM     25  C   UNL     1       9.653   5.557  24.509  0.00  0.00    -0.007 A 
ATOM     26  C   UNL     1       8.852   6.682  25.121  0.00  0.00    +0.047 C 
ATOM     27  C   UNL     1      10.902   5.905  23.947  0.00  0.00    +0.025 A 
ATOM     28  C   UNL     1      11.689   4.947  23.327  0.00  0.00    +0.052 A 
ATOM     29  C   UNL     1      11.203   3.651  23.228  0.00  0.00    +0.025 A 
BRANCH  28  30
ATOM     30  C   UNL     1      12.967   5.265  22.763  0.00  0.00    +0.099 C 
ATOM     31  N   UNL     1      13.985   5.522  22.268  0.00  0.00    -0.191 NA
ENDBRANCH  28  30
ENDBRANCH  21  24
ENDBRANCH   1  21
TORSDOF 5
ENDMDL
MODEL 4
REMARK VINA RESULT:      -6.5      2.331      9.633
REMARK  Name = 
REMARK  7 active torsions:
REMARK  status: ('A' for Active; 'I' for Inactive)
REMARK    1  A    between atoms: C_1  and  C_2
REMARK    2  A    between atoms: C_4  and  C_27
REMARK    3  A    between atoms: C_6  and  C_7
REMARK    4  A    between atoms: C_8  and  O_9
REMARK    5  A    between atoms: O_9  and  C_10
REMARK    6  A    between atoms: N_17  and  C_18
REMARK    7  A    between atoms: C_21  and  C_24
REMARK                            x       y       z     vdW  Elec       q    Type
REMARK                         _______ _______ _______ _____ _____    ______ ____
ROOT
ATOM      1  C   UNL     1       7.144  -0.589  23.960  0.00  0.00    +0.241 A 
ATOM      2  N   UNL     1       6.399  -1.424  23.223  0.00  0.00    -0.178 NA
ATOM      3  C   UNL     1       6.374  -2.729  23.527  0.00  0.00    +0.224 A 
ATOM      4  N   UNL     1       5.434  -3.498  22.826  0.00  0.00    -0.283 N 
ATOM      5  H   UNL     1       4.937  -2.890  22.190  0.00  0.00    +0.155 HD
ATOM      6  N   UNL     1       7.143  -3.254  24.480  0.00  0.00    -0.198 NA
ATOM      7  C   UNL     1       7.967  -2.435  25.147  0.00  0.00    +0.139 A 
ATOM      8  N   UNL     1       8.709  -3.071  26.142  0.00  0.00    -0.342 N 
ATOM      9  H   UNL     1       8.534  -4.071  26.072  0.00  0.00    +0.144 HD
ATOM     10  H   UNL     1       9.697  -2.846  26.099  0.00  0.00    +0.144 HD
ATOM     11  C   UNL     1       8.014  -1.066  24.921  0.00  0.00    +0.119 A 
ATOM     12 BR   UNL     1       9.208   0.052  25.871  0.00  0.00    -0.041 Br
ENDROOT
BRANCH   4  13
ATOM     13  C   UNL     1       4.743  -4.666  23.209  0.00  0.00    +0.034 A 
ATOM     14  C   UNL     1       3.356  -4.593  23.442  0.00  0.00    +0.024 A 
ATOM     15  C   UNL     1       2.635  -5.719  23.873  0.00  0.00    +0.020 A 
ATOM     16  C   UNL     1       3.277  -6.944  24.055  0.00  0.00    +0.052 A 
ATOM     17  C   UNL     1       4.644  -7.036  23.786  0.00  0.00    +0.020 A 
ATOM     18  C   UNL     1       5.357  -5.908  23.357  0.00  0.00    +0.024 A 
BRANCH  16  19
ATOM     19  C   UNL     1       2.556  -8.098  24.522  0.00  0.00    +0.099 C 
ATOM     20  N   UNL     1       1.975  -9.026  24.904  0.00  0.00    -0.191 NA
ENDBRANCH  16  19
ENDBRANCH   4  13
BRANCH   1  21
ATOM     21  O   UNL     1       7.124   0.785  23.720  0.00  0.00    -0.436 OA
BRANCH  21  24
ATOM     22  C   UNL     1       9.348   0.247  21.455  0.00  0.00    +0.047 C 
ATOM     23  C   UNL     1       9.266   1.329  22.486  0.00  0.00    -0.007 A 
ATOM     24  C   UNL     1       8.196   1.594  23.368  0.00  0.00    +0.136 A 
ATOM     25  C   UNL     1       8.272   2.794  24.146  0.00  0.00    -0.007 A 
ATOM     26  C   UNL     1       7.134   3.261  25.024  0.00  0.00    +0.047 C 
ATOM     27  C   UNL     1       9.420   3.619  24.108  0.00  0.00    +0.025 A 
ATOM     28  C   UNL     1      10.497   3.293  23.299  0.00  0.00    +0.052 A 
ATOM     29  C   UNL     1      10.406   2.168  22.492  0.00  0.00    +0.025 A 
BRANCH  28  30
ATOM     30  C   UNL     1      11.679   4.100  23.252  0.00  0.00    +0.099 C 
ATOM     31  N   UNL     1      12.642   4.750  23.257  0.00  0.00    -0.191 NA
ENDBRANCH  28  30
ENDBRANCH  21  24
ENDBRANCH   1  21
TORSDOF 5
ENDMDL
MODEL 5
REMARK VINA RESULT:      -6.4      3.551      9.426
REMARK  Name = 
REMARK  7 active torsions:
REMARK  status: ('A' for Active; 'I' for Inactive)
REMARK    1  A    between atoms: C_1  and  C_2
REMARK    2  A    between atoms: C_4  and  C_27
REMARK    3  A    between atoms: C_6  and  C_7
REMARK    4  A    between atoms: C_8  and  O_9
REMARK    5  A    between atoms: O_9  and  C_10
REMARK    6  A    between atoms: N_17  and  C_18
REMARK    7  A    between atoms: C_21  and  C_24
REMARK                            x       y       z     vdW  Elec       q    Type
REMARK                         _______ _______ _______ _____ _____    ______ ____
ROOT
ATOM      1  C   UNL     1       8.046   0.278  23.468  0.00  0.00    +0.241 A 
ATOM      2  N   UNL     1       6.953  -0.353  23.019  0.00  0.00    -0.178 NA
ATOM      3  C   UNL     1       6.932  -1.691  22.980  0.00  0.00    +0.224 A 
ATOM      4  N   UNL     1       5.692  -2.271  22.672  0.00  0.00    -0.283 N 
ATOM      5  H   UNL     1       5.022  -1.529  22.525  0.00  0.00    +0.155 HD
ATOM      6  N   UNL     1       8.000  -2.430  23.278  0.00  0.00    -0.198 NA
ATOM      7  C   UNL     1       9.127  -1.796  23.626  0.00  0.00    +0.139 A 
ATOM      8  N   UNL     1      10.179  -2.654  23.946  0.00  0.00    -0.342 N 
ATOM      9  H   UNL     1       9.882  -3.604  23.738  0.00  0.00    +0.144 HD
ATOM     10  H   UNL     1      11.044  -2.406  23.479  0.00  0.00    +0.144 HD
ATOM     11  C   UNL     1       9.212  -0.415  23.734  0.00  0.00    +0.119 A 
ATOM     12 BR   UNL     1      10.830   0.442  24.209  0.00  0.00    -0.041 Br
ENDROOT
BRANCH   4  13
ATOM     13  C   UNL     1       5.145  -3.511  23.057  0.00  0.00    +0.034 A 
ATOM     14  C   UNL     1       4.358  -3.578  24.224  0.00  0.00    +0.024 A 
ATOM     15  C   UNL     1       3.833  -4.801  24.673  0.00  0.00    +0.020 A 
ATOM     16  C   UNL     1       4.060  -5.975  23.956  0.00  0.00    +0.052 A 
ATOM     17  C   UNL     1       4.803  -5.913  22.777  0.00  0.00    +0.020 A 
ATOM     18  C   UNL     1       5.325  -4.689  22.335  0.00  0.00    +0.024 A 
BRANCH  16  19
ATOM     19  C   UNL     1       3.550  -7.238  24.421  0.00  0.00    +0.099 C 
ATOM     20  N   UNL     1       3.143  -8.259  24.792  0.00  0.00    -0.191 NA
ENDBRANCH  16  19
ENDBRANCH   4  13
BRANCH   1  21
ATOM     21  O   UNL     1       8.066   1.667  23.600  0.00  0.00    -0.436 OA
BRANCH  21  24
ATOM     22  C   UNL     1       6.427   0.828  26.242  0.00  0.00    +0.047 C 
ATOM     23  C   UNL     1       7.062   2.134  25.877  0.00  0.00    -0.007 A 
ATOM     24  C   UNL     1       7.886   2.405  24.762  0.00  0.00    +0.136 A 
ATOM     25  C   UNL     1       8.524   3.686  24.717  0.00  0.00    -0.007 A 
ATOM     26  C   UNL     1       9.533   4.048  23.653  0.00  0.00    +0.047 C 
ATOM     27  C   UNL     1       8.254   4.672  25.693  0.00  0.00    +0.025 A 
ATOM     28  C   UNL     1       7.374   4.415  26.733  0.00  0.00    +0.052 A 
ATOM     29  C   UNL     1       6.801   3.154  26.822  0.00  0.00    +0.025 A 
BRANCH  28  30
ATOM     30  C   UNL     1       7.067   5.400  27.726  0.00  0.00    +0.099 C 
ATOM     31  N   UNL     1       6.840   6.227  28.509  0.00  0.00    -0.191 NA
ENDBRANCH  28  30
ENDBRANCH  21  24
ENDBRANCH   1  21
TORSDOF 5
ENDMDL
MODEL 6
REMARK VINA RESULT:      -6.4      2.683      3.351
REMARK  Name = 
REMARK  7 active torsions:
REMARK  status: ('A' for Active; 'I' for Inactive)
REMARK    1  A    between atoms: C_1  and  C_2
REMARK    2  A    between atoms: C_4  and  C_27
REMARK    3  A    between atoms: C_6  and  C_7
REMARK    4  A    between atoms: C_8  and  O_9
REMARK    5  A    between atoms: O_9  and  C_10
REMARK    6  A    between atoms: N_17  and  C_18
REMARK    7  A    between atoms: C_21  and  C_24
REMARK                            x       y       z     vdW  Elec       q    Type
REMARK                         _______ _______ _______ _____ _____    ______ ____
ROOT
ATOM      1  C   UNL     1       7.136  -2.877  24.714  0.00  0.00    +0.241 A 
ATOM      2  N   UNL     1       6.376  -1.913  24.178  0.00  0.00    -0.178 NA
ATOM      3  C   UNL     1       6.625  -0.631  24.479  0.00  0.00    +0.224 A 
ATOM      4  N   UNL     1       5.905   0.318  23.738  0.00  0.00    -0.283 N 
ATOM      5  H   UNL     1       5.302  -0.174  23.092  0.00  0.00    +0.155 HD
ATOM      6  N   UNL     1       7.543  -0.275  25.376  0.00  0.00    -0.198 NA
ATOM      7  C   UNL     1       8.232  -1.244  25.991  0.00  0.00    +0.139 A 
ATOM      8  N   UNL     1       9.188  -0.772  26.890  0.00  0.00    -0.342 N 
ATOM      9  H   UNL     1       9.078   0.237  26.962  0.00  0.00    +0.144 HD
ATOM     10  H   UNL     1       9.141  -1.233  27.792  0.00  0.00    +0.144 HD
ATOM     11  C   UNL     1       8.063  -2.591  25.698  0.00  0.00    +0.119 A 
ATOM     12 BR   UNL     1       9.043  -3.930  26.607  0.00  0.00    -0.041 Br
ENDROOT
BRANCH   4  13
ATOM     13  C   UNL     1       6.248   1.632  23.362  0.00  0.00    +0.034 A 
ATOM     14  C   UNL     1       5.680   2.713  24.062  0.00  0.00    +0.024 A 
ATOM     15  C   UNL     1       5.955   4.040  23.691  0.00  0.00    +0.020 A 
ATOM     16  C   UNL     1       6.820   4.314  22.631  0.00  0.00    +0.052 A 
ATOM     17  C   UNL     1       7.419   3.249  21.957  0.00  0.00    +0.020 A 
ATOM     18  C   UNL     1       7.140   1.928  22.333  0.00  0.00    +0.024 A 
BRANCH  16  19
ATOM     19  C   UNL     1       7.088   5.668  22.223  0.00  0.00    +0.099 C 
ATOM     20  N   UNL     1       7.303   6.757  21.889  0.00  0.00    -0.191 NA
ENDBRANCH  16  19
ENDBRANCH   4  13
BRANCH   1  21
ATOM     21  O   UNL     1       6.956  -4.212  24.355  0.00  0.00    -0.436 OA
BRANCH  21  24
ATOM     22  C   UNL     1       5.592  -4.902  27.189  0.00  0.00    +0.047 C 
ATOM     23  C   UNL     1       5.302  -5.445  25.824  0.00  0.00    -0.007 A 
ATOM     24  C   UNL     1       5.841  -5.006  24.595  0.00  0.00    +0.136 A 
ATOM     25  C   UNL     1       5.281  -5.560  23.400  0.00  0.00    -0.007 A 
ATOM     26  C   UNL     1       5.673  -5.077  22.024  0.00  0.00    +0.047 C 
ATOM     27  C   UNL     1       4.305  -6.581  23.456  0.00  0.00    +0.025 A 
ATOM     28  C   UNL     1       3.851  -7.059  24.675  0.00  0.00    +0.052 A 
ATOM     29  C   UNL     1       4.341  -6.482  25.838  0.00  0.00    +0.025 A 
BRANCH  28  30
ATOM     30  C   UNL     1       2.876  -8.104  24.764  0.00  0.00    +0.099 C 
ATOM     31  N   UNL     1       2.076  -8.946  24.794  0.00  0.00    -0.191 NA
ENDBRANCH  28  30
ENDBRANCH  21  24
ENDBRANCH   1  21
TORSDOF 5
ENDMDL
MODEL 7
REMARK VINA RESULT:      -6.3      2.452      9.659
REMARK  Name = 
REMARK  7 active torsions:
REMARK  status: ('A' for Active; 'I' for Inactive)
REMARK    1  A    between atoms: C_1  and  C_2
REMARK    2  A    between atoms: C_4  and  C_27
REMARK    3  A    between atoms: C_6  and  C_7
REMARK    4  A    between atoms: C_8  and  O_9
REMARK    5  A    between atoms: O_9  and  C_10
REMARK    6  A    between atoms: N_17  and  C_18
REMARK    7  A    between atoms: C_21  and  C_24
REMARK                            x       y       z     vdW  Elec       q    Type
REMARK                         _______ _______ _______ _____ _____    ______ ____
ROOT
ATOM      1  C   UNL     1       7.066   0.833  24.393  0.00  0.00    +0.241 A 
ATOM      2  N   UNL     1       7.162  -0.353  23.776  0.00  0.00    -0.178 NA
ATOM      3  C   UNL     1       6.849  -1.471  24.443  0.00  0.00    +0.224 A 
ATOM      4  N   UNL     1       6.801  -2.644  23.675  0.00  0.00    -0.283 N 
ATOM      5  H   UNL     1       7.029  -2.407  22.719  0.00  0.00    +0.155 HD
ATOM      6  N   UNL     1       6.539  -1.465  25.739  0.00  0.00    -0.198 NA
ATOM      7  C   UNL     1       6.545  -0.291  26.383  0.00  0.00    +0.139 A 
ATOM      8  N   UNL     1       6.180  -0.384  27.726  0.00  0.00    -0.342 N 
ATOM      9  H   UNL     1       6.086  -1.370  27.957  0.00  0.00    +0.144 HD
ATOM     10  H   UNL     1       6.823   0.100  28.342  0.00  0.00    +0.144 HD
ATOM     11  C   UNL     1       6.813   0.914  25.748  0.00  0.00    +0.119 A 
ATOM     12 BR   UNL     1       6.833   2.549  26.700  0.00  0.00    -0.041 Br
ENDROOT
BRANCH   4  13
ATOM     13  C   UNL     1       6.027  -3.810  23.839  0.00  0.00    +0.034 A 
ATOM     14  C   UNL     1       4.828  -3.943  23.111  0.00  0.00    +0.024 A 
ATOM     15  C   UNL     1       4.001  -5.066  23.280  0.00  0.00    +0.020 A 
ATOM     16  C   UNL     1       4.363  -6.088  24.156  0.00  0.00    +0.052 A 
ATOM     17  C   UNL     1       5.570  -5.985  24.850  0.00  0.00    +0.020 A 
ATOM     18  C   UNL     1       6.391  -4.862  24.678  0.00  0.00    +0.024 A 
BRANCH  16  19
ATOM     19  C   UNL     1       3.511  -7.230  24.358  0.00  0.00    +0.099 C 
ATOM     20  N   UNL     1       2.824  -8.149  24.526  0.00  0.00    -0.191 NA
ENDBRANCH  16  19
ENDBRANCH   4  13
BRANCH   1  21
ATOM     21  O   UNL     1       7.303   2.020  23.699  0.00  0.00    -0.436 OA
BRANCH  21  24
ATOM     22  C   UNL     1       9.819   0.595  22.281  0.00  0.00    +0.047 C 
ATOM     23  C   UNL     1       9.703   1.955  22.896  0.00  0.00    -0.007 A 
ATOM     24  C   UNL     1       8.534   2.580  23.384  0.00  0.00    +0.136 A 
ATOM     25  C   UNL     1       8.639   3.955  23.767  0.00  0.00    -0.007 A 
ATOM     26  C   UNL     1       7.437   4.773  24.176  0.00  0.00    +0.047 C 
ATOM     27  C   UNL     1       9.884   4.625  23.756  0.00  0.00    +0.025 A 
ATOM     28  C   UNL     1      11.036   3.967  23.355  0.00  0.00    +0.052 A 
ATOM     29  C   UNL     1      10.934   2.653  22.920  0.00  0.00    +0.025 A 
BRANCH  28  30
ATOM     30  C   UNL     1      12.314   4.613  23.349  0.00  0.00    +0.099 C 
ATOM     31  N   UNL     1      13.331   5.175  23.345  0.00  0.00    -0.191 NA
ENDBRANCH  28  30
ENDBRANCH  21  24
ENDBRANCH   1  21
TORSDOF 5
ENDMDL
MODEL 8
REMARK VINA RESULT:      -6.3      2.631      2.985
REMARK  Name = 
REMARK  7 active torsions:
REMARK  status: ('A' for Active; 'I' for Inactive)
REMARK    1  A    between atoms: C_1  and  C_2
REMARK    2  A    between atoms: C_4  and  C_27
REMARK    3  A    between atoms: C_6  and  C_7
REMARK    4  A    between atoms: C_8  and  O_9
REMARK    5  A    between atoms: O_9  and  C_10
REMARK    6  A    between atoms: N_17  and  C_18
REMARK    7  A    between atoms: C_21  and  C_24
REMARK                            x       y       z     vdW  Elec       q    Type
REMARK                         _______ _______ _______ _____ _____    ______ ____
ROOT
ATOM      1  C   UNL     1       7.448  -3.091  24.606  0.00  0.00    +0.241 A 
ATOM      2  N   UNL     1       6.649  -2.188  24.023  0.00  0.00    -0.178 NA
ATOM      3  C   UNL     1       6.768  -0.894  24.347  0.00  0.00    +0.224 A 
ATOM      4  N   UNL     1       6.025   0.001  23.562  0.00  0.00    -0.283 N 
ATOM      5  H   UNL     1       5.512  -0.532  22.873  0.00  0.00    +0.155 HD
ATOM      6  N   UNL     1       7.588  -0.472  25.308  0.00  0.00    -0.198 NA
ATOM      7  C   UNL     1       8.312  -1.388  25.965  0.00  0.00    +0.139 A 
ATOM      8  N   UNL     1       9.160  -0.848  26.932  0.00  0.00    -0.342 N 
ATOM      9  H   UNL     1       8.962   0.148  27.001  0.00  0.00    +0.144 HD
ATOM     10  H   UNL     1       9.089  -1.321  27.826  0.00  0.00    +0.144 HD
ATOM     11  C   UNL     1       8.277  -2.740  25.654  0.00  0.00    +0.119 A 
ATOM     12 BR   UNL     1       9.300  -4.004  26.622  0.00  0.00    -0.041 Br
ENDROOT
BRANCH   4  13
ATOM     13  C   UNL     1       6.282   1.343  23.218  0.00  0.00    +0.034 A 
ATOM     14  C   UNL     1       7.237   1.622  22.221  0.00  0.00    +0.024 A 
ATOM     15  C   UNL     1       7.561   2.946  21.880  0.00  0.00    +0.020 A 
ATOM     16  C   UNL     1       6.923   4.015  22.508  0.00  0.00    +0.052 A 
ATOM     17  C   UNL     1       5.946   3.748  23.468  0.00  0.00    +0.020 A 
ATOM     18  C   UNL     1       5.628   2.425  23.804  0.00  0.00    +0.024 A 
BRANCH  16  19
ATOM     19  C   UNL     1       7.266   5.376  22.187  0.00  0.00    +0.099 C 
ATOM     20  N   UNL     1       7.538   6.472  21.924  0.00  0.00    -0.191 NA
ENDBRANCH  16  19
ENDBRANCH   4  13
BRANCH   1  21
ATOM     21  O   UNL     1       7.406  -4.433  24.227  0.00  0.00    -0.436 OA
BRANCH  21  24
ATOM     22  C   UNL     1       6.241  -5.097  21.299  0.00  0.00    +0.047 C 
ATOM     23  C   UNL     1       5.662  -5.375  22.651  0.00  0.00    -0.007 A 
ATOM     24  C   UNL     1       6.281  -5.182  23.906  0.00  0.00    +0.136 A 
ATOM     25  C   UNL     1       5.596  -5.686  25.058  0.00  0.00    -0.007 A 
ATOM     26  C   UNL     1       6.211  -5.664  26.437  0.00  0.00    +0.047 C 
ATOM     27  C   UNL     1       4.307  -6.256  24.950  0.00  0.00    +0.025 A 
ATOM     28  C   UNL     1       3.680  -6.358  23.718  0.00  0.00    +0.052 A 
ATOM     29  C   UNL     1       4.363  -5.932  22.588  0.00  0.00    +0.025 A 
BRANCH  28  30
ATOM     30  C   UNL     1       2.368  -6.915  23.580  0.00  0.00    +0.099 C 
ATOM     31  N   UNL     1       1.304  -7.357  23.427  0.00  0.00    -0.191 NA
ENDBRANCH  28  30
ENDBRANCH  21  24
ENDBRANCH   1  21
TORSDOF 5
ENDMDL
MODEL 9
REMARK VINA RESULT:      -6.1      2.852      9.813
REMARK  Name = 
REMARK  7 active torsions:
REMARK  status: ('A' for Active; 'I' for Inactive)
REMARK    1  A    between atoms: C_1  and  C_2
REMARK    2  A    between atoms: C_4  and  C_27
REMARK    3  A    between atoms: C_6  and  C_7
REMARK    4  A    between atoms: C_8  and  O_9
REMARK    5  A    between atoms: O_9  and  C_10
REMARK    6  A    between atoms: N_17  and  C_18
REMARK    7  A    between atoms: C_21  and  C_24
REMARK                            x       y       z     vdW  Elec       q    Type
REMARK                         _______ _______ _______ _____ _____    ______ ____
ROOT
ATOM      1  C   UNL     1       6.552   1.530  23.653  0.00  0.00    +0.241 A 
ATOM      2  N   UNL     1       6.958   0.261  23.507  0.00  0.00    -0.178 NA
ATOM      3  C   UNL     1       6.396  -0.701  24.249  0.00  0.00    +0.224 A 
ATOM      4  N   UNL     1       6.746  -2.016  23.907  0.00  0.00    -0.283 N 
ATOM      5  H   UNL     1       7.393  -1.980  23.131  0.00  0.00    +0.155 HD
ATOM      6  N   UNL     1       5.510  -0.436  25.209  0.00  0.00    -0.198 NA
ATOM      7  C   UNL     1       5.182   0.844  25.427  0.00  0.00    +0.139 A 
ATOM      8  N   UNL     1       4.228   1.017  26.429  0.00  0.00    -0.342 N 
ATOM      9  H   UNL     1       4.061   0.112  26.862  0.00  0.00    +0.144 HD
ATOM     10  H   UNL     1       4.491   1.727  27.104  0.00  0.00    +0.144 HD
ATOM     11  C   UNL     1       5.686   1.891  24.667  0.00  0.00    +0.119 A 
ATOM     12 BR   UNL     1       5.212   3.687  25.022  0.00  0.00    -0.041 Br
ENDROOT
BRANCH   4  13
ATOM     13  C   UNL     1       6.017  -3.216  24.030  0.00  0.00    +0.034 A 
ATOM     14  C   UNL     1       6.365  -4.126  25.046  0.00  0.00    +0.024 A 
ATOM     15  C   UNL     1       5.698  -5.355  25.176  0.00  0.00    +0.020 A 
ATOM     16  C   UNL     1       4.656  -5.690  24.311  0.00  0.00    +0.052 A 
ATOM     17  C   UNL     1       4.276  -4.776  23.326  0.00  0.00    +0.020 A 
ATOM     18  C   UNL     1       4.947  -3.552  23.203  0.00  0.00    +0.024 A 
BRANCH  16  19
ATOM     19  C   UNL     1       3.983  -6.958  24.415  0.00  0.00    +0.099 C 
ATOM     20  N   UNL     1       3.446  -7.982  24.501  0.00  0.00    -0.191 NA
ENDBRANCH  16  19
ENDBRANCH   4  13
BRANCH   1  21
ATOM     21  O   UNL     1       7.058   2.540  22.835  0.00  0.00    -0.436 OA
BRANCH  21  24
ATOM     22  C   UNL     1       9.994   1.226  22.989  0.00  0.00    +0.047 C 
ATOM     23  C   UNL     1       9.565   2.649  23.171  0.00  0.00    -0.007 A 
ATOM     24  C   UNL     1       8.279   3.191  22.958  0.00  0.00    +0.136 A 
ATOM     25  C   UNL     1       8.149   4.615  23.027  0.00  0.00    -0.007 A 
ATOM     26  C   UNL     1       6.861   5.327  22.687  0.00  0.00    +0.047 C 
ATOM     27  C   UNL     1       9.243   5.431  23.397  0.00  0.00    +0.025 A 
ATOM     28  C   UNL     1      10.477   4.871  23.687  0.00  0.00    +0.052 A 
ATOM     29  C   UNL     1      10.629   3.498  23.559  0.00  0.00    +0.025 A 
BRANCH  28  30
ATOM     30  C   UNL     1      11.598   5.670  24.081  0.00  0.00    +0.099 C 
ATOM     31  N   UNL     1      12.532   6.284  24.396  0.00  0.00    -0.191 NA
ENDBRANCH  28  30
ENDBRANCH  21  24
ENDBRANCH   1  21
TORSDOF 5
ENDMDL
