MODEL 1
REMARK VINA RESULT:      -7.3      0.000      0.000
REMARK  Name = 
REMARK  5 active torsions:
REMARK  status: ('A' for Active; 'I' for Inactive)
REMARK    1  A    between atoms: C_1  and  C_2
REMARK    2  A    between atoms: N_4  and  C_5
REMARK    3  A    between atoms: C_9  and  N_10
REMARK    4  A    between atoms: C_14  and  C_27
REMARK    5  A    between atoms: N_19  and  C_20
REMARK                            x       y       z     vdW  Elec       q    Type
REMARK                         _______ _______ _______ _____ _____    ______ ____
ROOT
ATOM      1  N   UNL     1      10.224   0.428  24.104  0.00  0.00    -0.283 N 
ATOM      2  H   UNL     1      11.115   0.206  23.683  0.00  0.00    +0.155 HD
ATOM      3  C   UNL     1       9.991   1.776  24.205  0.00  0.00    +0.224 A 
ATOM      4  N   UNL     1       8.824   2.229  24.773  0.00  0.00    -0.181 NA
ATOM      5  C   UNL     1       8.507   3.488  24.770  0.00  0.00    +0.225 A 
ATOM      6  N   UNL     1       7.322   3.987  25.267  0.00  0.00    -0.283 N 
ATOM      7  H   UNL     1       7.031   4.906  24.953  0.00  0.00    +0.155 HD
ATOM      8  N   UNL     1       9.434   4.373  24.221  0.00  0.00    -0.182 N 
ATOM      9  C   UNL     1      10.640   3.925  23.755  0.00  0.00    +0.180 A 
ATOM     10  C   UNL     1      11.327   5.069  23.410  0.00  0.00    +0.116 A 
ATOM     11  C   UNL     1      10.437   6.132  23.676  0.00  0.00    +0.156 A 
ATOM     12  N   UNL     1       9.260   5.713  24.160  0.00  0.00    -0.169 NA
ATOM     13  N   UNL     1      10.905   2.588  23.725  0.00  0.00    -0.194 NA
ENDROOT
BRANCH   1  16
ATOM     14  C   UNL     1       8.040  -2.643  24.028  0.00  0.00    +0.035 A 
ATOM     15  C   UNL     1       8.916  -1.630  23.610  0.00  0.00    +0.046 A 
ATOM     16  C   UNL     1       9.440  -0.676  24.497  0.00  0.00    +0.035 A 
ATOM     17  C   UNL     1       9.142  -0.840  25.857  0.00  0.00    +0.023 A 
ATOM     18  C   UNL     1       8.330  -1.888  26.300  0.00  0.00    +0.004 A 
ATOM     19  C   UNL     1       7.765  -2.777  25.385  0.00  0.00    +0.023 A 
BRANCH  14  22
ATOM     20  C   UNL     1       6.861  -5.365  21.706  0.00  0.00    +0.109 C 
ATOM     21  C   UNL     1       7.668  -4.809  22.850  0.00  0.00    +0.214 C 
ATOM     22  N   UNL     1       7.468  -3.452  23.021  0.00  0.00    -0.286 N 
ATOM     23  H   UNL     1       6.721  -3.027  22.479  0.00  0.00    +0.155 HD
ATOM     24  O   UNL     1       8.374  -5.541  23.533  0.00  0.00    -0.276 OA
ENDBRANCH  14  22
ENDBRANCH   1  16
BRANCH   6  25
ATOM     25  C   UNL     1       6.545   3.374  26.268  0.00  0.00    +0.034 A 
ATOM     26  C   UNL     1       5.391   2.670  25.910  0.00  0.00    +0.023 A 
ATOM     27  C   UNL     1       4.658   1.964  26.868  0.00  0.00    +0.002 A 
ATOM     28  C   UNL     1       5.063   1.965  28.201  0.00  0.00    +0.000 A 
ATOM     29  C   UNL     1       6.203   2.668  28.577  0.00  0.00    +0.002 A 
ATOM     30  C   UNL     1       6.940   3.358  27.613  0.00  0.00    +0.023 A 
ENDBRANCH   6  25
BRANCH  10  31
ATOM     31  C   UNL     1      12.652   5.152  22.898  0.00  0.00    +0.104 C 
ATOM     32  N   UNL     1      13.725   5.261  22.469  0.00  0.00    -0.191 NA
ENDBRANCH  10  31
TORSDOF 4
ENDMDL
MODEL 2
REMARK VINA RESULT:      -7.1      3.251      8.072
REMARK  Name = 
REMARK  5 active torsions:
REMARK  status: ('A' for Active; 'I' for Inactive)
REMARK    1  A    between atoms: C_1  and  C_2
REMARK    2  A    between atoms: N_4  and  C_5
REMARK    3  A    between atoms: C_9  and  N_10
REMARK    4  A    between atoms: C_14  and  C_27
REMARK    5  A    between atoms: N_19  and  C_20
REMARK                            x       y       z     vdW  Elec       q    Type
REMARK                         _______ _______ _______ _____ _____    ______ ____
ROOT
ATOM      1  N   UNL     1       5.726  -0.552  26.513  0.00  0.00    -0.283 N 
ATOM      2  H   UNL     1       5.132  -0.938  27.233  0.00  0.00    +0.155 HD
ATOM      3  C   UNL     1       6.685  -1.426  26.070  0.00  0.00    +0.224 A 
ATOM      4  N   UNL     1       7.578  -1.032  25.102  0.00  0.00    -0.181 NA
ATOM      5  C   UNL     1       8.414  -1.867  24.564  0.00  0.00    +0.225 A 
ATOM      6  N   UNL     1       9.284  -1.539  23.546  0.00  0.00    -0.283 N 
ATOM      7  H   UNL     1       9.665  -2.299  22.993  0.00  0.00    +0.155 HD
ATOM      8  N   UNL     1       8.413  -3.170  25.058  0.00  0.00    -0.182 N 
ATOM      9  C   UNL     1       7.596  -3.526  26.097  0.00  0.00    +0.180 A 
ATOM     10  C   UNL     1       7.950  -4.826  26.389  0.00  0.00    +0.116 A 
ATOM     11  C   UNL     1       8.954  -5.158  25.454  0.00  0.00    +0.156 A 
ATOM     12  N   UNL     1       9.236  -4.150  24.617  0.00  0.00    -0.169 NA
ATOM     13  N   UNL     1       6.693  -2.633  26.590  0.00  0.00    -0.194 NA
ENDROOT
BRANCH   1  16
ATOM     14  C   UNL     1       6.099   3.002  25.310  0.00  0.00    +0.035 A 
ATOM     15  C   UNL     1       6.381   1.649  25.553  0.00  0.00    +0.046 A 
ATOM     16  C   UNL     1       5.448   0.780  26.139  0.00  0.00    +0.035 A 
ATOM     17  C   UNL     1       4.163   1.290  26.375  0.00  0.00    +0.023 A 
ATOM     18  C   UNL     1       3.844   2.616  26.070  0.00  0.00    +0.004 A 
ATOM     19  C   UNL     1       4.815   3.475  25.556  0.00  0.00    +0.023 A 
BRANCH  14  22
ATOM     20  C   UNL     1       9.052   5.290  24.823  0.00  0.00    +0.109 C 
ATOM     21  C   UNL     1       7.979   4.608  25.631  0.00  0.00    +0.214 C 
ATOM     22  N   UNL     1       7.166   3.807  24.852  0.00  0.00    -0.286 N 
ATOM     23  H   UNL     1       7.457   3.654  23.891  0.00  0.00    +0.155 HD
ATOM     24  O   UNL     1       7.915   4.763  26.845  0.00  0.00    -0.276 OA
ENDBRANCH  14  22
ENDBRANCH   1  16
BRANCH   6  25
ATOM     25  C   UNL     1       9.778  -0.247  23.291  0.00  0.00    +0.034 A 
ATOM     26  C   UNL     1       9.494   0.371  22.069  0.00  0.00    +0.023 A 
ATOM     27  C   UNL     1       9.882   1.692  21.828  0.00  0.00    +0.002 A 
ATOM     28  C   UNL     1      10.571   2.409  22.804  0.00  0.00    +0.000 A 
ATOM     29  C   UNL     1      10.871   1.807  24.021  0.00  0.00    +0.002 A 
ATOM     30  C   UNL     1      10.468   0.492  24.262  0.00  0.00    +0.023 A 
ENDBRANCH   6  25
BRANCH  10  31
ATOM     31  C   UNL     1       7.414  -5.650  27.417  0.00  0.00    +0.104 C 
ATOM     32  N   UNL     1       6.988  -6.292  28.284  0.00  0.00    -0.191 NA
ENDBRANCH  10  31
TORSDOF 4
ENDMDL
MODEL 3
REMARK VINA RESULT:      -7.0      3.235      8.336
REMARK  Name = 
REMARK  5 active torsions:
REMARK  status: ('A' for Active; 'I' for Inactive)
REMARK    1  A    between atoms: C_1  and  C_2
REMARK    2  A    between atoms: N_4  and  C_5
REMARK    3  A    between atoms: C_9  and  N_10
REMARK    4  A    between atoms: C_14  and  C_27
REMARK    5  A    between atoms: N_19  and  C_20
REMARK                            x       y       z     vdW  Elec       q    Type
REMARK                         _______ _______ _______ _____ _____    ______ ____
ROOT
ATOM      1  N   UNL     1       4.945  -1.472  25.688  0.00  0.00    -0.283 N 
ATOM      2  H   UNL     1       4.230  -1.946  26.221  0.00  0.00    +0.155 HD
ATOM      3  C   UNL     1       5.593  -2.290  24.799  0.00  0.00    +0.224 A 
ATOM      4  N   UNL     1       6.604  -1.786  24.015  0.00  0.00    -0.181 NA
ATOM      5  C   UNL     1       7.153  -2.491  23.072  0.00  0.00    +0.225 A 
ATOM      6  N   UNL     1       8.123  -2.013  22.217  0.00  0.00    -0.283 N 
ATOM      7  H   UNL     1       8.265  -2.510  21.345  0.00  0.00    +0.155 HD
ATOM      8  N   UNL     1       6.717  -3.807  22.930  0.00  0.00    -0.182 N 
ATOM      9  C   UNL     1       5.788  -4.334  23.786  0.00  0.00    +0.180 A 
ATOM     10  C   UNL     1       5.697  -5.662  23.427  0.00  0.00    +0.116 A 
ATOM     11  C   UNL     1       6.581  -5.814  22.337  0.00  0.00    +0.156 A 
ATOM     12  N   UNL     1       7.203  -4.673  22.010  0.00  0.00    -0.169 NA
ATOM     13  N   UNL     1       5.196  -3.540  24.722  0.00  0.00    -0.194 NA
ENDROOT
BRANCH   1  16
ATOM     14  C   UNL     1       5.810   2.186  25.405  0.00  0.00    +0.035 A 
ATOM     15  C   UNL     1       5.530   0.860  25.045  0.00  0.00    +0.046 A 
ATOM     16  C   UNL     1       5.121  -0.104  25.980  0.00  0.00    +0.035 A 
ATOM     17  C   UNL     1       4.889   0.339  27.290  0.00  0.00    +0.023 A 
ATOM     18  C   UNL     1       5.093   1.675  27.650  0.00  0.00    +0.004 A 
ATOM     19  C   UNL     1       5.570   2.592  26.713  0.00  0.00    +0.023 A 
BRANCH  14  22
ATOM     20  C   UNL     1       7.910   4.286  23.088  0.00  0.00    +0.109 C 
ATOM     21  C   UNL     1       7.664   3.445  24.313  0.00  0.00    +0.214 C 
ATOM     22  N   UNL     1       6.351   3.022  24.404  0.00  0.00    -0.286 N 
ATOM     23  H   UNL     1       5.759   3.191  23.596  0.00  0.00    +0.155 HD
ATOM     24  O   UNL     1       8.580   3.175  25.082  0.00  0.00    -0.276 OA
ENDBRANCH  14  22
ENDBRANCH   1  16
BRANCH   6  25
ATOM     25  C   UNL     1       9.012  -0.963  22.511  0.00  0.00    +0.034 A 
ATOM     26  C   UNL     1       9.076   0.145  21.660  0.00  0.00    +0.023 A 
ATOM     27  C   UNL     1       9.872   1.249  21.981  0.00  0.00    +0.002 A 
ATOM     28  C   UNL     1      10.625   1.251  23.153  0.00  0.00    +0.000 A 
ATOM     29  C   UNL     1      10.582   0.153  24.006  0.00  0.00    +0.002 A 
ATOM     30  C   UNL     1       9.773  -0.939  23.687  0.00  0.00    +0.023 A 
ENDBRANCH   6  25
BRANCH  10  31
ATOM     31  C   UNL     1       4.885  -6.661  24.033  0.00  0.00    +0.104 C 
ATOM     32  N   UNL     1       4.198  -7.475  24.493  0.00  0.00    -0.191 NA
ENDBRANCH  10  31
TORSDOF 4
ENDMDL
MODEL 4
REMARK VINA RESULT:      -7.0      3.613      7.886
REMARK  Name = 
REMARK  5 active torsions:
REMARK  status: ('A' for Active; 'I' for Inactive)
REMARK    1  A    between atoms: C_1  and  C_2
REMARK    2  A    between atoms: N_4  and  C_5
REMARK    3  A    between atoms: C_9  and  N_10
REMARK    4  A    between atoms: C_14  and  C_27
REMARK    5  A    between atoms: N_19  and  C_20
REMARK                            x       y       z     vdW  Elec       q    Type
REMARK                         _______ _______ _______ _____ _____    ______ ____
ROOT
ATOM      1  N   UNL     1       5.858  -0.376  26.864  0.00  0.00    -0.283 N 
ATOM      2  H   UNL     1       5.299  -0.738  27.625  0.00  0.00    +0.155 HD
ATOM      3  C   UNL     1       6.713  -1.304  26.328  0.00  0.00    +0.224 A 
ATOM      4  N   UNL     1       7.549  -0.949  25.295  0.00  0.00    -0.181 NA
ATOM      5  C   UNL     1       8.277  -1.827  24.675  0.00  0.00    +0.225 A 
ATOM      6  N   UNL     1       9.082  -1.537  23.594  0.00  0.00    -0.283 N 
ATOM      7  H   UNL     1       9.361  -2.307  22.997  0.00  0.00    +0.155 HD
ATOM      8  N   UNL     1       8.226  -3.138  25.145  0.00  0.00    -0.182 N 
ATOM      9  C   UNL     1       7.474  -3.462  26.242  0.00  0.00    +0.180 A 
ATOM     10  C   UNL     1       7.758  -4.789  26.481  0.00  0.00    +0.116 A 
ATOM     11  C   UNL     1       8.656  -5.167  25.459  0.00  0.00    +0.156 A 
ATOM     12  N   UNL     1       8.938  -4.162  24.619  0.00  0.00    -0.169 NA
ATOM     13  N   UNL     1       6.679  -2.520  26.824  0.00  0.00    -0.194 NA
ENDROOT
BRANCH   1  16
ATOM     14  C   UNL     1       4.655   2.774  25.179  0.00  0.00    +0.035 A 
ATOM     15  C   UNL     1       4.748   1.426  25.556  0.00  0.00    +0.046 A 
ATOM     16  C   UNL     1       5.644   0.979  26.539  0.00  0.00    +0.035 A 
ATOM     17  C   UNL     1       6.378   1.959  27.224  0.00  0.00    +0.023 A 
ATOM     18  C   UNL     1       6.243   3.315  26.911  0.00  0.00    +0.004 A 
ATOM     19  C   UNL     1       5.397   3.720  25.878  0.00  0.00    +0.023 A 
BRANCH  14  22
ATOM     20  C   UNL     1       3.070   3.518  21.844  0.00  0.00    +0.109 C 
ATOM     21  C   UNL     1       4.229   3.261  22.771  0.00  0.00    +0.214 C 
ATOM     22  N   UNL     1       3.822   3.077  24.079  0.00  0.00    -0.286 N 
ATOM     23  H   UNL     1       2.823   2.991  24.241  0.00  0.00    +0.155 HD
ATOM     24  O   UNL     1       5.375   3.198  22.341  0.00  0.00    -0.276 OA
ENDBRANCH  14  22
ENDBRANCH   1  16
BRANCH   6  25
ATOM     25  C   UNL     1       9.643  -0.275  23.320  0.00  0.00    +0.034 A 
ATOM     26  C   UNL     1       9.371   0.349  22.099  0.00  0.00    +0.023 A 
ATOM     27  C   UNL     1       9.828   1.646  21.842  0.00  0.00    +0.002 A 
ATOM     28  C   UNL     1      10.574   2.328  22.800  0.00  0.00    +0.000 A 
ATOM     29  C   UNL     1      10.861   1.718  24.017  0.00  0.00    +0.002 A 
ATOM     30  C   UNL     1      10.389   0.430  24.274  0.00  0.00    +0.023 A 
ENDBRANCH   6  25
BRANCH  10  31
ATOM     31  C   UNL     1       7.252  -5.598  27.536  0.00  0.00    +0.104 C 
ATOM     32  N   UNL     1       6.879  -6.263  28.410  0.00  0.00    -0.191 NA
ENDBRANCH  10  31
TORSDOF 4
ENDMDL
MODEL 5
REMARK VINA RESULT:      -6.9      2.994      7.521
REMARK  Name = 
REMARK  5 active torsions:
REMARK  status: ('A' for Active; 'I' for Inactive)
REMARK    1  A    between atoms: C_1  and  C_2
REMARK    2  A    between atoms: N_4  and  C_5
REMARK    3  A    between atoms: C_9  and  N_10
REMARK    4  A    between atoms: C_14  and  C_27
REMARK    5  A    between atoms: N_19  and  C_20
REMARK                            x       y       z     vdW  Elec       q    Type
REMARK                         _______ _______ _______ _____ _____    ______ ____
ROOT
ATOM      1  N   UNL     1       8.593  -0.868  22.331  0.00  0.00    -0.283 N 
ATOM      2  H   UNL     1       8.783  -1.072  21.359  0.00  0.00    +0.155 HD
ATOM      3  C   UNL     1       7.819  -1.818  22.945  0.00  0.00    +0.224 A 
ATOM      4  N   UNL     1       7.465  -1.665  24.265  0.00  0.00    -0.181 NA
ATOM      5  C   UNL     1       6.846  -2.601  24.919  0.00  0.00    +0.225 A 
ATOM      6  N   UNL     1       6.525  -2.524  26.257  0.00  0.00    -0.283 N 
ATOM      7  H   UNL     1       6.331  -3.393  26.743  0.00  0.00    +0.155 HD
ATOM      8  N   UNL     1       6.495  -3.746  24.205  0.00  0.00    -0.182 N 
ATOM      9  C   UNL     1       6.755  -3.844  22.865  0.00  0.00    +0.180 A 
ATOM     10  C   UNL     1       6.171  -5.032  22.482  0.00  0.00    +0.116 A 
ATOM     11  C   UNL     1       5.622  -5.575  23.665  0.00  0.00    +0.156 A 
ATOM     12  N   UNL     1       5.832  -4.799  24.737  0.00  0.00    -0.169 NA
ATOM     13  N   UNL     1       7.460  -2.863  22.234  0.00  0.00    -0.194 NA
ENDROOT
BRANCH   1  16
ATOM     14  C   UNL     1       9.260   2.782  22.994  0.00  0.00    +0.035 A 
ATOM     15  C   UNL     1       8.611   1.607  22.588  0.00  0.00    +0.046 A 
ATOM     16  C   UNL     1       9.147   0.331  22.824  0.00  0.00    +0.035 A 
ATOM     17  C   UNL     1      10.320   0.266  23.590  0.00  0.00    +0.023 A 
ATOM     18  C   UNL     1      10.941   1.425  24.065  0.00  0.00    +0.004 A 
ATOM     19  C   UNL     1      10.422   2.681  23.751  0.00  0.00    +0.023 A 
BRANCH  14  22
ATOM     20  C   UNL     1       7.242   5.910  22.414  0.00  0.00    +0.109 C 
ATOM     21  C   UNL     1       7.525   4.572  23.046  0.00  0.00    +0.214 C 
ATOM     22  N   UNL     1       8.694   4.006  22.572  0.00  0.00    -0.286 N 
ATOM     23  H   UNL     1       9.284   4.592  21.989  0.00  0.00    +0.155 HD
ATOM     24  O   UNL     1       6.780   4.114  23.905  0.00  0.00    -0.276 OA
ENDBRANCH  14  22
ENDBRANCH   1  16
BRANCH   6  25
ATOM     25  C   UNL     1       6.330  -1.329  26.974  0.00  0.00    +0.034 A 
ATOM     26  C   UNL     1       5.086  -1.072  27.559  0.00  0.00    +0.023 A 
ATOM     27  C   UNL     1       4.894   0.055  28.364  0.00  0.00    +0.002 A 
ATOM     28  C   UNL     1       5.942   0.947  28.582  0.00  0.00    +0.000 A 
ATOM     29  C   UNL     1       7.183   0.712  28.000  0.00  0.00    +0.002 A 
ATOM     30  C   UNL     1       7.374  -0.424  27.210  0.00  0.00    +0.023 A 
ENDBRANCH   6  25
BRANCH  10  31
ATOM     31  C   UNL     1       6.131  -5.586  21.172  0.00  0.00    +0.104 C 
ATOM     32  N   UNL     1       6.068  -6.009  20.094  0.00  0.00    -0.191 NA
ENDBRANCH  10  31
TORSDOF 4
ENDMDL
MODEL 6
REMARK VINA RESULT:      -6.8      2.923      5.912
REMARK  Name = 
REMARK  5 active torsions:
REMARK  status: ('A' for Active; 'I' for Inactive)
REMARK    1  A    between atoms: C_1  and  C_2
REMARK    2  A    between atoms: N_4  and  C_5
REMARK    3  A    between atoms: C_9  and  N_10
REMARK    4  A    between atoms: C_14  and  C_27
REMARK    5  A    between atoms: N_19  and  C_20
REMARK                            x       y       z     vdW  Elec       q    Type
REMARK                         _______ _______ _______ _____ _____    ______ ____
ROOT
ATOM      1  N   UNL     1       6.422  -2.417  26.852  0.00  0.00    -0.283 N 
ATOM      2  H   UNL     1       5.731  -2.882  27.425  0.00  0.00    +0.155 HD
ATOM      3  C   UNL     1       6.390  -1.051  26.961  0.00  0.00    +0.224 A 
ATOM      4  N   UNL     1       7.262  -0.284  26.226  0.00  0.00    -0.181 NA
ATOM      5  C   UNL     1       7.353   1.000  26.396  0.00  0.00    +0.225 A 
ATOM      6  N   UNL     1       8.254   1.805  25.732  0.00  0.00    -0.283 N 
ATOM      7  H   UNL     1       8.462   2.710  26.139  0.00  0.00    +0.155 HD
ATOM      8  N   UNL     1       6.478   1.580  27.314  0.00  0.00    -0.182 N 
ATOM      9  C   UNL     1       5.539   0.825  27.963  0.00  0.00    +0.180 A 
ATOM     10  C   UNL     1       4.793   1.735  28.678  0.00  0.00    +0.116 A 
ATOM     11  C   UNL     1       5.384   2.990  28.416  0.00  0.00    +0.156 A 
ATOM     12  N   UNL     1       6.435   2.904  27.590  0.00  0.00    -0.169 NA
ATOM     13  N   UNL     1       5.521  -0.528  27.797  0.00  0.00    -0.194 NA
ENDROOT
BRANCH   1  16
ATOM     14  C   UNL     1       7.788  -4.490  24.016  0.00  0.00    +0.035 A 
ATOM     15  C   UNL     1       7.021  -3.549  24.719  0.00  0.00    +0.046 A 
ATOM     16  C   UNL     1       7.241  -3.262  26.075  0.00  0.00    +0.035 A 
ATOM     17  C   UNL     1       8.345  -3.876  26.685  0.00  0.00    +0.023 A 
ATOM     18  C   UNL     1       9.164  -4.760  25.977  0.00  0.00    +0.004 A 
ATOM     19  C   UNL     1       8.875  -5.081  24.651  0.00  0.00    +0.023 A 
BRANCH  14  22
ATOM     20  C   UNL     1       6.178  -5.740  20.848  0.00  0.00    +0.109 C 
ATOM     21  C   UNL     1       6.396  -5.700  22.338  0.00  0.00    +0.214 C 
ATOM     22  N   UNL     1       7.378  -4.797  22.699  0.00  0.00    -0.286 N 
ATOM     23  H   UNL     1       7.725  -4.180  21.970  0.00  0.00    +0.155 HD
ATOM     24  O   UNL     1       5.718  -6.390  23.090  0.00  0.00    -0.276 OA
ENDBRANCH  14  22
ENDBRANCH   1  16
BRANCH   6  25
ATOM     25  C   UNL     1       8.816   1.521  24.474  0.00  0.00    +0.034 A 
ATOM     26  C   UNL     1       9.998   0.776  24.400  0.00  0.00    +0.023 A 
ATOM     27  C   UNL     1      10.522   0.389  23.163  0.00  0.00    +0.002 A 
ATOM     28  C   UNL     1       9.878   0.754  21.984  0.00  0.00    +0.000 A 
ATOM     29  C   UNL     1       8.707   1.504  22.038  0.00  0.00    +0.002 A 
ATOM     30  C   UNL     1       8.179   1.874  23.277  0.00  0.00    +0.023 A 
ENDBRANCH   6  25
BRANCH  10  31
ATOM     31  C   UNL     1       3.666   1.461  29.503  0.00  0.00    +0.104 C 
ATOM     32  N   UNL     1       2.755   1.274  30.197  0.00  0.00    -0.191 NA
ENDBRANCH  10  31
TORSDOF 4
ENDMDL
MODEL 7
REMARK VINA RESULT:      -6.8      5.014     10.470
REMARK  Name = 
REMARK  5 active torsions:
REMARK  status: ('A' for Active; 'I' for Inactive)
REMARK    1  A    between atoms: C_1  and  C_2
REMARK    2  A    between atoms: N_4  and  C_5
REMARK    3  A    between atoms: C_9  and  N_10
REMARK    4  A    between atoms: C_14  and  C_27
REMARK    5  A    between atoms: N_19  and  C_20
REMARK                            x       y       z     vdW  Elec       q    Type
REMARK                         _______ _______ _______ _____ _____    ______ ____
ROOT
ATOM      1  N   UNL     1       5.288  -5.166  23.037  0.00  0.00    -0.283 N 
ATOM      2  H   UNL     1       5.142  -5.052  22.044  0.00  0.00    +0.155 HD
ATOM      3  C   UNL     1       4.358  -5.977  23.634  0.00  0.00    +0.224 A 
ATOM      4  N   UNL     1       4.421  -6.211  24.988  0.00  0.00    -0.181 NA
ATOM      5  C   UNL     1       3.643  -7.073  25.569  0.00  0.00    +0.225 A 
ATOM      6  N   UNL     1       3.708  -7.391  26.908  0.00  0.00    -0.283 N 
ATOM      7  H   UNL     1       3.291  -8.268  27.202  0.00  0.00    +0.155 HD
ATOM      8  N   UNL     1       2.692  -7.706  24.770  0.00  0.00    -0.182 N 
ATOM      9  C   UNL     1       2.565  -7.388  23.444  0.00  0.00    +0.180 A 
ATOM     10  C   UNL     1       1.469  -8.106  23.017  0.00  0.00    +0.116 A 
ATOM     11  C   UNL     1       1.040  -8.838  24.145  0.00  0.00    +0.156 A 
ATOM     12  N   UNL     1       1.798  -8.613  25.227  0.00  0.00    -0.169 NA
ATOM     13  N   UNL     1       3.443  -6.521  22.865  0.00  0.00    -0.194 NA
ENDROOT
BRANCH   1  16
ATOM     14  C   UNL     1       7.970  -2.586  23.640  0.00  0.00    +0.035 A 
ATOM     15  C   UNL     1       6.799  -3.192  23.162  0.00  0.00    +0.046 A 
ATOM     16  C   UNL     1       6.388  -4.468  23.578  0.00  0.00    +0.035 A 
ATOM     17  C   UNL     1       7.141  -5.081  24.590  0.00  0.00    +0.023 A 
ATOM     18  C   UNL     1       8.270  -4.458  25.130  0.00  0.00    +0.004 A 
ATOM     19  C   UNL     1       8.694  -3.221  24.643  0.00  0.00    +0.023 A 
BRANCH  14  22
ATOM     20  C   UNL     1       9.595   0.275  21.806  0.00  0.00    +0.109 C 
ATOM     21  C   UNL     1       9.537  -1.121  22.369  0.00  0.00    +0.214 C 
ATOM     22  N   UNL     1       8.353  -1.366  23.039  0.00  0.00    -0.286 N 
ATOM     23  H   UNL     1       7.624  -0.664  22.954  0.00  0.00    +0.155 HD
ATOM     24  O   UNL     1      10.456  -1.910  22.185  0.00  0.00    -0.276 OA
ENDBRANCH  14  22
ENDBRANCH   1  16
BRANCH   6  25
ATOM     25  C   UNL     1       4.199  -6.542  27.917  0.00  0.00    +0.034 A 
ATOM     26  C   UNL     1       3.418  -5.469  28.355  0.00  0.00    +0.023 A 
ATOM     27  C   UNL     1       3.835  -4.672  29.426  0.00  0.00    +0.002 A 
ATOM     28  C   UNL     1       5.045  -4.933  30.064  0.00  0.00    +0.000 A 
ATOM     29  C   UNL     1       5.840  -5.990  29.635  0.00  0.00    +0.002 A 
ATOM     30  C   UNL     1       5.412  -6.792  28.575  0.00  0.00    +0.023 A 
ENDBRANCH   6  25
BRANCH  10  31
ATOM     31  C   UNL     1       0.896  -8.103  21.714  0.00  0.00    +0.104 C 
ATOM     32  N   UNL     1       0.443  -8.140  20.647  0.00  0.00    -0.191 NA
ENDBRANCH  10  31
TORSDOF 4
ENDMDL
MODEL 8
REMARK VINA RESULT:      -6.7      3.721      7.588
REMARK  Name = 
REMARK  5 active torsions:
REMARK  status: ('A' for Active; 'I' for Inactive)
REMARK    1  A    between atoms: C_1  and  C_2
REMARK    2  A    between atoms: N_4  and  C_5
REMARK    3  A    between atoms: C_9  and  N_10
REMARK    4  A    between atoms: C_14  and  C_27
REMARK    5  A    between atoms: N_19  and  C_20
REMARK                            x       y       z     vdW  Elec       q    Type
REMARK                         _______ _______ _______ _____ _____    ______ ____
ROOT
ATOM      1  N   UNL     1       5.631   1.479  23.638  0.00  0.00    -0.283 N 
ATOM      2  H   UNL     1       4.917   0.773  23.749  0.00  0.00    +0.155 HD
ATOM      3  C   UNL     1       6.893   0.961  23.502  0.00  0.00    +0.224 A 
ATOM      4  N   UNL     1       7.969   1.805  23.360  0.00  0.00    -0.181 NA
ATOM      5  C   UNL     1       9.159   1.356  23.098  0.00  0.00    +0.225 A 
ATOM      6  N   UNL     1      10.258   2.160  22.883  0.00  0.00    -0.283 N 
ATOM      7  H   UNL     1      11.048   1.754  22.394  0.00  0.00    +0.155 HD
ATOM      8  N   UNL     1       9.313  -0.028  23.033  0.00  0.00    -0.182 N 
ATOM      9  C   UNL     1       8.259  -0.864  23.284  0.00  0.00    +0.180 A 
ATOM     10  C   UNL     1       8.802  -2.130  23.251  0.00  0.00    +0.116 A 
ATOM     11  C   UNL     1      10.167  -1.942  22.943  0.00  0.00    +0.156 A 
ATOM     12  N   UNL     1      10.490  -0.651  22.790  0.00  0.00    -0.169 NA
ATOM     13  N   UNL     1       7.016  -0.347  23.495  0.00  0.00    -0.194 NA
ENDROOT
BRANCH   1  16
ATOM     14  C   UNL     1       4.079   4.769  22.649  0.00  0.00    +0.035 A 
ATOM     15  C   UNL     1       4.404   3.404  22.648  0.00  0.00    +0.046 A 
ATOM     16  C   UNL     1       5.179   2.815  23.659  0.00  0.00    +0.035 A 
ATOM     17  C   UNL     1       5.529   3.626  24.748  0.00  0.00    +0.023 A 
ATOM     18  C   UNL     1       5.150   4.971  24.800  0.00  0.00    +0.004 A 
ATOM     19  C   UNL     1       4.442   5.545  23.744  0.00  0.00    +0.023 A 
BRANCH  14  22
ATOM     20  C   UNL     1       1.691   5.912  19.970  0.00  0.00    +0.109 C 
ATOM     21  C   UNL     1       2.059   5.238  21.266  0.00  0.00    +0.214 C 
ATOM     22  N   UNL     1       3.420   5.272  21.506  0.00  0.00    -0.286 N 
ATOM     23  H   UNL     1       3.980   5.851  20.888  0.00  0.00    +0.155 HD
ATOM     24  O   UNL     1       1.194   4.765  21.994  0.00  0.00    -0.276 OA
ENDBRANCH  14  22
ENDBRANCH   1  16
BRANCH   6  25
ATOM     25  C   UNL     1      10.416   3.463  23.391  0.00  0.00    +0.034 A 
ATOM     26  C   UNL     1      11.666   4.085  23.312  0.00  0.00    +0.023 A 
ATOM     27  C   UNL     1      11.829   5.415  23.713  0.00  0.00    +0.002 A 
ATOM     28  C   UNL     1      10.744   6.135  24.209  0.00  0.00    +0.000 A 
ATOM     29  C   UNL     1       9.496   5.528  24.304  0.00  0.00    +0.002 A 
ATOM     30  C   UNL     1       9.336   4.205  23.888  0.00  0.00    +0.023 A 
ENDBRANCH   6  25
BRANCH  10  31
ATOM     31  C   UNL     1       8.125  -3.360  23.481  0.00  0.00    +0.104 C 
ATOM     32  N   UNL     1       7.552  -4.358  23.631  0.00  0.00    -0.191 NA
ENDBRANCH  10  31
TORSDOF 4
ENDMDL
MODEL 9
REMARK VINA RESULT:      -6.7      1.558      2.267
REMARK  Name = 
REMARK  5 active torsions:
REMARK  status: ('A' for Active; 'I' for Inactive)
REMARK    1  A    between atoms: C_1  and  C_2
REMARK    2  A    between atoms: N_4  and  C_5
REMARK    3  A    between atoms: C_9  and  N_10
REMARK    4  A    between atoms: C_14  and  C_27
REMARK    5  A    between atoms: N_19  and  C_20
REMARK                            x       y       z     vdW  Elec       q    Type
REMARK                         _______ _______ _______ _____ _____    ______ ____
ROOT
ATOM      1  N   UNL     1      10.064   0.512  23.196  0.00  0.00    -0.283 N 
ATOM      2  H   UNL     1      10.953   0.327  22.753  0.00  0.00    +0.155 HD
ATOM      3  C   UNL     1       9.919   1.813  23.603  0.00  0.00    +0.224 A 
ATOM      4  N   UNL     1       8.766   2.209  24.238  0.00  0.00    -0.181 NA
ATOM      5  C   UNL     1       8.534   3.455  24.522  0.00  0.00    +0.225 A 
ATOM      6  N   UNL     1       7.369   3.911  25.098  0.00  0.00    -0.283 N 
ATOM      7  H   UNL     1       7.153   4.897  25.000  0.00  0.00    +0.155 HD
ATOM      8  N   UNL     1       9.538   4.371  24.212  0.00  0.00    -0.182 N 
ATOM      9  C   UNL     1      10.728   3.954  23.678  0.00  0.00    +0.180 A 
ATOM     10  C   UNL     1      11.503   5.092  23.622  0.00  0.00    +0.116 A 
ATOM     11  C   UNL     1      10.678   6.129  24.111  0.00  0.00    +0.156 A 
ATOM     12  N   UNL     1       9.458   5.698  24.461  0.00  0.00    -0.169 NA
ATOM     13  N   UNL     1      10.903   2.645  23.343  0.00  0.00    -0.194 NA
ENDROOT
BRANCH   1  16
ATOM     14  C   UNL     1       7.627  -2.029  24.542  0.00  0.00    +0.035 A 
ATOM     15  C   UNL     1       8.386  -0.856  24.423  0.00  0.00    +0.046 A 
ATOM     16  C   UNL     1       9.193  -0.592  23.306  0.00  0.00    +0.035 A 
ATOM     17  C   UNL     1       9.127  -1.504  22.243  0.00  0.00    +0.023 A 
ATOM     18  C   UNL     1       8.318  -2.642  22.315  0.00  0.00    +0.004 A 
ATOM     19  C   UNL     1       7.584  -2.913  23.470  0.00  0.00    +0.023 A 
BRANCH  14  22
ATOM     20  C   UNL     1       5.252  -2.443  27.437  0.00  0.00    +0.109 C 
ATOM     21  C   UNL     1       5.624  -2.066  26.026  0.00  0.00    +0.214 C 
ATOM     22  N   UNL     1       6.971  -2.247  25.774  0.00  0.00    -0.286 N 
ATOM     23  H   UNL     1       7.509  -2.732  26.485  0.00  0.00    +0.155 HD
ATOM     24  O   UNL     1       4.770  -1.684  25.234  0.00  0.00    -0.276 OA
ENDBRANCH  14  22
ENDBRANCH   1  16
BRANCH   6  25
ATOM     25  C   UNL     1       6.517   3.144  25.914  0.00  0.00    +0.034 A 
ATOM     26  C   UNL     1       5.378   2.553  25.356  0.00  0.00    +0.023 A 
ATOM     27  C   UNL     1       4.571   1.701  26.116  0.00  0.00    +0.002 A 
ATOM     28  C   UNL     1       4.886   1.439  27.447  0.00  0.00    +0.000 A 
ATOM     29  C   UNL     1       6.009   2.026  28.020  0.00  0.00    +0.002 A 
ATOM     30  C   UNL     1       6.820   2.864  27.253  0.00  0.00    +0.023 A 
ENDBRANCH   6  25
BRANCH  10  31
ATOM     31  C   UNL     1      12.848   5.193  23.169  0.00  0.00    +0.104 C 
ATOM     32  N   UNL     1      13.943   5.234  22.787  0.00  0.00    -0.191 NA
ENDBRANCH  10  31
TORSDOF 4
ENDMDL
