MODEL 1
REMARK VINA RESULT:      -3.1      0.000      0.000
REMARK  Name = 
REMARK  4 active torsions:
REMARK  status: ('A' for Active; 'I' for Inactive)
REMARK    1  A    between atoms: O_1  and  C_2
REMARK    2  A    between atoms: C_2  and  C_3
REMARK    3  A    between atoms: C_3  and  C_4
REMARK    4  A    between atoms: C_4  and  O_5
REMARK                            x       y       z     vdW  Elec       q    Type
REMARK                         _______ _______ _______ _____ _____    ______ ____
ROOT
ATOM      1  C   UNL     1      12.315   6.039  24.203  0.00  0.00    +0.055 C 
ENDROOT
BRANCH   1   2
ATOM      2  C   UNL     1      10.800   6.153  24.187  0.00  0.00    +0.158 C 
BRANCH   2   3
ATOM      3  O   UNL     1      10.313   5.888  22.880  0.00  0.00    -0.395 OA
ATOM      4  H   UNL     1      10.171   4.927  22.815  0.00  0.00    +0.209 HD
ENDBRANCH   2   3
ENDBRANCH   1   2
BRANCH   1   5
ATOM      5  C   UNL     1      12.838   5.173  23.065  0.00  0.00    +0.158 C 
BRANCH   5   6
ATOM      6  O   UNL     1      14.256   5.075  23.155  0.00  0.00    -0.395 OA
ATOM      7  H   UNL     1      14.453   4.246  23.623  0.00  0.00    +0.209 HD
ENDBRANCH   5   6
ENDBRANCH   1   5
TORSDOF 4
ENDMDL
MODEL 2
REMARK VINA RESULT:      -3.0      0.287      3.099
REMARK  Name = 
REMARK  4 active torsions:
REMARK  status: ('A' for Active; 'I' for Inactive)
REMARK    1  A    between atoms: O_1  and  C_2
REMARK    2  A    between atoms: C_2  and  C_3
REMARK    3  A    between atoms: C_3  and  C_4
REMARK    4  A    between atoms: C_4  and  O_5
REMARK                            x       y       z     vdW  Elec       q    Type
REMARK                         _______ _______ _______ _____ _____    ______ ____
ROOT
ATOM      1  C   UNL     1      12.204   6.007  23.987  0.00  0.00    +0.055 C 
ENDROOT
BRANCH   1   2
ATOM      2  C   UNL     1      12.880   5.162  22.921  0.00  0.00    +0.158 C 
BRANCH   2   3
ATOM      3  O   UNL     1      14.273   5.078  23.187  0.00  0.00    -0.395 OA
ATOM      4  H   UNL     1      14.665   5.931  22.933  0.00  0.00    +0.209 HD
ENDBRANCH   2   3
ENDBRANCH   1   2
BRANCH   1   5
ATOM      5  C   UNL     1      10.719   5.693  24.113  0.00  0.00    +0.158 C 
BRANCH   5   6
ATOM      6  O   UNL     1      10.050   6.075  22.916  0.00  0.00    -0.395 OA
ATOM      7  H   UNL     1       9.413   6.769  23.155  0.00  0.00    +0.209 HD
ENDBRANCH   5   6
ENDBRANCH   1   5
TORSDOF 4
ENDMDL
MODEL 3
REMARK VINA RESULT:      -2.9     11.545     11.833
REMARK  Name = 
REMARK  4 active torsions:
REMARK  status: ('A' for Active; 'I' for Inactive)
REMARK    1  A    between atoms: O_1  and  C_2
REMARK    2  A    between atoms: C_2  and  C_3
REMARK    3  A    between atoms: C_3  and  C_4
REMARK    4  A    between atoms: C_4  and  O_5
REMARK                            x       y       z     vdW  Elec       q    Type
REMARK                         _______ _______ _______ _____ _____    ______ ____
ROOT
ATOM      1  C   UNL     1       8.821  -4.032  26.407  0.00  0.00    +0.055 C 
ENDROOT
BRANCH   1   2
ATOM      2  C   UNL     1       9.430  -4.578  25.126  0.00  0.00    +0.158 C 
BRANCH   2   3
ATOM      3  O   UNL     1      10.204  -5.732  25.417  0.00  0.00    -0.395 OA
ATOM      4  H   UNL     1      10.812  -5.865  24.669  0.00  0.00    +0.209 HD
ENDBRANCH   2   3
ENDBRANCH   1   2
BRANCH   1   5
ATOM      5  C   UNL     1       7.568  -4.794  26.817  0.00  0.00    +0.158 C 
BRANCH   5   6
ATOM      6  O   UNL     1       7.939  -5.976  27.518  0.00  0.00    -0.395 OA
ATOM      7  H   UNL     1       8.812  -5.810  27.913  0.00  0.00    +0.209 HD
ENDBRANCH   5   6
ENDBRANCH   1   5
TORSDOF 4
ENDMDL
MODEL 4
REMARK VINA RESULT:      -2.9      6.033      6.503
REMARK  Name = 
REMARK  4 active torsions:
REMARK  status: ('A' for Active; 'I' for Inactive)
REMARK    1  A    between atoms: O_1  and  C_2
REMARK    2  A    between atoms: C_2  and  C_3
REMARK    3  A    between atoms: C_3  and  C_4
REMARK    4  A    between atoms: C_4  and  O_5
REMARK                            x       y       z     vdW  Elec       q    Type
REMARK                         _______ _______ _______ _____ _____    ______ ____
ROOT
ATOM      1  C   UNL     1      10.267   0.250  22.940  0.00  0.00    +0.055 C 
ENDROOT
BRANCH   1   2
ATOM      2  C   UNL     1      10.244  -1.260  22.770  0.00  0.00    +0.158 C 
BRANCH   2   3
ATOM      3  O   UNL     1      10.147  -1.587  21.391  0.00  0.00    -0.395 OA
ATOM      4  H   UNL     1      10.087  -2.556  21.330  0.00  0.00    +0.209 HD
ENDBRANCH   2   3
ENDBRANCH   1   2
BRANCH   1   5
ATOM      5  C   UNL     1       9.595   0.969  21.778  0.00  0.00    +0.158 C 
BRANCH   5   6
ATOM      6  O   UNL     1      10.202   2.243  21.592  0.00  0.00    -0.395 OA
ATOM      7  H   UNL     1       9.617   2.753  21.007  0.00  0.00    +0.209 HD
ENDBRANCH   5   6
ENDBRANCH   1   5
TORSDOF 4
ENDMDL
MODEL 5
REMARK VINA RESULT:      -2.9      6.032      6.338
REMARK  Name = 
REMARK  4 active torsions:
REMARK  status: ('A' for Active; 'I' for Inactive)
REMARK    1  A    between atoms: O_1  and  C_2
REMARK    2  A    between atoms: C_2  and  C_3
REMARK    3  A    between atoms: C_3  and  C_4
REMARK    4  A    between atoms: C_4  and  O_5
REMARK                            x       y       z     vdW  Elec       q    Type
REMARK                         _______ _______ _______ _____ _____    ______ ____
ROOT
ATOM      1  C   UNL     1      10.268   0.256  22.938  0.00  0.00    +0.055 C 
ENDROOT
BRANCH   1   2
ATOM      2  C   UNL     1       9.593   0.970  21.779  0.00  0.00    +0.158 C 
BRANCH   2   3
ATOM      3  O   UNL     1      10.192   2.244  21.585  0.00  0.00    -0.395 OA
ATOM      4  H   UNL     1      10.861   2.355  22.283  0.00  0.00    +0.209 HD
ENDBRANCH   2   3
ENDBRANCH   1   2
BRANCH   1   5
ATOM      5  C   UNL     1      10.238  -1.258  22.775  0.00  0.00    +0.158 C 
BRANCH   5   6
ATOM      6  O   UNL     1      10.150  -1.585  21.392  0.00  0.00    -0.395 OA
ATOM      7  H   UNL     1      10.676  -2.391  21.257  0.00  0.00    +0.209 HD
ENDBRANCH   5   6
ENDBRANCH   1   5
TORSDOF 4
ENDMDL
MODEL 6
REMARK VINA RESULT:      -2.8     11.734     11.790
REMARK  Name = 
REMARK  4 active torsions:
REMARK  status: ('A' for Active; 'I' for Inactive)
REMARK    1  A    between atoms: O_1  and  C_2
REMARK    2  A    between atoms: C_2  and  C_3
REMARK    3  A    between atoms: C_3  and  C_4
REMARK    4  A    between atoms: C_4  and  O_5
REMARK                            x       y       z     vdW  Elec       q    Type
REMARK                         _______ _______ _______ _____ _____    ______ ____
ROOT
ATOM      1  C   UNL     1       8.583  -4.157  26.471  0.00  0.00    +0.055 C 
ENDROOT
BRANCH   1   2
ATOM      2  C   UNL     1       7.401  -5.073  26.740  0.00  0.00    +0.158 C 
BRANCH   2   3
ATOM      3  O   UNL     1       7.761  -6.054  27.702  0.00  0.00    -0.395 OA
ATOM      4  H   UNL     1       8.121  -5.581  28.472  0.00  0.00    +0.209 HD
ENDBRANCH   2   3
ENDBRANCH   1   2
BRANCH   1   5
ATOM      5  C   UNL     1       9.430  -4.641  25.302  0.00  0.00    +0.158 C 
BRANCH   5   6
ATOM      6  O   UNL     1      10.109  -5.837  25.669  0.00  0.00    -0.395 OA
ATOM      7  H   UNL     1       9.445  -6.432  26.057  0.00  0.00    +0.209 HD
ENDBRANCH   5   6
ENDBRANCH   1   5
TORSDOF 4
ENDMDL
MODEL 7
REMARK VINA RESULT:      -2.7      3.913      4.420
REMARK  Name = 
REMARK  4 active torsions:
REMARK  status: ('A' for Active; 'I' for Inactive)
REMARK    1  A    between atoms: O_1  and  C_2
REMARK    2  A    between atoms: C_2  and  C_3
REMARK    3  A    between atoms: C_3  and  C_4
REMARK    4  A    between atoms: C_4  and  O_5
REMARK                            x       y       z     vdW  Elec       q    Type
REMARK                         _______ _______ _______ _____ _____    ______ ____
ROOT
ATOM      1  C   UNL     1      10.389   1.671  23.568  0.00  0.00    +0.055 C 
ENDROOT
BRANCH   1   2
ATOM      2  C   UNL     1      10.191   3.178  23.580  0.00  0.00    +0.158 C 
BRANCH   2   3
ATOM      3  O   UNL     1      11.298   3.813  22.955  0.00  0.00    -0.395 OA
ATOM      4  H   UNL     1      11.053   4.744  22.817  0.00  0.00    +0.209 HD
ENDBRANCH   2   3
ENDBRANCH   1   2
BRANCH   1   5
ATOM      5  C   UNL     1       9.995   1.051  22.235  0.00  0.00    +0.158 C 
BRANCH   5   6
ATOM      6  O   UNL     1       9.617   2.079  21.326  0.00  0.00    -0.395 OA
ATOM      7  H   UNL     1       9.619   1.686  20.436  0.00  0.00    +0.209 HD
ENDBRANCH   5   6
ENDBRANCH   1   5
TORSDOF 4
ENDMDL
MODEL 8
REMARK VINA RESULT:      -2.7      3.880      4.278
REMARK  Name = 
REMARK  4 active torsions:
REMARK  status: ('A' for Active; 'I' for Inactive)
REMARK    1  A    between atoms: O_1  and  C_2
REMARK    2  A    between atoms: C_2  and  C_3
REMARK    3  A    between atoms: C_3  and  C_4
REMARK    4  A    between atoms: C_4  and  O_5
REMARK                            x       y       z     vdW  Elec       q    Type
REMARK                         _______ _______ _______ _____ _____    ______ ____
ROOT
ATOM      1  C   UNL     1      10.269   1.758  23.649  0.00  0.00    +0.055 C 
ENDROOT
BRANCH   1   2
ATOM      2  C   UNL     1      10.044   1.098  22.299  0.00  0.00    +0.158 C 
BRANCH   2   3
ATOM      3  O   UNL     1       9.644   2.074  21.347  0.00  0.00    -0.395 OA
ATOM      4  H   UNL     1       9.255   1.597  20.594  0.00  0.00    +0.209 HD
ENDBRANCH   2   3
ENDBRANCH   1   2
BRANCH   1   5
ATOM      5  C   UNL     1      10.123   3.272  23.579  0.00  0.00    +0.158 C 
BRANCH   5   6
ATOM      6  O   UNL     1      11.287   3.835  22.984  0.00  0.00    -0.395 OA
ATOM      7  H   UNL     1      11.623   4.508  23.599  0.00  0.00    +0.209 HD
ENDBRANCH   5   6
ENDBRANCH   1   5
TORSDOF 4
ENDMDL
MODEL 9
REMARK VINA RESULT:      -2.7      1.934      2.918
REMARK  Name = 
REMARK  4 active torsions:
REMARK  status: ('A' for Active; 'I' for Inactive)
REMARK    1  A    between atoms: O_1  and  C_2
REMARK    2  A    between atoms: C_2  and  C_3
REMARK    3  A    between atoms: C_3  and  C_4
REMARK    4  A    between atoms: C_4  and  O_5
REMARK                            x       y       z     vdW  Elec       q    Type
REMARK                         _______ _______ _______ _____ _____    ______ ____
ROOT
ATOM      1  C   UNL     1      12.033   5.592  24.026  0.00  0.00    +0.055 C 
ENDROOT
BRANCH   1   2
ATOM      2  C   UNL     1      12.951   5.408  22.829  0.00  0.00    +0.158 C 
BRANCH   2   3
ATOM      3  O   UNL     1      14.261   5.085  23.274  0.00  0.00    -0.395 OA
ATOM      4  H   UNL     1      14.353   4.118  23.216  0.00  0.00    +0.209 HD
ENDBRANCH   2   3
ENDBRANCH   1   2
BRANCH   1   5
ATOM      5  C   UNL     1      12.208   6.956  24.680  0.00  0.00    +0.158 C 
BRANCH   5   6
ATOM      6  O   UNL     1      12.858   6.801  25.937  0.00  0.00    -0.395 OA
ATOM      7  H   UNL     1      12.165   6.811  26.618  0.00  0.00    +0.209 HD
ENDBRANCH   5   6
ENDBRANCH   1   5
TORSDOF 4
ENDMDL
