MODEL 1
REMARK VINA RESULT:      -3.7      0.000      0.000
REMARK  Name = 
REMARK  6 active torsions:
REMARK  status: ('A' for Active; 'I' for Inactive)
REMARK    1  A    between atoms: N_1  and  C_2
REMARK    2  A    between atoms: C_2  and  C_4
REMARK    3  A    between atoms: C_2  and  C_8
REMARK    4  A    between atoms: C_4  and  S_5
REMARK    5  A    between atoms: S_5  and  SE_6
REMARK    6  A    between atoms: C_8  and  O_9
REMARK                            x       y       z     vdW  Elec       q    Type
REMARK                         _______ _______ _______ _____ _____    ______ ____
ROOT
ATOM      1  C   UNK     1       9.167  -4.632  25.659  0.00  0.00    +0.000 C 
ENDROOT
BRANCH   1   2
ATOM      2  N   UNK     1      10.219  -5.617  25.404  0.00  0.00    +0.000 NA
ATOM      3  H   UNK     1      11.131  -5.141  25.212  0.00  0.00    +0.000 HD
ATOM      4  H   UNK     1      10.339  -6.230  26.242  0.00  0.00    +0.000 HD
ENDBRANCH   1   2
BRANCH   1   5
ATOM      5  C   UNK     1       7.960  -5.325  26.250  0.00  0.00    +0.000 C 
ATOM      6  O   UNK     1       6.932  -5.415  25.591  0.00  0.00    +0.000 OA
BRANCH   5   7
ATOM      7  O   UNK     1       7.986  -5.855  27.492  0.00  0.00    +0.000 OA
ATOM      8  H   UNK     1       7.202  -5.884  28.057  0.00  0.00    +0.000 HD
ENDBRANCH   5   7
ENDBRANCH   1   5
BRANCH   1   9
ATOM      9  C   UNK     1       8.812  -3.866  24.369  0.00  0.00    +0.000 C 
BRANCH   9  10
ATOM     10  S   UNK     1       8.805  -2.065  24.671  0.00  0.00    +0.000 S 
BRANCH  10  11
ATOM     11 SE   UNK     1      10.089  -1.606  22.874  0.00  0.00    +0.000 Se
ATOM     12  H   UNK     1      11.041  -2.754  23.247  0.00  0.00    +0.000 HD
ENDBRANCH  10  11
ENDBRANCH   9  10
ENDBRANCH   1   9
TORSDOF 6
ENDMDL
MODEL 2
REMARK VINA RESULT:      -3.7      1.970      2.164
REMARK  Name = 
REMARK  6 active torsions:
REMARK  status: ('A' for Active; 'I' for Inactive)
REMARK    1  A    between atoms: N_1  and  C_2
REMARK    2  A    between atoms: C_2  and  C_4
REMARK    3  A    between atoms: C_2  and  C_8
REMARK    4  A    between atoms: C_4  and  S_5
REMARK    5  A    between atoms: S_5  and  SE_6
REMARK    6  A    between atoms: C_8  and  O_9
REMARK                            x       y       z     vdW  Elec       q    Type
REMARK                         _______ _______ _______ _____ _____    ______ ____
ROOT
ATOM      1  C   UNK     1       8.054  -4.850  26.063  0.00  0.00    +0.000 C 
ENDROOT
BRANCH   1   2
ATOM      2  N   UNK     1       8.088  -5.694  27.259  0.00  0.00    +0.000 NA
ATOM      3  H   UNK     1       7.329  -6.413  27.224  0.00  0.00    +0.000 HD
ATOM      4  H   UNK     1       9.007  -6.189  27.315  0.00  0.00    +0.000 HD
ENDBRANCH   1   2
BRANCH   1   5
ATOM      5  C   UNK     1       9.079  -5.345  25.068  0.00  0.00    +0.000 C 
ATOM      6  O   UNK     1       8.758  -5.499  23.897  0.00  0.00    +0.000 OA
BRANCH   5   7
ATOM      7  O   UNK     1      10.349  -5.618  25.437  0.00  0.00    +0.000 OA
ATOM      8  H   UNK     1      10.923  -6.198  24.918  0.00  0.00    +0.000 HD
ENDBRANCH   5   7
ENDBRANCH   1   5
BRANCH   1   9
ATOM      9  C   UNK     1       8.281  -3.371  26.432  0.00  0.00    +0.000 C 
BRANCH   9  10
ATOM     10  S   UNK     1       7.470  -2.273  25.218  0.00  0.00    +0.000 S 
BRANCH  10  11
ATOM     11 SE   UNK     1       9.415  -1.640  24.266  0.00  0.00    +0.000 Se
ATOM     12  H   UNK     1       8.648  -0.808  23.226  0.00  0.00    +0.000 HD
ENDBRANCH  10  11
ENDBRANCH   9  10
ENDBRANCH   1   9
TORSDOF 6
ENDMDL
MODEL 3
REMARK VINA RESULT:      -3.6      2.201      2.324
REMARK  Name = 
REMARK  6 active torsions:
REMARK  status: ('A' for Active; 'I' for Inactive)
REMARK    1  A    between atoms: N_1  and  C_2
REMARK    2  A    between atoms: C_2  and  C_4
REMARK    3  A    between atoms: C_2  and  C_8
REMARK    4  A    between atoms: C_4  and  S_5
REMARK    5  A    between atoms: S_5  and  SE_6
REMARK    6  A    between atoms: C_8  and  O_9
REMARK                            x       y       z     vdW  Elec       q    Type
REMARK                         _______ _______ _______ _____ _____    ______ ____
ROOT
ATOM      1  C   UNK     1       8.996  -4.760  25.257  0.00  0.00    +0.000 C 
ENDROOT
BRANCH   1   2
ATOM      2  N   UNK     1      10.215  -5.567  25.340  0.00  0.00    +0.000 NA
ATOM      3  H   UNK     1      11.037  -5.031  24.977  0.00  0.00    +0.000 HD
ATOM      4  H   UNK     1      10.402  -5.821  26.336  0.00  0.00    +0.000 HD
ENDBRANCH   1   2
BRANCH   1   5
ATOM      5  C   UNK     1       8.259  -4.823  26.576  0.00  0.00    +0.000 C 
ATOM      6  O   UNK     1       7.833  -3.791  27.079  0.00  0.00    +0.000 OA
BRANCH   5   7
ATOM      7  O   UNK     1       8.053  -5.994  27.216  0.00  0.00    +0.000 OA
ATOM      8  H   UNK     1       7.191  -6.432  27.223  0.00  0.00    +0.000 HD
ENDBRANCH   5   7
ENDBRANCH   1   5
BRANCH   1   9
ATOM      9  C   UNK     1       8.111  -5.226  24.084  0.00  0.00    +0.000 C 
BRANCH   9  10
ATOM     10  S   UNK     1       7.667  -3.815  23.013  0.00  0.00    +0.000 S 
BRANCH  10  11
ATOM     11 SE   UNK     1       6.372  -5.062  21.651  0.00  0.00    +0.000 Se
ATOM     12  H   UNK     1       7.559  -5.994  21.358  0.00  0.00    +0.000 HD
ENDBRANCH  10  11
ENDBRANCH   9  10
ENDBRANCH   1   9
TORSDOF 6
ENDMDL
MODEL 4
REMARK VINA RESULT:      -3.5      5.444      6.187
REMARK  Name = 
REMARK  6 active torsions:
REMARK  status: ('A' for Active; 'I' for Inactive)
REMARK    1  A    between atoms: N_1  and  C_2
REMARK    2  A    between atoms: C_2  and  C_4
REMARK    3  A    between atoms: C_2  and  C_8
REMARK    4  A    between atoms: C_4  and  S_5
REMARK    5  A    between atoms: S_5  and  SE_6
REMARK    6  A    between atoms: C_8  and  O_9
REMARK                            x       y       z     vdW  Elec       q    Type
REMARK                         _______ _______ _______ _____ _____    ______ ____
ROOT
ATOM      1  C   UNK     1       9.184  -0.436  21.901  0.00  0.00    +0.000 C 
ENDROOT
BRANCH   1   2
ATOM      2  N   UNK     1      10.187  -1.418  21.488  0.00  0.00    +0.000 NA
ATOM      3  H   UNK     1      11.147  -1.006  21.534  0.00  0.00    +0.000 HD
ATOM      4  H   UNK     1      10.153  -2.245  22.126  0.00  0.00    +0.000 HD
ENDBRANCH   1   2
BRANCH   1   5
ATOM      5  C   UNK     1       9.864   0.877  22.216  0.00  0.00    +0.000 C 
ATOM      6  O   UNK     1      10.509   0.990  23.250  0.00  0.00    +0.000 OA
BRANCH   5   7
ATOM      7  O   UNK     1       9.783   1.935  21.380  0.00  0.00    +0.000 OA
ATOM      8  H   UNK     1      10.231   2.772  21.563  0.00  0.00    +0.000 HD
ENDBRANCH   5   7
ENDBRANCH   1   5
BRANCH   1   9
ATOM      9  C   UNK     1       8.366  -0.959  23.098  0.00  0.00    +0.000 C 
BRANCH   9  10
ATOM     10  S   UNK     1       9.149  -2.448  23.810  0.00  0.00    +0.000 S 
BRANCH  10  11
ATOM     11 SE   UNK     1       7.572  -3.846  23.003  0.00  0.00    +0.000 Se
ATOM     12  H   UNK     1       8.663  -4.822  22.534  0.00  0.00    +0.000 HD
ENDBRANCH  10  11
ENDBRANCH   9  10
ENDBRANCH   1   9
TORSDOF 6
ENDMDL
MODEL 5
REMARK VINA RESULT:      -3.5      5.745      6.183
REMARK  Name = 
REMARK  6 active torsions:
REMARK  status: ('A' for Active; 'I' for Inactive)
REMARK    1  A    between atoms: N_1  and  C_2
REMARK    2  A    between atoms: C_2  and  C_4
REMARK    3  A    between atoms: C_2  and  C_8
REMARK    4  A    between atoms: C_4  and  S_5
REMARK    5  A    between atoms: S_5  and  SE_6
REMARK    6  A    between atoms: C_8  and  O_9
REMARK                            x       y       z     vdW  Elec       q    Type
REMARK                         _______ _______ _______ _____ _____    ______ ____
ROOT
ATOM      1  C   UNK     1       9.855   0.926  22.161  0.00  0.00    +0.000 C 
ENDROOT
BRANCH   1   2
ATOM      2  N   UNK     1       9.131   1.803  21.240  0.00  0.00    +0.000 NA
ATOM      3  H   UNK     1       8.120   1.538  21.196  0.00  0.00    +0.000 HD
ATOM      4  H   UNK     1       9.198   2.792  21.569  0.00  0.00    +0.000 HD
ENDBRANCH   1   2
BRANCH   1   5
ATOM      5  C   UNK     1       9.408  -0.504  21.953  0.00  0.00    +0.000 C 
ATOM      6  O   UNK     1       8.268  -0.830  22.258  0.00  0.00    +0.000 OA
BRANCH   5   7
ATOM      7  O   UNK     1      10.235  -1.435  21.433  0.00  0.00    +0.000 OA
ATOM      8  H   UNK     1      10.003  -1.950  20.649  0.00  0.00    +0.000 HD
ENDBRANCH   5   7
ENDBRANCH   1   5
BRANCH   1   9
ATOM      9  C   UNK     1       9.654   1.382  23.620  0.00  0.00    +0.000 C 
BRANCH   9  10
ATOM     10  S   UNK     1      10.710   0.410  24.750  0.00  0.00    +0.000 S 
BRANCH  10  11
ATOM     11 SE   UNK     1       8.961  -0.529  25.821  0.00  0.00    +0.000 Se
ATOM     12  H   UNK     1       8.482  -1.163  24.505  0.00  0.00    +0.000 HD
ENDBRANCH  10  11
ENDBRANCH   9  10
ENDBRANCH   1   9
TORSDOF 6
ENDMDL
MODEL 6
REMARK VINA RESULT:      -3.5      5.741      6.386
REMARK  Name = 
REMARK  6 active torsions:
REMARK  status: ('A' for Active; 'I' for Inactive)
REMARK    1  A    between atoms: N_1  and  C_2
REMARK    2  A    between atoms: C_2  and  C_4
REMARK    3  A    between atoms: C_2  and  C_8
REMARK    4  A    between atoms: C_4  and  S_5
REMARK    5  A    between atoms: S_5  and  SE_6
REMARK    6  A    between atoms: C_8  and  O_9
REMARK                            x       y       z     vdW  Elec       q    Type
REMARK                         _______ _______ _______ _____ _____    ______ ____
ROOT
ATOM      1  C   UNK     1      10.391   0.337  23.254  0.00  0.00    +0.000 C 
ENDROOT
BRANCH   1   2
ATOM      2  N   UNK     1      10.840   1.386  24.171  0.00  0.00    +0.000 NA
ATOM      3  H   UNK     1      10.924   1.012  25.145  0.00  0.00    +0.000 HD
ATOM      4  H   UNK     1      11.777   1.738  23.871  0.00  0.00    +0.000 HD
ENDBRANCH   1   2
BRANCH   1   5
ATOM      5  C   UNK     1       9.906   0.965  21.967  0.00  0.00    +0.000 C 
ATOM      6  O   UNK     1       9.227   0.305  21.191  0.00  0.00    +0.000 OA
BRANCH   5   7
ATOM      7  O   UNK     1      10.199   2.245  21.650  0.00  0.00    +0.000 OA
ATOM      8  H   UNK     1       9.516   2.887  21.415  0.00  0.00    +0.000 HD
ENDBRANCH   5   7
ENDBRANCH   1   5
BRANCH   1   9
ATOM      9  C   UNK     1       9.302  -0.534  23.911  0.00  0.00    +0.000 C 
BRANCH   9  10
ATOM     10  S   UNK     1       9.719  -2.306  23.765  0.00  0.00    +0.000 S 
BRANCH  10  11
ATOM     11 SE   UNK     1       7.870  -2.798  22.570  0.00  0.00    +0.000 Se
ATOM     12  H   UNK     1       8.095  -4.298  22.818  0.00  0.00    +0.000 HD
ENDBRANCH  10  11
ENDBRANCH   9  10
ENDBRANCH   1   9
TORSDOF 6
ENDMDL
MODEL 7
REMARK VINA RESULT:      -3.5      2.810      3.041
REMARK  Name = 
REMARK  6 active torsions:
REMARK  status: ('A' for Active; 'I' for Inactive)
REMARK    1  A    between atoms: N_1  and  C_2
REMARK    2  A    between atoms: C_2  and  C_4
REMARK    3  A    between atoms: C_2  and  C_8
REMARK    4  A    between atoms: C_4  and  S_5
REMARK    5  A    between atoms: S_5  and  SE_6
REMARK    6  A    between atoms: C_8  and  O_9
REMARK                            x       y       z     vdW  Elec       q    Type
REMARK                         _______ _______ _______ _____ _____    ______ ____
ROOT
ATOM      1  C   UNK     1       8.054  -5.340  25.666  0.00  0.00    +0.000 C 
ENDROOT
BRANCH   1   2
ATOM      2  N   UNK     1       8.133  -5.551  27.112  0.00  0.00    +0.000 NA
ATOM      3  H   UNK     1       8.262  -6.566  27.330  0.00  0.00    +0.000 HD
ATOM      4  H   UNK     1       8.949  -5.026  27.501  0.00  0.00    +0.000 HD
ENDBRANCH   1   2
BRANCH   1   5
ATOM      5  C   UNK     1       9.409  -4.919  25.143  0.00  0.00    +0.000 C 
ATOM      6  O   UNK     1       9.490  -3.973  24.371  0.00  0.00    +0.000 OA
BRANCH   5   7
ATOM      7  O   UNK     1      10.540  -5.560  25.510  0.00  0.00    +0.000 OA
ATOM      8  H   UNK     1      10.715  -5.811  26.427  0.00  0.00    +0.000 HD
ENDBRANCH   5   7
ENDBRANCH   1   5
BRANCH   1   9
ATOM      9  C   UNK     1       6.962  -4.307  25.324  0.00  0.00    +0.000 C 
BRANCH   9  10
ATOM     10  S   UNK     1       5.754  -5.013  24.150  0.00  0.00    +0.000 S 
BRANCH  10  11
ATOM     11 SE   UNK     1       6.412  -3.691  22.444  0.00  0.00    +0.000 Se
ATOM     12  H   UNK     1       5.270  -4.231  21.570  0.00  0.00    +0.000 HD
ENDBRANCH  10  11
ENDBRANCH   9  10
ENDBRANCH   1   9
TORSDOF 6
ENDMDL
MODEL 8
REMARK VINA RESULT:      -3.4      3.960      4.456
REMARK  Name = 
REMARK  6 active torsions:
REMARK  status: ('A' for Active; 'I' for Inactive)
REMARK    1  A    between atoms: N_1  and  C_2
REMARK    2  A    between atoms: C_2  and  C_4
REMARK    3  A    between atoms: C_2  and  C_8
REMARK    4  A    between atoms: C_4  and  S_5
REMARK    5  A    between atoms: S_5  and  SE_6
REMARK    6  A    between atoms: C_8  and  O_9
REMARK                            x       y       z     vdW  Elec       q    Type
REMARK                         _______ _______ _______ _____ _____    ______ ____
ROOT
ATOM      1  C   UNK     1      10.394  -1.389  22.856  0.00  0.00    +0.000 C 
ENDROOT
BRANCH   1   2
ATOM      2  N   UNK     1      10.028  -1.484  21.442  0.00  0.00    +0.000 NA
ATOM      3  H   UNK     1       9.569  -0.601  21.119  0.00  0.00    +0.000 HD
ATOM      4  H   UNK     1      10.886  -1.637  20.865  0.00  0.00    +0.000 HD
ENDBRANCH   1   2
BRANCH   1   5
ATOM      5  C   UNK     1       9.567  -2.369  23.657  0.00  0.00    +0.000 C 
ATOM      6  O   UNK     1       8.383  -2.134  23.862  0.00  0.00    +0.000 OA
BRANCH   5   7
ATOM      7  O   UNK     1      10.101  -3.506  24.153  0.00  0.00    +0.000 OA
ATOM      8  H   UNK     1       9.697  -3.987  24.888  0.00  0.00    +0.000 HD
ENDBRANCH   5   7
ENDBRANCH   1   5
BRANCH   1   9
ATOM      9  C   UNK     1      10.225   0.055  23.368  0.00  0.00    +0.000 C 
BRANCH   9  10
ATOM     10  S   UNK     1       9.754   1.172  22.001  0.00  0.00    +0.000 S 
BRANCH  10  11
ATOM     11 SE   UNK     1       7.569   1.180  22.561  0.00  0.00    +0.000 Se
ATOM     12  H   UNK     1       7.196   0.672  21.159  0.00  0.00    +0.000 HD
ENDBRANCH  10  11
ENDBRANCH   9  10
ENDBRANCH   1   9
TORSDOF 6
ENDMDL
MODEL 9
REMARK VINA RESULT:      -3.4      6.149      6.696
REMARK  Name = 
REMARK  6 active torsions:
REMARK  status: ('A' for Active; 'I' for Inactive)
REMARK    1  A    between atoms: N_1  and  C_2
REMARK    2  A    between atoms: C_2  and  C_4
REMARK    3  A    between atoms: C_2  and  C_8
REMARK    4  A    between atoms: C_4  and  S_5
REMARK    5  A    between atoms: S_5  and  SE_6
REMARK    6  A    between atoms: C_8  and  O_9
REMARK                            x       y       z     vdW  Elec       q    Type
REMARK                         _______ _______ _______ _____ _____    ______ ____
ROOT
ATOM      1  C   UNK     1       9.031   1.722  22.782  0.00  0.00    +0.000 C 
ENDROOT
BRANCH   1   2
ATOM      2  N   UNK     1       9.694   2.016  21.511  0.00  0.00    +0.000 NA
ATOM      3  H   UNK     1       9.084   1.744  20.705  0.00  0.00    +0.000 HD
ATOM      4  H   UNK     1       9.890   3.040  21.444  0.00  0.00    +0.000 HD
ENDBRANCH   1   2
BRANCH   1   5
ATOM      5  C   UNK     1      10.021   1.876  23.915  0.00  0.00    +0.000 C 
ATOM      6  O   UNK     1      10.991   2.609  23.773  0.00  0.00    +0.000 OA
BRANCH   5   7
ATOM      7  O   UNK     1       9.861   1.227  25.088  0.00  0.00    +0.000 OA
ATOM      8  H   UNK     1       8.989   1.070  25.475  0.00  0.00    +0.000 HD
ENDBRANCH   5   7
ENDBRANCH   1   5
BRANCH   1   9
ATOM      9  C   UNK     1       8.403   0.314  22.759  0.00  0.00    +0.000 C 
BRANCH   9  10
ATOM     10  S   UNK     1       9.466  -0.849  21.835  0.00  0.00    +0.000 S 
BRANCH  10  11
ATOM     11 SE   UNK     1       9.791  -2.199  23.613  0.00  0.00    +0.000 Se
ATOM     12  H   UNK     1       8.289  -2.520  23.658  0.00  0.00    +0.000 HD
ENDBRANCH  10  11
ENDBRANCH   9  10
ENDBRANCH   1   9
TORSDOF 6
ENDMDL
