MODEL 1
REMARK VINA RESULT:      -7.0      0.000      0.000
REMARK  Name = 
REMARK  2 active torsions:
REMARK  status: ('A' for Active; 'I' for Inactive)
REMARK    1  A    between atoms: C_9  and  C_10
REMARK    2  A    between atoms: C_10  and  C_11
REMARK                            x       y       z     vdW  Elec       q    Type
REMARK                         _______ _______ _______ _____ _____    ______ ____
ROOT
ATOM      1  N   UNL     1      10.223  -5.578  25.676  0.00  0.00    -0.329 N 
ATOM      2  H   UNL     1      10.863  -5.799  24.922  0.00  0.00    +0.145 HD
ATOM      3  H   UNL     1       9.929  -6.430  26.147  0.00  0.00    +0.145 HD
ATOM      4  C   UNL     1       9.134  -4.868  25.277  0.00  0.00    +0.194 A 
ATOM      5  N   UNL     1       9.459  -3.848  24.421  0.00  0.00    -0.326 N 
ATOM      6  H   UNL     1      10.430  -3.625  24.259  0.00  0.00    +0.169 HD
ATOM      7  C   UNL     1       8.426  -3.181  23.890  0.00  0.00    +0.076 A 
ATOM      8  C   UNL     1       8.359  -2.205  22.865  0.00  0.00    -0.002 A 
ATOM      9  C   UNL     1       7.007  -1.898  22.750  0.00  0.00    +0.089 A 
ATOM     10  N   UNL     1       6.293  -2.684  23.625  0.00  0.00    -0.355 N 
ATOM     11  H   UNL     1       5.290  -2.693  23.750  0.00  0.00    +0.166 HD
ATOM     12  C   UNL     1       7.160  -3.496  24.297  0.00  0.00    +0.130 A 
ATOM     13  C   UNL     1       6.850  -4.517  25.260  0.00  0.00    +0.299 A 
ATOM     14  O   UNL     1       5.705  -4.753  25.626  0.00  0.00    -0.263 OA
ATOM     15  N   UNL     1       7.958  -5.221  25.700  0.00  0.00    -0.176 NA
ENDROOT
BRANCH   8  16
ATOM     16  C   UNL     1       9.456  -1.608  22.040  0.00  0.00    +0.075 C 
BRANCH  16  17
ATOM     17  C   UNL     1       9.858  -0.265  22.605  0.00  0.00    -0.025 A 
ATOM     18  C   UNL     1       9.737   0.875  21.797  0.00  0.00    +0.007 A 
ATOM     19  C   UNL     1      10.064   2.132  22.300  0.00  0.00    +0.020 A 
ATOM     20  C   UNL     1      10.520   2.218  23.602  0.00  0.00    +0.111 A 
ATOM     21  N   UNL     1      10.711   1.146  24.395  0.00  0.00    -0.263 NA
ATOM     22  C   UNL     1      10.404  -0.065  23.873  0.00  0.00    +0.114 A 
ENDBRANCH  16  17
ENDBRANCH   8  16
TORSDOF 2
ENDMDL
MODEL 2
REMARK VINA RESULT:      -6.6      3.268      6.402
REMARK  Name = 
REMARK  2 active torsions:
REMARK  status: ('A' for Active; 'I' for Inactive)
REMARK    1  A    between atoms: C_9  and  C_10
REMARK    2  A    between atoms: C_10  and  C_11
REMARK                            x       y       z     vdW  Elec       q    Type
REMARK                         _______ _______ _______ _____ _____    ______ ____
ROOT
ATOM      1  N   UNL     1       5.740   1.848  22.621  0.00  0.00    -0.329 N 
ATOM      2  H   UNL     1       5.010   1.211  22.327  0.00  0.00    +0.145 HD
ATOM      3  H   UNL     1       5.771   2.656  22.004  0.00  0.00    +0.145 HD
ATOM      4  C   UNL     1       6.970   1.272  22.693  0.00  0.00    +0.194 A 
ATOM      5  N   UNL     1       6.938   0.044  23.300  0.00  0.00    -0.326 N 
ATOM      6  H   UNL     1       6.086  -0.271  23.741  0.00  0.00    +0.169 HD
ATOM      7  C   UNL     1       8.091  -0.638  23.299  0.00  0.00    +0.076 A 
ATOM      8  C   UNL     1       8.401  -1.971  23.668  0.00  0.00    -0.002 A 
ATOM      9  C   UNL     1       9.766  -2.099  23.433  0.00  0.00    +0.089 A 
ATOM     10  N   UNL     1      10.243  -0.923  22.903  0.00  0.00    -0.355 N 
ATOM     11  H   UNL     1      11.193  -0.729  22.617  0.00  0.00    +0.166 HD
ATOM     12  C   UNL     1       9.208  -0.040  22.786  0.00  0.00    +0.130 A 
ATOM     13  C   UNL     1       9.234   1.284  22.229  0.00  0.00    +0.299 A 
ATOM     14  O   UNL     1      10.260   1.802  21.807  0.00  0.00    -0.263 OA
ATOM     15  N   UNL     1       7.991   1.893  22.185  0.00  0.00    -0.176 NA
ENDROOT
BRANCH   8  16
ATOM     16  C   UNL     1       7.505  -3.052  24.186  0.00  0.00    +0.075 C 
BRANCH  16  17
ATOM     17  C   UNL     1       7.057  -3.943  23.050  0.00  0.00    -0.025 A 
ATOM     18  C   UNL     1       7.570  -5.246  22.968  0.00  0.00    +0.007 A 
ATOM     19  C   UNL     1       7.150  -6.105  21.956  0.00  0.00    +0.020 A 
ATOM     20  C   UNL     1       6.232  -5.633  21.035  0.00  0.00    +0.111 A 
ATOM     21  N   UNL     1       5.760  -4.372  21.037  0.00  0.00    -0.263 NA
ATOM     22  C   UNL     1       6.201  -3.552  22.021  0.00  0.00    +0.114 A 
ENDBRANCH  16  17
ENDBRANCH   8  16
TORSDOF 2
ENDMDL
MODEL 3
REMARK VINA RESULT:      -6.4      1.807      2.173
REMARK  Name = 
REMARK  2 active torsions:
REMARK  status: ('A' for Active; 'I' for Inactive)
REMARK    1  A    between atoms: C_9  and  C_10
REMARK    2  A    between atoms: C_10  and  C_11
REMARK                            x       y       z     vdW  Elec       q    Type
REMARK                         _______ _______ _______ _____ _____    ______ ____
ROOT
ATOM      1  N   UNL     1       9.697  -5.686  25.524  0.00  0.00    -0.329 N 
ATOM      2  H   UNL     1      10.681  -5.488  25.659  0.00  0.00    +0.145 HD
ATOM      3  H   UNL     1       9.574  -6.636  25.183  0.00  0.00    +0.145 HD
ATOM      4  C   UNL     1       9.072  -4.810  24.692  0.00  0.00    +0.194 A 
ATOM      5  N   UNL     1       9.412  -3.507  24.953  0.00  0.00    -0.326 N 
ATOM      6  H   UNL     1       9.961  -3.292  25.773  0.00  0.00    +0.169 HD
ATOM      7  C   UNL     1       8.931  -2.597  24.097  0.00  0.00    +0.076 A 
ATOM      8  C   UNL     1       9.195  -1.212  23.944  0.00  0.00    -0.002 A 
ATOM      9  C   UNL     1       8.401  -0.813  22.874  0.00  0.00    +0.089 A 
ATOM     10  N   UNL     1       7.732  -1.908  22.377  0.00  0.00    -0.355 N 
ATOM     11  H   UNL     1       7.098  -1.924  21.591  0.00  0.00    +0.166 HD
ATOM     12  C   UNL     1       8.086  -3.007  23.105  0.00  0.00    +0.130 A 
ATOM     13  C   UNL     1       7.679  -4.370  22.902  0.00  0.00    +0.299 A 
ATOM     14  O   UNL     1       6.895  -4.700  22.021  0.00  0.00    -0.263 OA
ATOM     15  N   UNL     1       8.282  -5.266  23.768  0.00  0.00    -0.176 NA
ENDROOT
BRANCH   8  16
ATOM     16  C   UNL     1      10.121  -0.325  24.715  0.00  0.00    +0.075 C 
BRANCH  16  17
ATOM     17  C   UNL     1       9.738   1.123  24.516  0.00  0.00    -0.025 A 
ATOM     18  C   UNL     1      10.598   1.959  23.790  0.00  0.00    +0.007 A 
ATOM     19  C   UNL     1      10.257   3.289  23.558  0.00  0.00    +0.020 A 
ATOM     20  C   UNL     1       9.062   3.758  24.072  0.00  0.00    +0.111 A 
ATOM     21  N   UNL     1       8.234   3.011  24.827  0.00  0.00    -0.263 NA
ATOM     22  C   UNL     1       8.601   1.727  25.054  0.00  0.00    +0.114 A 
ENDBRANCH  16  17
ENDBRANCH   8  16
TORSDOF 2
ENDMDL
MODEL 4
REMARK VINA RESULT:      -6.3      3.002      6.084
REMARK  Name = 
REMARK  2 active torsions:
REMARK  status: ('A' for Active; 'I' for Inactive)
REMARK    1  A    between atoms: C_9  and  C_10
REMARK    2  A    between atoms: C_10  and  C_11
REMARK                            x       y       z     vdW  Elec       q    Type
REMARK                         _______ _______ _______ _____ _____    ______ ____
ROOT
ATOM      1  N   UNL     1      10.188   2.238  21.493  0.00  0.00    -0.329 N 
ATOM      2  H   UNL     1      11.035   1.732  21.266  0.00  0.00    +0.145 HD
ATOM      3  H   UNL     1      10.360   3.240  21.468  0.00  0.00    +0.145 HD
ATOM      4  C   UNL     1       9.649   1.890  22.692  0.00  0.00    +0.194 A 
ATOM      5  N   UNL     1       9.631   0.532  22.883  0.00  0.00    -0.326 N 
ATOM      6  H   UNL     1       9.879  -0.080  22.120  0.00  0.00    +0.169 HD
ATOM      7  C   UNL     1       9.227   0.119  24.092  0.00  0.00    +0.076 A 
ATOM      8  C   UNL     1       9.235  -1.160  24.704  0.00  0.00    -0.002 A 
ATOM      9  C   UNL     1       8.700  -0.953  25.971  0.00  0.00    +0.089 A 
ATOM     10  N   UNL     1       8.430   0.386  26.132  0.00  0.00    -0.355 N 
ATOM     11  H   UNL     1       8.052   0.833  26.956  0.00  0.00    +0.166 HD
ATOM     12  C   UNL     1       8.789   1.048  24.993  0.00  0.00    +0.130 A 
ATOM     13  C   UNL     1       8.740   2.461  24.738  0.00  0.00    +0.299 A 
ATOM     14  O   UNL     1       8.311   3.264  25.558  0.00  0.00    -0.263 OA
ATOM     15  N   UNL     1       9.253   2.823  23.504  0.00  0.00    -0.176 NA
ENDROOT
BRANCH   8  16
ATOM     16  C   UNL     1       9.713  -2.473  24.168  0.00  0.00    +0.075 C 
BRANCH  16  17
ATOM     17  C   UNL     1       8.552  -3.252  23.594  0.00  0.00    -0.025 A 
ATOM     18  C   UNL     1       8.199  -4.475  24.182  0.00  0.00    +0.007 A 
ATOM     19  C   UNL     1       7.112  -5.200  23.700  0.00  0.00    +0.020 A 
ATOM     20  C   UNL     1       6.408  -4.689  22.626  0.00  0.00    +0.111 A 
ATOM     21  N   UNL     1       6.747  -3.551  21.990  0.00  0.00    -0.263 NA
ATOM     22  C   UNL     1       7.820  -2.877  22.467  0.00  0.00    +0.114 A 
ENDBRANCH  16  17
ENDBRANCH   8  16
TORSDOF 2
ENDMDL
MODEL 5
REMARK VINA RESULT:      -6.2      2.092      2.190
REMARK  Name = 
REMARK  2 active torsions:
REMARK  status: ('A' for Active; 'I' for Inactive)
REMARK    1  A    between atoms: C_9  and  C_10
REMARK    2  A    between atoms: C_10  and  C_11
REMARK                            x       y       z     vdW  Elec       q    Type
REMARK                         _______ _______ _______ _____ _____    ______ ____
ROOT
ATOM      1  N   UNL     1       6.979  -6.376  21.865  0.00  0.00    -0.329 N 
ATOM      2  H   UNL     1       7.408  -6.282  20.953  0.00  0.00    +0.145 HD
ATOM      3  H   UNL     1       6.184  -7.008  21.816  0.00  0.00    +0.145 HD
ATOM      4  C   UNL     1       6.596  -5.192  22.413  0.00  0.00    +0.194 A 
ATOM      5  N   UNL     1       7.551  -4.218  22.275  0.00  0.00    -0.326 N 
ATOM      6  H   UNL     1       8.463  -4.463  21.919  0.00  0.00    +0.169 HD
ATOM      7  C   UNL     1       7.196  -2.992  22.682  0.00  0.00    +0.076 A 
ATOM      8  C   UNL     1       7.832  -1.732  22.547  0.00  0.00    -0.002 A 
ATOM      9  C   UNL     1       6.970  -0.829  23.161  0.00  0.00    +0.089 A 
ATOM     10  N   UNL     1       5.853  -1.501  23.599  0.00  0.00    -0.355 N 
ATOM     11  H   UNL     1       5.051  -1.102  24.066  0.00  0.00    +0.166 HD
ATOM     12  C   UNL     1       5.976  -2.821  23.271  0.00  0.00    +0.130 A 
ATOM     13  C   UNL     1       5.023  -3.876  23.480  0.00  0.00    +0.299 A 
ATOM     14  O   UNL     1       3.950  -3.694  24.040  0.00  0.00    -0.263 OA
ATOM     15  N   UNL     1       5.420  -5.096  22.958  0.00  0.00    -0.176 NA
ENDROOT
BRANCH   8  16
ATOM     16  C   UNL     1       9.129  -1.381  21.888  0.00  0.00    +0.075 C 
BRANCH  16  17
ATOM     17  C   UNL     1       9.733  -0.163  22.547  0.00  0.00    -0.025 A 
ATOM     18  C   UNL     1       9.716   1.059  21.860  0.00  0.00    +0.007 A 
ATOM     19  C   UNL     1      10.231   2.209  22.454  0.00  0.00    +0.020 A 
ATOM     20  C   UNL     1      10.767   2.105  23.724  0.00  0.00    +0.111 A 
ATOM     21  N   UNL     1      10.862   0.943  24.398  0.00  0.00    -0.263 NA
ATOM     22  C   UNL     1      10.372  -0.162  23.788  0.00  0.00    +0.114 A 
ENDBRANCH  16  17
ENDBRANCH   8  16
TORSDOF 2
ENDMDL
MODEL 6
REMARK VINA RESULT:      -6.2      2.048      2.816
REMARK  Name = 
REMARK  2 active torsions:
REMARK  status: ('A' for Active; 'I' for Inactive)
REMARK    1  A    between atoms: C_9  and  C_10
REMARK    2  A    between atoms: C_10  and  C_11
REMARK                            x       y       z     vdW  Elec       q    Type
REMARK                         _______ _______ _______ _____ _____    ______ ____
ROOT
ATOM      1  N   UNL     1       6.228  -5.869  20.834  0.00  0.00    -0.329 N 
ATOM      2  H   UNL     1       6.850  -5.422  20.171  0.00  0.00    +0.145 HD
ATOM      3  H   UNL     1       5.333  -6.071  20.394  0.00  0.00    +0.145 HD
ATOM      4  C   UNL     1       6.034  -5.151  21.972  0.00  0.00    +0.194 A 
ATOM      5  N   UNL     1       7.202  -4.634  22.470  0.00  0.00    -0.326 N 
ATOM      6  H   UNL     1       8.083  -4.913  22.062  0.00  0.00    +0.169 HD
ATOM      7  C   UNL     1       7.076  -3.814  23.521  0.00  0.00    +0.076 A 
ATOM      8  C   UNL     1       8.010  -2.979  24.185  0.00  0.00    -0.002 A 
ATOM      9  C   UNL     1       7.281  -2.360  25.195  0.00  0.00    +0.089 A 
ATOM     10  N   UNL     1       5.968  -2.763  25.113  0.00  0.00    -0.355 N 
ATOM     11  H   UNL     1       5.206  -2.465  25.706  0.00  0.00    +0.166 HD
ATOM     12  C   UNL     1       5.836  -3.625  24.063  0.00  0.00    +0.130 A 
ATOM     13  C   UNL     1       4.636  -4.244  23.572  0.00  0.00    +0.299 A 
ATOM     14  O   UNL     1       3.544  -4.078  24.102  0.00  0.00    -0.263 OA
ATOM     15  N   UNL     1       4.829  -5.008  22.434  0.00  0.00    -0.176 NA
ENDROOT
BRANCH   8  16
ATOM     16  C   UNL     1       9.462  -2.756  23.902  0.00  0.00    +0.075 C 
BRANCH  16  17
ATOM     17  C   UNL     1       9.664  -1.399  23.267  0.00  0.00    -0.025 A 
ATOM     18  C   UNL     1       9.231  -1.196  21.949  0.00  0.00    +0.007 A 
ATOM     19  C   UNL     1       9.369   0.053  21.348  0.00  0.00    +0.020 A 
ATOM     20  C   UNL     1       9.953   1.070  22.078  0.00  0.00    +0.111 A 
ATOM     21  N   UNL     1      10.440   0.906  23.323  0.00  0.00    -0.263 NA
ATOM     22  C   UNL     1      10.311  -0.324  23.876  0.00  0.00    +0.114 A 
ENDBRANCH  16  17
ENDBRANCH   8  16
TORSDOF 2
ENDMDL
MODEL 7
REMARK VINA RESULT:      -6.1      2.298      3.041
REMARK  Name = 
REMARK  2 active torsions:
REMARK  status: ('A' for Active; 'I' for Inactive)
REMARK    1  A    between atoms: C_9  and  C_10
REMARK    2  A    between atoms: C_10  and  C_11
REMARK                            x       y       z     vdW  Elec       q    Type
REMARK                         _______ _______ _______ _____ _____    ______ ____
ROOT
ATOM      1  N   UNL     1       9.110  -0.393  27.502  0.00  0.00    -0.329 N 
ATOM      2  H   UNL     1      10.008   0.074  27.506  0.00  0.00    +0.145 HD
ATOM      3  H   UNL     1       9.051  -1.047  28.279  0.00  0.00    +0.145 HD
ATOM      4  C   UNL     1       8.834  -1.034  26.334  0.00  0.00    +0.194 A 
ATOM      5  N   UNL     1       9.144  -0.275  25.235  0.00  0.00    -0.326 N 
ATOM      6  H   UNL     1       9.412   0.690  25.357  0.00  0.00    +0.169 HD
ATOM      7  C   UNL     1       9.013  -0.886  24.050  0.00  0.00    +0.076 A 
ATOM      8  C   UNL     1       9.389  -0.495  22.740  0.00  0.00    -0.002 A 
ATOM      9  C   UNL     1       9.004  -1.555  21.926  0.00  0.00    +0.089 A 
ATOM     10  N   UNL     1       8.470  -2.552  22.710  0.00  0.00    -0.355 N 
ATOM     11  H   UNL     1       8.121  -3.447  22.396  0.00  0.00    +0.166 HD
ATOM     12  C   UNL     1       8.510  -2.156  24.015  0.00  0.00    +0.130 A 
ATOM     13  C   UNL     1       8.115  -2.901  25.179  0.00  0.00    +0.299 A 
ATOM     14  O   UNL     1       7.638  -4.027  25.109  0.00  0.00    -0.263 OA
ATOM     15  N   UNL     1       8.358  -2.242  26.371  0.00  0.00    -0.176 NA
ENDROOT
BRANCH   8  16
ATOM     16  C   UNL     1      10.067   0.755  22.273  0.00  0.00    +0.075 C 
BRANCH  16  17
ATOM     17  C   UNL     1       9.158   1.945  22.479  0.00  0.00    -0.025 A 
ATOM     18  C   UNL     1       7.972   2.030  21.736  0.00  0.00    +0.007 A 
ATOM     19  C   UNL     1       7.096   3.095  21.929  0.00  0.00    +0.020 A 
ATOM     20  C   UNL     1       7.435   4.063  22.856  0.00  0.00    +0.111 A 
ATOM     21  N   UNL     1       8.591   4.057  23.547  0.00  0.00    -0.263 NA
ATOM     22  C   UNL     1       9.434   3.020  23.325  0.00  0.00    +0.114 A 
ENDBRANCH  16  17
ENDBRANCH   8  16
TORSDOF 2
ENDMDL
MODEL 8
REMARK VINA RESULT:      -6.1      4.131      5.773
REMARK  Name = 
REMARK  2 active torsions:
REMARK  status: ('A' for Active; 'I' for Inactive)
REMARK    1  A    between atoms: C_9  and  C_10
REMARK    2  A    between atoms: C_10  and  C_11
REMARK                            x       y       z     vdW  Elec       q    Type
REMARK                         _______ _______ _______ _____ _____    ______ ____
ROOT
ATOM      1  N   UNL     1       2.576  -5.221  26.204  0.00  0.00    -0.329 N 
ATOM      2  H   UNL     1       2.456  -4.241  25.978  0.00  0.00    +0.145 HD
ATOM      3  H   UNL     1       1.920  -5.496  26.931  0.00  0.00    +0.145 HD
ATOM      4  C   UNL     1       3.843  -5.545  26.575  0.00  0.00    +0.194 A 
ATOM      5  N   UNL     1       4.788  -4.977  25.761  0.00  0.00    -0.326 N 
ATOM      6  H   UNL     1       4.498  -4.499  24.921  0.00  0.00    +0.169 HD
ATOM      7  C   UNL     1       6.062  -5.152  26.136  0.00  0.00    +0.076 A 
ATOM      8  C   UNL     1       7.273  -4.590  25.659  0.00  0.00    -0.002 A 
ATOM      9  C   UNL     1       8.266  -5.148  26.458  0.00  0.00    +0.089 A 
ATOM     10  N   UNL     1       7.680  -5.964  27.398  0.00  0.00    -0.355 N 
ATOM     11  H   UNL     1       8.152  -6.488  28.122  0.00  0.00    +0.166 HD
ATOM     12  C   UNL     1       6.327  -5.936  27.223  0.00  0.00    +0.130 A 
ATOM     13  C   UNL     1       5.320  -6.590  28.014  0.00  0.00    +0.299 A 
ATOM     14  O   UNL     1       5.593  -7.312  28.964  0.00  0.00    -0.263 OA
ATOM     15  N   UNL     1       4.026  -6.295  27.620  0.00  0.00    -0.176 NA
ENDROOT
BRANCH   8  16
ATOM     16  C   UNL     1       7.499  -3.600  24.559  0.00  0.00    +0.075 C 
BRANCH  16  17
ATOM     17  C   UNL     1       7.016  -4.167  23.244  0.00  0.00    -0.025 A 
ATOM     18  C   UNL     1       7.474  -5.429  22.840  0.00  0.00    +0.007 A 
ATOM     19  C   UNL     1       7.020  -5.996  21.652  0.00  0.00    +0.020 A 
ATOM     20  C   UNL     1       6.123  -5.276  20.884  0.00  0.00    +0.111 A 
ATOM     21  N   UNL     1       5.702  -4.036  21.200  0.00  0.00    -0.263 NA
ATOM     22  C   UNL     1       6.176  -3.502  22.351  0.00  0.00    +0.114 A 
ENDBRANCH  16  17
ENDBRANCH   8  16
TORSDOF 2
ENDMDL
MODEL 9
REMARK VINA RESULT:      -6.1      2.803      5.869
REMARK  Name = 
REMARK  2 active torsions:
REMARK  status: ('A' for Active; 'I' for Inactive)
REMARK    1  A    between atoms: C_9  and  C_10
REMARK    2  A    between atoms: C_10  and  C_11
REMARK                            x       y       z     vdW  Elec       q    Type
REMARK                         _______ _______ _______ _____ _____    ______ ____
ROOT
ATOM      1  N   UNL     1      10.043  -1.096  21.295  0.00  0.00    -0.329 N 
ATOM      2  H   UNL     1      10.646  -1.877  21.066  0.00  0.00    +0.145 HD
ATOM      3  H   UNL     1      10.504  -0.218  21.067  0.00  0.00    +0.145 HD
ATOM      4  C   UNL     1       9.637  -1.083  22.593  0.00  0.00    +0.194 A 
ATOM      5  N   UNL     1       9.241  -2.321  23.029  0.00  0.00    -0.326 N 
ATOM      6  H   UNL     1       9.157  -3.078  22.368  0.00  0.00    +0.169 HD
ATOM      7  C   UNL     1       8.942  -2.411  24.332  0.00  0.00    +0.076 A 
ATOM      8  C   UNL     1       8.666  -3.526  25.162  0.00  0.00    -0.002 A 
ATOM      9  C   UNL     1       8.442  -2.986  26.425  0.00  0.00    +0.089 A 
ATOM     10  N   UNL     1       8.623  -1.624  26.368  0.00  0.00    -0.355 N 
ATOM     11  H   UNL     1       8.544  -0.971  27.135  0.00  0.00    +0.166 HD
ATOM     12  C   UNL     1       8.966  -1.277  25.093  0.00  0.00    +0.130 A 
ATOM     13  C   UNL     1       9.305   0.027  24.592  0.00  0.00    +0.299 A 
ATOM     14  O   UNL     1       9.286   1.029  25.296  0.00  0.00    -0.263 OA
ATOM     15  N   UNL     1       9.686   0.029  23.261  0.00  0.00    -0.176 NA
ENDROOT
BRANCH   8  16
ATOM     16  C   UNL     1       8.625  -4.983  24.823  0.00  0.00    +0.075 C 
BRANCH  16  17
ATOM     17  C   UNL     1       7.407  -5.286  23.981  0.00  0.00    -0.025 A 
ATOM     18  C   UNL     1       7.581  -5.600  22.625  0.00  0.00    +0.007 A 
ATOM     19  C   UNL     1       6.483  -5.920  21.830  0.00  0.00    +0.020 A 
ATOM     20  C   UNL     1       5.228  -5.904  22.410  0.00  0.00    +0.111 A 
ATOM     21  N   UNL     1       5.006  -5.549  23.690  0.00  0.00    -0.263 NA
ATOM     22  C   UNL     1       6.089  -5.223  24.434  0.00  0.00    +0.114 A 
ENDBRANCH  16  17
ENDBRANCH   8  16
TORSDOF 2
ENDMDL
