MODEL 1
REMARK VINA RESULT:      -4.1      0.000      0.000
REMARK  Name = 
REMARK  33 active torsions:
REMARK  status: ('A' for Active; 'I' for Inactive)
REMARK    1  A    between atoms: C_1  and  C_2
REMARK    2  A    between atoms: C_2  and  C_3
REMARK    3  A    between atoms: C_4  and  C_5
REMARK    4  A    between atoms: C_9  and  C_10
REMARK    5  A    between atoms: C_12  and  C_13
REMARK    6  A    between atoms: C_17  and  C_19
REMARK    7  A    between atoms: C_20  and  C_22
REMARK    8  A    between atoms: C_22  and  C_23
REMARK    9  A    between atoms: C_23  and  C_24
REMARK   10  A    between atoms: C_24  and  O_26
REMARK   11  A    between atoms: O_26  and  C_27
REMARK   12  A    between atoms: C_27  and  C_28
REMARK   13  A    between atoms: C_29  and  C_30
REMARK   14  A    between atoms: C_29  and  C_31
REMARK   15  A    between atoms: C_31  and  C_32
REMARK   16  A    between atoms: C_32  and  C_33
REMARK   17  A    between atoms: C_33  and  C_34
REMARK   18  A    between atoms: C_34  and  C_36
REMARK   19  A    between atoms: C_34  and  C_37
REMARK   20  A    between atoms: C_37  and  C_38
REMARK   21  A    between atoms: C_38  and  C_39
REMARK   22  A    between atoms: C_39  and  C_40
REMARK   23  A    between atoms: C_40  and  C_42
REMARK   24  A    between atoms: C_40  and  C_43
REMARK   25  A    between atoms: C_43  and  C_44
REMARK   26  A    between atoms: C_44  and  C_45
REMARK   27  A    between atoms: C_45  and  C_46
REMARK   28  A    between atoms: C_46  and  C_47
REMARK   29  A    between atoms: C_46  and  C_48
REMARK   30  A    between atoms: C_58  and  C_59
REMARK   31  A    between atoms: C_63  and  C_65
REMARK   32  A    between atoms: C_65  and  O_67
REMARK   33  A    between atoms: O_67  and  C_68
REMARK                            x       y       z     vdW  Elec       q    Type
REMARK                         _______ _______ _______ _____ _____    ______ ____
ROOT
ATOM      1  C   UNL     1       7.265   3.386  25.630  0.00  0.00    +0.000 C 
ATOM      2  C   UNL     1       6.122   1.234  26.784  0.00  0.00    +0.000 C 
ATOM      3  N   UNL     1       7.327   0.643  27.084  0.00  0.00    +1.000 N 
ATOM      4 MG   UNL     1       7.009  -2.828  26.222  0.00  0.00    +0.000 Mg
ATOM      5  N   UNL     1       4.040  -5.157  26.103  0.00  0.00    +0.000 N 
ATOM      6  C   UNL     1       3.796  -6.491  24.883  0.00  0.00    +0.000 A 
ATOM      7  C   UNL     1       2.573  -7.728  24.151  0.00  0.00    +0.000 A 
ATOM      8  C   UNL     1       1.746  -7.130  23.242  0.00  0.00    +0.000 C 
ATOM      9  C   UNL     1       2.029  -5.666  23.502  0.00  0.00    +0.000 C 
ATOM     10  O   UNL     1       0.464  -7.612  23.068  0.00  0.00    +0.000 OA
ATOM     11  C   UNL     1       1.876  -7.634  25.061  0.00  0.00    +0.000 A 
ATOM     12  C   UNL     1       1.239 -10.177  24.664  0.00  0.00    +0.000 C 
ATOM     13  C   UNL     1       3.889  -5.790  23.929  0.00  0.00    +0.000 C 
ATOM     14  C   UNL     1       5.356  -4.673  24.530  0.00  0.00    +0.000 C 
ATOM     15  C   UNL     1       5.136  -3.629  24.931  0.00  0.00    +0.000 C 
ATOM     16  C   UNL     1       6.178  -4.547  23.419  0.00  0.00    +0.000 C 
ATOM     17  C   UNL     1       7.677  -5.750  23.526  0.00  0.00    +0.000 C 
ATOM     18  C   UNL     1       6.930  -4.148  24.075  0.00  0.00    +0.000 C 
ATOM     19  C   UNL     1       7.730  -3.190  23.580  0.00  0.00    +0.000 C 
ATOM     20  C   UNL     1       8.149  -1.943  23.753  0.00  0.00    +0.000 A 
ATOM     21  C   UNL     1       8.828  -0.987  22.919  0.00  0.00    +0.000 A 
ATOM     22  C   UNL     1       9.428  -1.295  21.768  0.00  0.00    +0.000 C 
ATOM     23  C   UNL     1       8.897   0.151  23.493  0.00  0.00    +0.000 A 
ATOM     24  C   UNL     1       8.000  -0.137  24.442  0.00  0.00    +0.000 A 
ATOM     25  C   UNL     1       7.545   0.298  25.197  0.00  0.00    +0.000 C 
ATOM     26  C   UNL     1       2.933  -4.783  25.970  0.00  0.00    +0.000 A 
ATOM     27  N   UNL     1       7.793  -1.466  24.704  0.00  0.00    +0.000 N 
ATOM     28  N   UNL     1       6.476  -4.710  25.080  0.00  0.00    +1.000 N 
ATOM     29  C   UNL     1       7.876   1.195  25.834  0.00  0.00    +0.000 C 
ATOM     30  C   UNL     1       3.887  -1.156  26.315  0.00  0.00    +0.000 C 
ATOM     31  C   UNL     1       7.961   2.710  24.925  0.00  0.00    +0.000 C 
ATOM     32  C   UNL     1       8.298   3.204  23.488  0.00  0.00    +0.000 C 
ENDROOT
BRANCH  23  33
ATOM     33  C   UNL     1      10.117   1.289  23.039  0.00  0.00    +0.000 C 
ATOM     34  C   UNL     1      11.331   1.638  23.657  0.00  0.00    +0.000 C 
ENDBRANCH  23  33
BRANCH   1  36
ATOM     35  C   UNL     1       9.578   6.750  24.799  0.00  0.00    +0.000 C 
ATOM     36  C   UNL     1       8.255   5.512  24.851  0.00  0.00    +0.000 C 
ENDBRANCH   1  36
BRANCH   9  37
ATOM     37  C   UNL     1       0.827  -5.467  24.838  0.00  0.00    +0.000 C 
ATOM     38  O   UNL     1       0.450  -4.340  24.909  0.00  0.00    +0.000 OA
BRANCH  37  39
ATOM     39  O   UNL     1       0.445  -6.215  26.029  0.00  0.00    +0.000 OA
ATOM     40  C   UNL     1       0.651  -5.704  27.321  0.00  0.00    +0.000 C 
ENDBRANCH  37  39
ENDBRANCH   9  37
BRANCH  15  41
ATOM     41  C   UNL     1       5.630  -4.114  27.113  0.00  0.00    +0.000 C 
BRANCH  41  42
ATOM     42  C   UNL     1       5.169  -3.377  28.381  0.00  0.00    +0.000 C 
BRANCH  42  43
ATOM     43  C   UNL     1       4.818  -4.244  29.394  0.00  0.00    +0.000 C 
ATOM     44  O   UNL     1       5.638  -4.928  30.010  0.00  0.00    +0.000 OA
BRANCH  43  45
ATOM     45  O   UNL     1       3.565  -4.083  29.708  0.00  0.00    +0.000 OA
BRANCH  45  46
ATOM     46  C   UNL     1       3.151  -2.984  30.318  0.00  0.00    +0.000 C 
BRANCH  46  47
ATOM     47  C   UNL     1       2.009  -2.395  29.565  0.00  0.00    +0.000 C 
ATOM     48  C   UNL     1       2.037  -1.101  29.225  0.00  0.00    +0.000 C 
ATOM     49  C   UNL     1       3.223  -0.225  29.603  0.00  0.00    +0.000 C 
BRANCH  48  50
ATOM     50  C   UNL     1       0.871  -0.507  28.475  0.00  0.00    +0.000 C 
BRANCH  50  51
ATOM     51  C   UNL     1       0.863   0.993  28.580  0.00  0.00    +0.000 C 
BRANCH  51  52
ATOM     52  C   UNL     1       0.946   1.657  27.205  0.00  0.00    +0.000 C 
BRANCH  52  53
ATOM     53  C   UNL     1       1.536   3.035  27.371  0.00  0.00    +0.000 C 
ATOM     54  C   UNL     1       2.086   3.212  28.788  0.00  0.00    +0.000 C 
BRANCH  53  55
ATOM     55  C   UNL     1       0.472   4.083  27.079  0.00  0.00    +0.000 C 
BRANCH  55  56
ATOM     56  C   UNL     1       1.106   5.420  26.801  0.00  0.00    +0.000 C 
BRANCH  56  57
ATOM     57  C   UNL     1       1.732   5.477  25.415  0.00  0.00    +0.000 C 
BRANCH  57  58
ATOM     58  C   UNL     1       3.208   5.787  25.551  0.00  0.00    +0.000 C 
ATOM     59  C   UNL     1       4.032   4.516  25.328  0.00  0.00    +0.000 C 
BRANCH  58  60
ATOM     60  C   UNL     1       3.467   6.361  26.937  0.00  0.00    +0.000 C 
BRANCH  60  61
ATOM     61  C   UNL     1       4.904   6.109  27.321  0.00  0.00    +0.000 C 
BRANCH  61  62
ATOM     62  C   UNL     1       5.276   6.857  28.572  0.00  0.00    +0.000 C 
BRANCH  62  63
ATOM     63  C   UNL     1       5.779   5.882  29.635  0.00  0.00    +0.000 C 
ATOM     64  C   UNL     1       7.263   6.115  29.861  0.00  0.00    +0.000 C 
ATOM     65  C   UNL     1       5.554   4.435  29.193  0.00  0.00    +0.000 C 
ENDBRANCH  62  63
ENDBRANCH  61  62
ENDBRANCH  60  61
ENDBRANCH  58  60
ENDBRANCH  57  58
ENDBRANCH  56  57
ENDBRANCH  55  56
ENDBRANCH  53  55
ENDBRANCH  52  53
ENDBRANCH  51  52
ENDBRANCH  50  51
ENDBRANCH  48  50
ENDBRANCH  46  47
ENDBRANCH  45  46
ENDBRANCH  43  45
ENDBRANCH  42  43
ENDBRANCH  41  42
ENDBRANCH  15  41
TORSDOF 22
ENDMDL
MODEL 2
REMARK VINA RESULT:      -4.1      1.673      2.870
REMARK  Name = 
REMARK  33 active torsions:
REMARK  status: ('A' for Active; 'I' for Inactive)
REMARK    1  A    between atoms: C_1  and  C_2
REMARK    2  A    between atoms: C_2  and  C_3
REMARK    3  A    between atoms: C_4  and  C_5
REMARK    4  A    between atoms: C_9  and  C_10
REMARK    5  A    between atoms: C_12  and  C_13
REMARK    6  A    between atoms: C_17  and  C_19
REMARK    7  A    between atoms: C_20  and  C_22
REMARK    8  A    between atoms: C_22  and  C_23
REMARK    9  A    between atoms: C_23  and  C_24
REMARK   10  A    between atoms: C_24  and  O_26
REMARK   11  A    between atoms: O_26  and  C_27
REMARK   12  A    between atoms: C_27  and  C_28
REMARK   13  A    between atoms: C_29  and  C_30
REMARK   14  A    between atoms: C_29  and  C_31
REMARK   15  A    between atoms: C_31  and  C_32
REMARK   16  A    between atoms: C_32  and  C_33
REMARK   17  A    between atoms: C_33  and  C_34
REMARK   18  A    between atoms: C_34  and  C_36
REMARK   19  A    between atoms: C_34  and  C_37
REMARK   20  A    between atoms: C_37  and  C_38
REMARK   21  A    between atoms: C_38  and  C_39
REMARK   22  A    between atoms: C_39  and  C_40
REMARK   23  A    between atoms: C_40  and  C_42
REMARK   24  A    between atoms: C_40  and  C_43
REMARK   25  A    between atoms: C_43  and  C_44
REMARK   26  A    between atoms: C_44  and  C_45
REMARK   27  A    between atoms: C_45  and  C_46
REMARK   28  A    between atoms: C_46  and  C_47
REMARK   29  A    between atoms: C_46  and  C_48
REMARK   30  A    between atoms: C_58  and  C_59
REMARK   31  A    between atoms: C_63  and  C_65
REMARK   32  A    between atoms: C_65  and  O_67
REMARK   33  A    between atoms: O_67  and  C_68
REMARK                            x       y       z     vdW  Elec       q    Type
REMARK                         _______ _______ _______ _____ _____    ______ ____
ROOT
ATOM      1  C   UNL     1       7.259   3.334  25.654  0.00  0.00    +0.000 C 
ATOM      2  C   UNL     1       6.105   1.219  26.863  0.00  0.00    +0.000 C 
ATOM      3  N   UNL     1       7.301   0.700  27.297  0.00  0.00    +1.000 N 
ATOM      4 MG   UNL     1       7.178  -2.832  26.659  0.00  0.00    +0.000 Mg
ATOM      5  N   UNL     1       4.313  -5.283  26.472  0.00  0.00    +0.000 N 
ATOM      6  C   UNL     1       4.216  -6.705  25.334  0.00  0.00    +0.000 A 
ATOM      7  C   UNL     1       3.100  -8.037  24.598  0.00  0.00    +0.000 A 
ATOM      8  C   UNL     1       2.328  -7.536  23.587  0.00  0.00    +0.000 C 
ATOM      9  C   UNL     1       2.537  -6.048  23.765  0.00  0.00    +0.000 C 
ATOM     10  O   UNL     1       1.083  -8.081  23.348  0.00  0.00    +0.000 OA
ATOM     11  C   UNL     1       2.329  -7.911  25.441  0.00  0.00    +0.000 A 
ATOM     12  C   UNL     1       1.817 -10.499  25.176  0.00  0.00    +0.000 C 
ATOM     13  C   UNL     1       4.360  -6.066  24.343  0.00  0.00    +0.000 C 
ATOM     14  C   UNL     1       5.734  -4.852  24.977  0.00  0.00    +0.000 C 
ATOM     15  C   UNL     1       5.444  -3.794  25.286  0.00  0.00    +0.000 C 
ATOM     16  C   UNL     1       6.637  -4.768  23.927  0.00  0.00    +0.000 C 
ATOM     17  C   UNL     1       8.165  -5.898  24.235  0.00  0.00    +0.000 C 
ATOM     18  C   UNL     1       7.319  -4.295  24.611  0.00  0.00    +0.000 C 
ATOM     19  C   UNL     1       8.122  -3.340  24.113  0.00  0.00    +0.000 C 
ATOM     20  C   UNL     1       8.481  -2.068  24.230  0.00  0.00    +0.000 A 
ATOM     21  C   UNL     1       9.190  -1.143  23.387  0.00  0.00    +0.000 A 
ATOM     22  C   UNL     1       9.892  -1.503  22.311  0.00  0.00    +0.000 C 
ATOM     23  C   UNL     1       9.173   0.032  23.884  0.00  0.00    +0.000 A 
ATOM     24  C   UNL     1       8.213  -0.227  24.777  0.00  0.00    +0.000 A 
ATOM     25  C   UNL     1       7.683   0.238  25.462  0.00  0.00    +0.000 C 
ATOM     26  C   UNL     1       3.207  -4.965  26.228  0.00  0.00    +0.000 A 
ATOM     27  N   UNL     1       8.033  -1.544  25.115  0.00  0.00    +0.000 N 
ATOM     28  N   UNL     1       6.806  -4.806  25.614  0.00  0.00    +1.000 N 
ATOM     29  C   UNL     1       7.930   1.189  26.058  0.00  0.00    +0.000 C 
ATOM     30  C   UNL     1       4.001  -1.287  26.390  0.00  0.00    +0.000 C 
ATOM     31  C   UNL     1       8.033   2.642  25.055  0.00  0.00    +0.000 C 
ATOM     32  C   UNL     1       8.468   3.051  23.617  0.00  0.00    +0.000 C 
ENDROOT
BRANCH  23  33
ATOM     33  C   UNL     1      10.383   1.187  23.447  0.00  0.00    +0.000 C 
ATOM     34  C   UNL     1      11.723   1.321  23.855  0.00  0.00    +0.000 C 
ENDBRANCH  23  33
BRANCH   1  36
ATOM     35  C   UNL     1       8.422   6.742  23.558  0.00  0.00    +0.000 C 
ATOM     36  C   UNL     1       8.232   5.441  24.807  0.00  0.00    +0.000 C 
ENDBRANCH   1  36
BRANCH   9  37
ATOM     37  C   UNL     1       1.225  -5.808  24.985  0.00  0.00    +0.000 C 
ATOM     38  O   UNL     1       0.445  -4.988  24.619  0.00  0.00    +0.000 OA
BRANCH  37  39
ATOM     39  O   UNL     1       1.040  -6.100  26.402  0.00  0.00    +0.000 OA
ATOM     40  C   UNL     1       0.628  -5.114  27.312  0.00  0.00    +0.000 C 
ENDBRANCH  37  39
ENDBRANCH   9  37
BRANCH  15  41
ATOM     41  C   UNL     1       5.777  -4.110  27.528  0.00  0.00    +0.000 C 
BRANCH  41  42
ATOM     42  C   UNL     1       5.301  -3.231  28.695  0.00  0.00    +0.000 C 
BRANCH  42  43
ATOM     43  C   UNL     1       4.724  -3.969  29.706  0.00  0.00    +0.000 C 
ATOM     44  O   UNL     1       5.372  -4.670  30.485  0.00  0.00    +0.000 OA
BRANCH  43  45
ATOM     45  O   UNL     1       3.463  -3.665  29.820  0.00  0.00    +0.000 OA
BRANCH  45  46
ATOM     46  C   UNL     1       3.080  -2.580  30.474  0.00  0.00    +0.000 C 
BRANCH  46  47
ATOM     47  C   UNL     1       2.220  -1.742  29.590  0.00  0.00    +0.000 C 
ATOM     48  C   UNL     1       2.408  -0.418  29.548  0.00  0.00    +0.000 C 
ATOM     49  C   UNL     1       3.487   0.240  30.395  0.00  0.00    +0.000 C 
BRANCH  48  50
ATOM     50  C   UNL     1       1.525   0.426  28.663  0.00  0.00    +0.000 C 
BRANCH  50  51
ATOM     51  C   UNL     1       1.957   1.867  28.677  0.00  0.00    +0.000 C 
BRANCH  51  52
ATOM     52  C   UNL     1       2.757   2.230  27.426  0.00  0.00    +0.000 C 
BRANCH  52  53
ATOM     53  C   UNL     1       3.497   3.519  27.684  0.00  0.00    +0.000 C 
ATOM     54  C   UNL     1       4.124   3.502  29.081  0.00  0.00    +0.000 C 
BRANCH  53  55
ATOM     55  C   UNL     1       2.538   4.693  27.547  0.00  0.00    +0.000 C 
BRANCH  55  56
ATOM     56  C   UNL     1       2.907   5.545  26.363  0.00  0.00    +0.000 C 
BRANCH  56  57
ATOM     57  C   UNL     1       2.559   4.870  25.044  0.00  0.00    +0.000 C 
BRANCH  57  58
ATOM     58  C   UNL     1       3.834   4.609  24.270  0.00  0.00    +0.000 C 
ATOM     59  C   UNL     1       4.510   5.935  23.912  0.00  0.00    +0.000 C 
BRANCH  58  60
ATOM     60  C   UNL     1       3.496   3.821  23.013  0.00  0.00    +0.000 C 
BRANCH  60  61
ATOM     61  C   UNL     1       2.019   3.941  22.730  0.00  0.00    +0.000 C 
BRANCH  61  62
ATOM     62  C   UNL     1       1.767   4.541  21.373  0.00  0.00    +0.000 C 
BRANCH  62  63
ATOM     63  C   UNL     1       2.106   3.526  20.282  0.00  0.00    +0.000 C 
ATOM     64  C   UNL     1       1.663   4.077  18.937  0.00  0.00    +0.000 C 
ATOM     65  C   UNL     1       1.402   2.193  20.542  0.00  0.00    +0.000 C 
ENDBRANCH  62  63
ENDBRANCH  61  62
ENDBRANCH  60  61
ENDBRANCH  58  60
ENDBRANCH  57  58
ENDBRANCH  56  57
ENDBRANCH  55  56
ENDBRANCH  53  55
ENDBRANCH  52  53
ENDBRANCH  51  52
ENDBRANCH  50  51
ENDBRANCH  48  50
ENDBRANCH  46  47
ENDBRANCH  45  46
ENDBRANCH  43  45
ENDBRANCH  42  43
ENDBRANCH  41  42
ENDBRANCH  15  41
TORSDOF 22
ENDMDL
MODEL 3
REMARK VINA RESULT:      -4.0      2.760      6.632
REMARK  Name = 
REMARK  33 active torsions:
REMARK  status: ('A' for Active; 'I' for Inactive)
REMARK    1  A    between atoms: C_1  and  C_2
REMARK    2  A    between atoms: C_2  and  C_3
REMARK    3  A    between atoms: C_4  and  C_5
REMARK    4  A    between atoms: C_9  and  C_10
REMARK    5  A    between atoms: C_12  and  C_13
REMARK    6  A    between atoms: C_17  and  C_19
REMARK    7  A    between atoms: C_20  and  C_22
REMARK    8  A    between atoms: C_22  and  C_23
REMARK    9  A    between atoms: C_23  and  C_24
REMARK   10  A    between atoms: C_24  and  O_26
REMARK   11  A    between atoms: O_26  and  C_27
REMARK   12  A    between atoms: C_27  and  C_28
REMARK   13  A    between atoms: C_29  and  C_30
REMARK   14  A    between atoms: C_29  and  C_31
REMARK   15  A    between atoms: C_31  and  C_32
REMARK   16  A    between atoms: C_32  and  C_33
REMARK   17  A    between atoms: C_33  and  C_34
REMARK   18  A    between atoms: C_34  and  C_36
REMARK   19  A    between atoms: C_34  and  C_37
REMARK   20  A    between atoms: C_37  and  C_38
REMARK   21  A    between atoms: C_38  and  C_39
REMARK   22  A    between atoms: C_39  and  C_40
REMARK   23  A    between atoms: C_40  and  C_42
REMARK   24  A    between atoms: C_40  and  C_43
REMARK   25  A    between atoms: C_43  and  C_44
REMARK   26  A    between atoms: C_44  and  C_45
REMARK   27  A    between atoms: C_45  and  C_46
REMARK   28  A    between atoms: C_46  and  C_47
REMARK   29  A    between atoms: C_46  and  C_48
REMARK   30  A    between atoms: C_58  and  C_59
REMARK   31  A    between atoms: C_63  and  C_65
REMARK   32  A    between atoms: C_65  and  O_67
REMARK   33  A    between atoms: O_67  and  C_68
REMARK                            x       y       z     vdW  Elec       q    Type
REMARK                         _______ _______ _______ _____ _____    ______ ____
ROOT
ATOM      1  C   UNL     1       0.791   4.534  22.930  0.00  0.00    +0.000 C 
ATOM      2  C   UNL     1       0.870   2.965  25.121  0.00  0.00    +0.000 C 
ATOM      3  N   UNL     1       1.770   3.772  25.775  0.00  0.00    +1.000 N 
ATOM      4 MG   UNL     1       4.215   1.593  27.250  0.00  0.00    +0.000 Mg
ATOM      5  N   UNL     1       4.031  -1.973  28.477  0.00  0.00    +0.000 N 
ATOM      6  C   UNL     1       5.371  -3.203  28.343  0.00  0.00    +0.000 A 
ATOM      7  C   UNL     1       5.830  -5.028  28.488  0.00  0.00    +0.000 A 
ATOM      8  C   UNL     1       5.464  -5.722  27.370  0.00  0.00    +0.000 C 
ATOM      9  C   UNL     1       4.574  -4.716  26.674  0.00  0.00    +0.000 C 
ATOM     10  O   UNL     1       5.123  -7.056  27.478  0.00  0.00    +0.000 OA
ATOM     11  C   UNL     1       4.891  -5.254  29.110  0.00  0.00    +0.000 A 
ATOM     12  C   UNL     1       6.324  -7.104  30.356  0.00  0.00    +0.000 C 
ATOM     13  C   UNL     1       5.492  -3.112  27.165  0.00  0.00    +0.000 C 
ATOM     14  C   UNL     1       5.317  -1.187  27.004  0.00  0.00    +0.000 C 
ATOM     15  C   UNL     1       4.325  -0.743  26.658  0.00  0.00    +0.000 C 
ATOM     16  C   UNL     1       6.298  -0.822  26.093  0.00  0.00    +0.000 C 
ATOM     17  C   UNL     1       7.852  -0.126  26.991  0.00  0.00    +0.000 C 
ATOM     18  C   UNL     1       6.131   0.198  26.390  0.00  0.00    +0.000 C 
ATOM     19  C   UNL     1       6.254   1.141  25.442  0.00  0.00    +0.000 C 
ATOM     20  C   UNL     1       5.623   2.128  24.819  0.00  0.00    +0.000 A 
ATOM     21  C   UNL     1       5.857   2.859  23.601  0.00  0.00    +0.000 A 
ATOM     22  C   UNL     1       7.003   2.825  22.920  0.00  0.00    +0.000 C 
ATOM     23  C   UNL     1       4.881   3.641  23.345  0.00  0.00    +0.000 A 
ATOM     24  C   UNL     1       4.044   3.084  24.226  0.00  0.00    +0.000 A 
ATOM     25  C   UNL     1       3.111   3.165  24.525  0.00  0.00    +0.000 C 
ATOM     26  C   UNL     1       3.233  -2.747  28.092  0.00  0.00    +0.000 A 
ATOM     27  N   UNL     1       4.617   2.375  25.250  0.00  0.00    +0.000 N 
ATOM     28  N   UNL     1       5.690  -0.107  27.506  0.00  0.00    +1.000 N 
ATOM     29  C   UNL     1       2.403   4.069  24.479  0.00  0.00    +0.000 C 
ATOM     30  C   UNL     1       1.331  -0.144  26.145  0.00  0.00    +0.000 C 
ATOM     31  C   UNL     1       1.986   4.553  22.830  0.00  0.00    +0.000 C 
ATOM     32  C   UNL     1       2.632   4.587  21.414  0.00  0.00    +0.000 C 
ENDROOT
BRANCH  23  33
ATOM     33  C   UNL     1       5.109   5.025  22.335  0.00  0.00    +0.000 C 
ATOM     34  C   UNL     1       5.664   6.288  22.609  0.00  0.00    +0.000 C 
ENDBRANCH  23  33
BRANCH   1  36
ATOM     35  C   UNL     1       0.818   6.720  19.383  0.00  0.00    +0.000 C 
ATOM     36  C   UNL     1       0.443   6.088  21.041  0.00  0.00    +0.000 C 
ENDBRANCH   1  36
BRANCH   9  37
ATOM     37  C   UNL     1       3.053  -5.165  27.541  0.00  0.00    +0.000 C 
ATOM     38  O   UNL     1       2.212  -5.516  26.775  0.00  0.00    +0.000 OA
BRANCH  37  39
ATOM     39  O   UNL     1       2.479  -4.914  28.858  0.00  0.00    +0.000 OA
ATOM     40  C   UNL     1       1.556  -5.796  29.443  0.00  0.00    +0.000 C 
ENDBRANCH  37  39
ENDBRANCH   9  37
BRANCH  15  41
ATOM     41  C   UNL     1       3.755   0.152  28.686  0.00  0.00    +0.000 C 
BRANCH  41  42
ATOM     42  C   UNL     1       4.603   1.043  29.607  0.00  0.00    +0.000 C 
BRANCH  42  43
ATOM     43  C   UNL     1       4.605   2.362  29.205  0.00  0.00    +0.000 C 
ATOM     44  O   UNL     1       5.620   2.951  28.829  0.00  0.00    +0.000 OA
BRANCH  43  45
ATOM     45  O   UNL     1       3.383   2.802  29.106  0.00  0.00    +0.000 OA
BRANCH  45  46
ATOM     46  C   UNL     1       3.105   4.084  29.288  0.00  0.00    +0.000 C 
BRANCH  46  47
ATOM     47  C   UNL     1       3.569   4.867  28.108  0.00  0.00    +0.000 C 
ATOM     48  C   UNL     1       4.144   6.061  28.293  0.00  0.00    +0.000 C 
ATOM     49  C   UNL     1       4.324   6.628  29.693  0.00  0.00    +0.000 C 
BRANCH  48  50
ATOM     50  C   UNL     1       4.599   6.856  27.094  0.00  0.00    +0.000 C 
BRANCH  50  51
ATOM     51  C   UNL     1       5.508   6.043  26.214  0.00  0.00    +0.000 C 
BRANCH  51  52
ATOM     52  C   UNL     1       6.846   6.744  25.980  0.00  0.00    +0.000 C 
BRANCH  52  53
ATOM     53  C   UNL     1       7.760   5.803  25.237  0.00  0.00    +0.000 C 
ATOM     54  C   UNL     1       7.935   4.500  26.020  0.00  0.00    +0.000 C 
BRANCH  53  55
ATOM     55  C   UNL     1       9.108   6.473  25.012  0.00  0.00    +0.000 C 
BRANCH  55  56
ATOM     56  C   UNL     1       9.853   5.804  23.888  0.00  0.00    +0.000 C 
BRANCH  56  57
ATOM     57  C   UNL     1      11.360   5.961  24.031  0.00  0.00    +0.000 C 
BRANCH  57  58
ATOM     58  C   UNL     1      12.040   4.714  23.505  0.00  0.00    +0.000 C 
ATOM     59  C   UNL     1      12.977   5.077  22.350  0.00  0.00    +0.000 C 
BRANCH  58  60
ATOM     60  C   UNL     1      10.975   3.728  23.045  0.00  0.00    +0.000 C 
BRANCH  60  61
ATOM     61  C   UNL     1      10.720   2.721  24.141  0.00  0.00    +0.000 C 
BRANCH  61  62
ATOM     62  C   UNL     1      10.934   1.314  23.653  0.00  0.00    +0.000 C 
BRANCH  62  63
ATOM     63  C   UNL     1       9.612   0.722  23.168  0.00  0.00    +0.000 C 
ATOM     64  C   UNL     1       9.443  -0.667  23.760  0.00  0.00    +0.000 C 
ATOM     65  C   UNL     1       9.587   0.630  21.641  0.00  0.00    +0.000 C 
ENDBRANCH  62  63
ENDBRANCH  61  62
ENDBRANCH  60  61
ENDBRANCH  58  60
ENDBRANCH  57  58
ENDBRANCH  56  57
ENDBRANCH  55  56
ENDBRANCH  53  55
ENDBRANCH  52  53
ENDBRANCH  51  52
ENDBRANCH  50  51
ENDBRANCH  48  50
ENDBRANCH  46  47
ENDBRANCH  45  46
ENDBRANCH  43  45
ENDBRANCH  42  43
ENDBRANCH  41  42
ENDBRANCH  15  41
TORSDOF 22
ENDMDL
MODEL 4
REMARK VINA RESULT:      -1.3      3.285      9.035
REMARK  Name = 
REMARK  33 active torsions:
REMARK  status: ('A' for Active; 'I' for Inactive)
REMARK    1  A    between atoms: C_1  and  C_2
REMARK    2  A    between atoms: C_2  and  C_3
REMARK    3  A    between atoms: C_4  and  C_5
REMARK    4  A    between atoms: C_9  and  C_10
REMARK    5  A    between atoms: C_12  and  C_13
REMARK    6  A    between atoms: C_17  and  C_19
REMARK    7  A    between atoms: C_20  and  C_22
REMARK    8  A    between atoms: C_22  and  C_23
REMARK    9  A    between atoms: C_23  and  C_24
REMARK   10  A    between atoms: C_24  and  O_26
REMARK   11  A    between atoms: O_26  and  C_27
REMARK   12  A    between atoms: C_27  and  C_28
REMARK   13  A    between atoms: C_29  and  C_30
REMARK   14  A    between atoms: C_29  and  C_31
REMARK   15  A    between atoms: C_31  and  C_32
REMARK   16  A    between atoms: C_32  and  C_33
REMARK   17  A    between atoms: C_33  and  C_34
REMARK   18  A    between atoms: C_34  and  C_36
REMARK   19  A    between atoms: C_34  and  C_37
REMARK   20  A    between atoms: C_37  and  C_38
REMARK   21  A    between atoms: C_38  and  C_39
REMARK   22  A    between atoms: C_39  and  C_40
REMARK   23  A    between atoms: C_40  and  C_42
REMARK   24  A    between atoms: C_40  and  C_43
REMARK   25  A    between atoms: C_43  and  C_44
REMARK   26  A    between atoms: C_44  and  C_45
REMARK   27  A    between atoms: C_45  and  C_46
REMARK   28  A    between atoms: C_46  and  C_47
REMARK   29  A    between atoms: C_46  and  C_48
REMARK   30  A    between atoms: C_58  and  C_59
REMARK   31  A    between atoms: C_63  and  C_65
REMARK   32  A    between atoms: C_65  and  O_67
REMARK   33  A    between atoms: O_67  and  C_68
REMARK                            x       y       z     vdW  Elec       q    Type
REMARK                         _______ _______ _______ _____ _____    ______ ____
ROOT
ATOM      1  C   UNL     1       6.662  -4.220  23.019  0.00  0.00    +0.000 C 
ATOM      2  C   UNL     1       6.869  -2.161  24.746  0.00  0.00    +0.000 C 
ATOM      3  N   UNL     1       6.678  -2.952  25.853  0.00  0.00    +1.000 N 
ATOM      4 MG   UNL     1       4.391  -1.192  27.990  0.00  0.00    +0.000 Mg
ATOM      5  N   UNL     1       3.683   2.484  28.476  0.00  0.00    +0.000 N 
ATOM      6  C   UNL     1       2.043   3.205  28.823  0.00  0.00    +0.000 A 
ATOM      7  C   UNL     1       1.028   4.792  28.914  0.00  0.00    +0.000 A 
ATOM      8  C   UNL     1       0.630   5.199  27.671  0.00  0.00    +0.000 C 
ATOM      9  C   UNL     1       1.481   4.316  26.784  0.00  0.00    +0.000 C 
ATOM     10  O   UNL     1       0.456   6.545  27.419  0.00  0.00    +0.000 OA
ATOM     11  C   UNL     1       1.975   5.440  28.979  0.00  0.00    +0.000 A 
ATOM     12  C   UNL     1       0.568   7.108  30.484  0.00  0.00    +0.000 C 
ATOM     13  C   UNL     1       1.512   2.741  27.868  0.00  0.00    +0.000 C 
ATOM     14  C   UNL     1       2.321   0.979  27.912  0.00  0.00    +0.000 C 
ATOM     15  C   UNL     1       3.183   0.742  27.203  0.00  0.00    +0.000 C 
ATOM     16  C   UNL     1       1.278   0.108  27.634  0.00  0.00    +0.000 C 
ATOM     17  C   UNL     1       0.593  -0.690  29.246  0.00  0.00    +0.000 C 
ATOM     18  C   UNL     1       1.919  -0.693  27.955  0.00  0.00    +0.000 C 
ATOM     19  C   UNL     1       1.798  -1.869  27.318  0.00  0.00    +0.000 C 
ATOM     20  C   UNL     1       2.453  -2.783  26.615  0.00  0.00    +0.000 A 
ATOM     21  C   UNL     1       2.052  -3.876  25.767  0.00  0.00    +0.000 A 
ATOM     22  C   UNL     1       0.811  -4.359  25.712  0.00  0.00    +0.000 C 
ATOM     23  C   UNL     1       3.063  -4.400  25.191  0.00  0.00    +0.000 A 
ATOM     24  C   UNL     1       3.902  -3.402  25.485  0.00  0.00    +0.000 A 
ATOM     25  C   UNL     1       4.832  -3.132  25.315  0.00  0.00    +0.000 C 
ATOM     26  C   UNL     1       3.908   3.298  27.657  0.00  0.00    +0.000 A 
ATOM     27  N   UNL     1       3.559  -2.608  26.548  0.00  0.00    +0.000 N 
ATOM     28  N   UNL     1       2.615   0.035  28.674  0.00  0.00    +1.000 N 
ATOM     29  C   UNL     1       5.748  -3.780  25.065  0.00  0.00    +0.000 C 
ATOM     30  C   UNL     1       5.714   0.862  25.424  0.00  0.00    +0.000 C 
ATOM     31  C   UNL     1       5.629  -4.594  23.500  0.00  0.00    +0.000 C 
ATOM     32  C   UNL     1       4.541  -5.220  22.579  0.00  0.00    +0.000 C 
ENDROOT
BRANCH  23  33
ATOM     33  C   UNL     1       2.996  -6.028  24.612  0.00  0.00    +0.000 C 
ATOM     34  C   UNL     1       3.191  -7.253  25.273  0.00  0.00    +0.000 C 
ENDBRANCH  23  33
BRANCH   1  36
ATOM     35  C   UNL     1       6.780  -6.806  19.754  0.00  0.00    +0.000 C 
ATOM     36  C   UNL     1       6.794  -6.105  21.426  0.00  0.00    +0.000 C 
ENDBRANCH   1  36
BRANCH   9  37
ATOM     37  C   UNL     1       2.928   5.399  26.757  0.00  0.00    +0.000 C 
ATOM     38  O   UNL     1       2.790   6.277  25.965  0.00  0.00    +0.000 OA
BRANCH  37  39
ATOM     39  O   UNL     1       4.317   5.310  27.191  0.00  0.00    +0.000 OA
ATOM     40  C   UNL     1       5.237   6.341  26.943  0.00  0.00    +0.000 C 
ENDBRANCH  37  39
ENDBRANCH   9  37
BRANCH  15  41
ATOM     41  C   UNL     1       4.800   0.676  28.822  0.00  0.00    +0.000 C 
BRANCH  41  42
ATOM     42  C   UNL     1       6.202   0.052  28.744  0.00  0.00    +0.000 C 
BRANCH  42  43
ATOM     43  C   UNL     1       7.200   1.003  28.755  0.00  0.00    +0.000 C 
ATOM     44  O   UNL     1       7.425   1.733  29.722  0.00  0.00    +0.000 OA
BRANCH  43  45
ATOM     45  O   UNL     1       7.955   0.873  27.702  0.00  0.00    +0.000 OA
BRANCH  45  46
ATOM     46  C   UNL     1       8.045  -0.285  27.067  0.00  0.00    +0.000 C 
BRANCH  46  47
ATOM     47  C   UNL     1       9.326  -0.339  26.308  0.00  0.00    +0.000 C 
ATOM     48  C   UNL     1       9.647   0.662  25.481  0.00  0.00    +0.000 C 
ATOM     49  C   UNL     1       8.716   1.853  25.306  0.00  0.00    +0.000 C 
BRANCH  48  50
ATOM     50  C   UNL     1      10.938   0.595  24.703  0.00  0.00    +0.000 C 
BRANCH  50  51
ATOM     51  C   UNL     1      10.680   0.403  23.234  0.00  0.00    +0.000 C 
BRANCH  51  52
ATOM     52  C   UNL     1       9.599  -0.648  22.981  0.00  0.00    +0.000 C 
BRANCH  52  53
ATOM     53  C   UNL     1       8.453   0.007  22.253  0.00  0.00    +0.000 C 
ATOM     54  C   UNL     1       7.681  -1.030  21.433  0.00  0.00    +0.000 C 
BRANCH  53  55
ATOM     55  C   UNL     1       8.986   1.108  21.348  0.00  0.00    +0.000 C 
BRANCH  55  56
ATOM     56  C   UNL     1       8.581   2.463  21.865  0.00  0.00    +0.000 C 
BRANCH  56  57
ATOM     57  C   UNL     1       7.128   2.491  22.316  0.00  0.00    +0.000 C 
BRANCH  57  58
ATOM     58  C   UNL     1       6.655   3.928  22.375  0.00  0.00    +0.000 C 
ATOM     59  C   UNL     1       7.781   4.828  22.891  0.00  0.00    +0.000 C 
BRANCH  58  60
ATOM     60  C   UNL     1       5.439   4.011  23.286  0.00  0.00    +0.000 C 
BRANCH  60  61
ATOM     61  C   UNL     1       4.306   3.218  22.682  0.00  0.00    +0.000 C 
BRANCH  61  62
ATOM     62  C   UNL     1       3.062   3.310  23.523  0.00  0.00    +0.000 C 
BRANCH  62  63
ATOM     63  C   UNL     1       2.110   4.349  22.934  0.00  0.00    +0.000 C 
ATOM     64  C   UNL     1       1.085   3.645  22.061  0.00  0.00    +0.000 C 
ATOM     65  C   UNL     1       2.874   5.373  22.094  0.00  0.00    +0.000 C 
ENDBRANCH  62  63
ENDBRANCH  61  62
ENDBRANCH  60  61
ENDBRANCH  58  60
ENDBRANCH  57  58
ENDBRANCH  56  57
ENDBRANCH  55  56
ENDBRANCH  53  55
ENDBRANCH  52  53
ENDBRANCH  51  52
ENDBRANCH  50  51
ENDBRANCH  48  50
ENDBRANCH  46  47
ENDBRANCH  45  46
ENDBRANCH  43  45
ENDBRANCH  42  43
ENDBRANCH  41  42
ENDBRANCH  15  41
TORSDOF 22
ENDMDL
