MODEL 1
REMARK VINA RESULT:      -5.2      0.000      0.000
REMARK  Name = 
REMARK  6 active torsions:
REMARK  status: ('A' for Active; 'I' for Inactive)
REMARK    1  A    between atoms: C_1  and  C_2
REMARK    2  A    between atoms: N_4  and  C_5
REMARK    3  A    between atoms: C_8  and  C_9
REMARK    4  A    between atoms: C_9  and  O_10
REMARK    5  A    between atoms: C_14  and  N_15
REMARK    6  A    between atoms: C_16  and  C_17
REMARK                            x       y       z     vdW  Elec       q    Type
REMARK                         _______ _______ _______ _____ _____    ______ ____
ROOT
ATOM      1  C   UNL     1       7.243  -1.380  25.047  0.00  0.00    +0.063 A 
ATOM      2  C   UNL     1       7.280  -0.065  25.576  0.00  0.00    +0.058 A 
ATOM      3  I   UNL     1       6.270   0.304  27.433  0.00  0.00    -0.040 I 
ATOM      4  C   UNL     1       8.112   0.918  24.997  0.00  0.00    +0.063 A 
ATOM      5  C   UNL     1       8.960   0.540  23.920  0.00  0.00    +0.051 A 
ATOM      6  I   UNL     1      10.363   2.014  23.196  0.00  0.00    -0.041 I 
ATOM      7  C   UNL     1       8.885  -0.748  23.342  0.00  0.00    +0.089 A 
ATOM      8  C   UNL     1       7.970  -1.677  23.871  0.00  0.00    +0.051 A 
ATOM      9  I   UNL     1       7.435  -3.432  22.712  0.00  0.00    -0.041 I 
ENDROOT
BRANCH   1  12
ATOM     10  C   UNL     1       6.214  -4.309  27.178  0.00  0.00    +0.109 C 
ATOM     11  C   UNL     1       7.165  -3.343  26.519  0.00  0.00    +0.214 C 
ATOM     12  N   UNL     1       6.518  -2.391  25.740  0.00  0.00    -0.284 N 
ATOM     13  H   UNL     1       5.620  -2.101  26.113  0.00  0.00    +0.155 HD
ATOM     14  O   UNL     1       8.378  -3.384  26.703  0.00  0.00    -0.276 OA
ENDBRANCH   1  12
BRANCH   4  15
ATOM     15  N   UNL     1       8.305   2.197  25.578  0.00  0.00    -0.284 N 
ATOM     16  H   UNL     1       9.275   2.447  25.758  0.00  0.00    +0.155 HD
ATOM     17  C   UNL     1       7.623   3.367  25.378  0.00  0.00    +0.214 C 
ATOM     18  O   UNL     1       8.150   4.408  25.783  0.00  0.00    -0.276 OA
ATOM     19  C   UNL     1       6.303   3.426  24.664  0.00  0.00    +0.109 C 
ENDBRANCH   4  15
BRANCH   7  20
ATOM     20  C   UNL     1       9.752  -1.117  22.192  0.00  0.00    +0.339 C 
ATOM     21  O   UNL     1      10.759  -1.795  22.297  0.00  0.00    -0.245 OA
BRANCH  20  22
ATOM     22  O   UNL     1       9.287  -0.677  21.002  0.00  0.00    -0.477 OA
ATOM     23  H   UNL     1       8.778  -1.322  20.469  0.00  0.00    +0.295 HD
ENDBRANCH  20  22
ENDBRANCH   7  20
TORSDOF 4
ENDMDL
MODEL 2
REMARK VINA RESULT:      -5.0      1.572      5.057
REMARK  Name = 
REMARK  6 active torsions:
REMARK  status: ('A' for Active; 'I' for Inactive)
REMARK    1  A    between atoms: C_1  and  C_2
REMARK    2  A    between atoms: N_4  and  C_5
REMARK    3  A    between atoms: C_8  and  C_9
REMARK    4  A    between atoms: C_9  and  O_10
REMARK    5  A    between atoms: C_14  and  N_15
REMARK    6  A    between atoms: C_16  and  C_17
REMARK                            x       y       z     vdW  Elec       q    Type
REMARK                         _______ _______ _______ _____ _____    ______ ____
ROOT
ATOM      1  C   UNL     1       7.933   0.672  25.042  0.00  0.00    +0.063 A 
ATOM      2  C   UNL     1       6.746  -0.064  25.291  0.00  0.00    +0.058 A 
ATOM      3  I   UNL     1       5.218   0.862  26.478  0.00  0.00    -0.040 I 
ATOM      4  C   UNL     1       6.504  -1.283  24.621  0.00  0.00    +0.063 A 
ATOM      5  C   UNL     1       7.442  -1.718  23.644  0.00  0.00    +0.051 A 
ATOM      6  I   UNL     1       6.937  -3.478  22.498  0.00  0.00    -0.041 I 
ATOM      7  C   UNL     1       8.659  -1.030  23.435  0.00  0.00    +0.089 A 
ATOM      8  C   UNL     1       8.923   0.126  24.192  0.00  0.00    +0.051 A 
ATOM      9  I   UNL     1      10.952   0.891  24.305  0.00  0.00    -0.041 I 
ENDROOT
BRANCH   1  12
ATOM     10  C   UNL     1       8.031   4.385  25.661  0.00  0.00    +0.109 C 
ATOM     11  C   UNL     1       7.830   3.118  24.869  0.00  0.00    +0.214 C 
ATOM     12  N   UNL     1       8.082   1.969  25.609  0.00  0.00    -0.284 N 
ATOM     13  H   UNL     1       7.820   2.047  26.586  0.00  0.00    +0.155 HD
ATOM     14  O   UNL     1       7.437   3.124  23.706  0.00  0.00    -0.276 OA
ENDBRANCH   1  12
BRANCH   4  15
ATOM     15  N   UNL     1       5.271  -1.976  24.714  0.00  0.00    -0.284 N 
ATOM     16  H   UNL     1       4.816  -2.167  23.824  0.00  0.00    +0.155 HD
ATOM     17  C   UNL     1       4.875  -2.957  25.582  0.00  0.00    +0.214 C 
ATOM     18  O   UNL     1       3.861  -3.599  25.290  0.00  0.00    -0.276 OA
ATOM     19  C   UNL     1       5.639  -3.293  26.831  0.00  0.00    +0.109 C 
ENDBRANCH   4  15
BRANCH   7  20
ATOM     20  C   UNL     1       9.647  -1.518  22.436  0.00  0.00    +0.339 C 
ATOM     21  O   UNL     1      10.485  -2.368  22.677  0.00  0.00    -0.245 OA
BRANCH  20  22
ATOM     22  O   UNL     1       9.490  -0.970  21.211  0.00  0.00    -0.477 OA
ATOM     23  H   UNL     1       8.938  -0.163  21.163  0.00  0.00    +0.295 HD
ENDBRANCH  20  22
ENDBRANCH   7  20
TORSDOF 4
ENDMDL
MODEL 3
REMARK VINA RESULT:      -5.0      4.128      6.094
REMARK  Name = 
REMARK  6 active torsions:
REMARK  status: ('A' for Active; 'I' for Inactive)
REMARK    1  A    between atoms: C_1  and  C_2
REMARK    2  A    between atoms: N_4  and  C_5
REMARK    3  A    between atoms: C_8  and  C_9
REMARK    4  A    between atoms: C_9  and  O_10
REMARK    5  A    between atoms: C_14  and  N_15
REMARK    6  A    between atoms: C_16  and  C_17
REMARK                            x       y       z     vdW  Elec       q    Type
REMARK                         _______ _______ _______ _____ _____    ______ ____
ROOT
ATOM      1  C   UNL     1       4.753  -3.273  25.806  0.00  0.00    +0.063 A 
ATOM      2  C   UNL     1       6.010  -2.855  25.300  0.00  0.00    +0.058 A 
ATOM      3  I   UNL     1       7.123  -1.412  26.432  0.00  0.00    -0.040 I 
ATOM      4  C   UNL     1       6.590  -3.509  24.191  0.00  0.00    +0.063 A 
ATOM      5  C   UNL     1       5.920  -4.636  23.641  0.00  0.00    +0.051 A 
ATOM      6  I   UNL     1       6.935  -5.731  22.080  0.00  0.00    -0.041 I 
ATOM      7  C   UNL     1       4.637  -5.021  24.092  0.00  0.00    +0.089 A 
ATOM      8  C   UNL     1       4.034  -4.286  25.130  0.00  0.00    +0.051 A 
ATOM      9  I   UNL     1       1.901  -4.483  25.482  0.00  0.00    -0.041 I 
ENDROOT
BRANCH   1  12
ATOM     10  C   UNL     1       3.851  -2.565  29.392  0.00  0.00    +0.109 C 
ATOM     11  C   UNL     1       4.426  -3.344  28.237  0.00  0.00    +0.214 C 
ATOM     12  N   UNL     1       4.263  -2.703  27.015  0.00  0.00    -0.284 N 
ATOM     13  H   UNL     1       4.324  -1.692  27.073  0.00  0.00    +0.155 HD
ATOM     14  O   UNL     1       5.016  -4.410  28.391  0.00  0.00    -0.276 OA
ENDBRANCH   1  12
BRANCH   4  15
ATOM     15  N   UNL     1       7.908  -3.236  23.745  0.00  0.00    -0.284 N 
ATOM     16  H   UNL     1       8.048  -2.306  23.355  0.00  0.00    +0.155 HD
ATOM     17  C   UNL     1       9.113  -3.637  24.257  0.00  0.00    +0.214 C 
ATOM     18  O   UNL     1      10.123  -3.045  23.864  0.00  0.00    -0.276 OA
ATOM     19  C   UNL     1       9.236  -4.723  25.287  0.00  0.00    +0.109 C 
ENDBRANCH   4  15
BRANCH   7  20
ATOM     20  C   UNL     1       3.932  -6.179  23.482  0.00  0.00    +0.339 C 
ATOM     21  O   UNL     1       3.169  -6.082  22.537  0.00  0.00    -0.245 OA
BRANCH  20  22
ATOM     22  O   UNL     1       4.261  -7.366  24.037  0.00  0.00    -0.477 OA
ATOM     23  H   UNL     1       4.494  -7.351  24.989  0.00  0.00    +0.295 HD
ENDBRANCH  20  22
ENDBRANCH   7  20
TORSDOF 4
ENDMDL
MODEL 4
REMARK VINA RESULT:      -5.0      3.838      6.535
REMARK  Name = 
REMARK  6 active torsions:
REMARK  status: ('A' for Active; 'I' for Inactive)
REMARK    1  A    between atoms: C_1  and  C_2
REMARK    2  A    between atoms: N_4  and  C_5
REMARK    3  A    between atoms: C_8  and  C_9
REMARK    4  A    between atoms: C_9  and  O_10
REMARK    5  A    between atoms: C_14  and  N_15
REMARK    6  A    between atoms: C_16  and  C_17
REMARK                            x       y       z     vdW  Elec       q    Type
REMARK                         _______ _______ _______ _____ _____    ______ ____
ROOT
ATOM      1  C   UNL     1       5.161  -5.815  24.262  0.00  0.00    +0.063 A 
ATOM      2  C   UNL     1       6.226  -5.250  23.515  0.00  0.00    +0.058 A 
ATOM      3  I   UNL     1       6.249  -5.569  21.393  0.00  0.00    -0.040 I 
ATOM      4  C   UNL     1       7.129  -4.351  24.122  0.00  0.00    +0.063 A 
ATOM      5  C   UNL     1       6.906  -3.975  25.475  0.00  0.00    +0.051 A 
ATOM      6  I   UNL     1       8.186  -2.446  26.305  0.00  0.00    -0.041 I 
ATOM      7  C   UNL     1       5.890  -4.580  26.249  0.00  0.00    +0.089 A 
ATOM      8  C   UNL     1       5.068  -5.552  25.648  0.00  0.00    +0.051 A 
ATOM      9  I   UNL     1       3.884  -6.874  26.898  0.00  0.00    -0.041 I 
ENDROOT
BRANCH   1  12
ATOM     10  C   UNL     1       2.044  -7.048  22.546  0.00  0.00    +0.109 C 
ATOM     11  C   UNL     1       2.932  -6.065  23.265  0.00  0.00    +0.214 C 
ATOM     12  N   UNL     1       4.175  -6.594  23.591  0.00  0.00    -0.284 N 
ATOM     13  H   UNL     1       4.533  -7.248  22.904  0.00  0.00    +0.155 HD
ATOM     14  O   UNL     1       2.588  -4.907  23.488  0.00  0.00    -0.276 OA
ENDBRANCH   1  12
BRANCH   4  15
ATOM     15  N   UNL     1       8.112  -3.639  23.387  0.00  0.00    -0.284 N 
ATOM     16  H   UNL     1       8.808  -4.220  22.925  0.00  0.00    +0.155 HD
ATOM     17  C   UNL     1       8.001  -2.489  22.654  0.00  0.00    +0.214 C 
ATOM     18  O   UNL     1       8.924  -2.218  21.879  0.00  0.00    -0.276 OA
ATOM     19  C   UNL     1       6.803  -1.588  22.732  0.00  0.00    +0.109 C 
ENDBRANCH   4  15
BRANCH   7  20
ATOM     20  C   UNL     1       5.691  -4.203  27.673  0.00  0.00    +0.339 C 
ATOM     21  O   UNL     1       4.925  -3.329  28.039  0.00  0.00    -0.245 OA
BRANCH  20  22
ATOM     22  O   UNL     1       6.400  -4.963  28.536  0.00  0.00    -0.477 OA
ATOM     23  H   UNL     1       6.497  -5.910  28.304  0.00  0.00    +0.295 HD
ENDBRANCH  20  22
ENDBRANCH   7  20
TORSDOF 4
ENDMDL
MODEL 5
REMARK VINA RESULT:      -4.9      2.941      4.728
REMARK  Name = 
REMARK  6 active torsions:
REMARK  status: ('A' for Active; 'I' for Inactive)
REMARK    1  A    between atoms: C_1  and  C_2
REMARK    2  A    between atoms: N_4  and  C_5
REMARK    3  A    between atoms: C_8  and  C_9
REMARK    4  A    between atoms: C_9  and  O_10
REMARK    5  A    between atoms: C_14  and  N_15
REMARK    6  A    between atoms: C_16  and  C_17
REMARK                            x       y       z     vdW  Elec       q    Type
REMARK                         _______ _______ _______ _____ _____    ______ ____
ROOT
ATOM      1  C   UNL     1       7.083  -2.783  23.934  0.00  0.00    +0.063 A 
ATOM      2  C   UNL     1       7.829  -1.600  23.695  0.00  0.00    +0.058 A 
ATOM      3  I   UNL     1       9.134  -1.558  21.993  0.00  0.00    -0.040 I 
ATOM      4  C   UNL     1       7.574  -0.429  24.441  0.00  0.00    +0.063 A 
ATOM      5  C   UNL     1       6.511  -0.444  25.385  0.00  0.00    +0.051 A 
ATOM      6  I   UNL     1       6.021   1.421  26.358  0.00  0.00    -0.041 I 
ATOM      7  C   UNL     1       5.805  -1.632  25.679  0.00  0.00    +0.089 A 
ATOM      8  C   UNL     1       6.150  -2.813  24.995  0.00  0.00    +0.051 A 
ATOM      9  I   UNL     1       5.495  -4.731  25.774  0.00  0.00    -0.041 I 
ENDROOT
BRANCH   1  12
ATOM     10  C   UNL     1       6.688  -5.412  21.267  0.00  0.00    +0.109 C 
ATOM     11  C   UNL     1       6.314  -4.202  22.085  0.00  0.00    +0.214 C 
ATOM     12  N   UNL     1       7.250  -3.900  23.067  0.00  0.00    -0.284 N 
ATOM     13  H   UNL     1       8.207  -4.096  22.793  0.00  0.00    +0.155 HD
ATOM     14  O   UNL     1       5.305  -3.539  21.858  0.00  0.00    -0.276 OA
ENDBRANCH   1  12
BRANCH   4  15
ATOM     15  N   UNL     1       8.178   0.818  24.138  0.00  0.00    -0.284 N 
ATOM     16  H   UNL     1       7.539   1.610  24.107  0.00  0.00    +0.155 HD
ATOM     17  C   UNL     1       9.406   1.311  24.490  0.00  0.00    +0.214 C 
ATOM     18  O   UNL     1       9.594   2.523  24.346  0.00  0.00    -0.276 OA
ATOM     19  C   UNL     1      10.492   0.449  25.066  0.00  0.00    +0.109 C 
ENDBRANCH   4  15
BRANCH   7  20
ATOM     20  C   UNL     1       4.720  -1.641  26.696  0.00  0.00    +0.339 C 
ATOM     21  O   UNL     1       4.918  -1.742  27.893  0.00  0.00    -0.245 OA
BRANCH  20  22
ATOM     22  O   UNL     1       3.487  -1.466  26.170  0.00  0.00    -0.477 OA
ATOM     23  H   UNL     1       3.318  -0.605  25.735  0.00  0.00    +0.295 HD
ENDBRANCH  20  22
ENDBRANCH   7  20
TORSDOF 4
ENDMDL
MODEL 6
REMARK VINA RESULT:      -4.8      4.075      6.653
REMARK  Name = 
REMARK  6 active torsions:
REMARK  status: ('A' for Active; 'I' for Inactive)
REMARK    1  A    between atoms: C_1  and  C_2
REMARK    2  A    between atoms: N_4  and  C_5
REMARK    3  A    between atoms: C_8  and  C_9
REMARK    4  A    between atoms: C_9  and  O_10
REMARK    5  A    between atoms: C_14  and  N_15
REMARK    6  A    between atoms: C_16  and  C_17
REMARK                            x       y       z     vdW  Elec       q    Type
REMARK                         _______ _______ _______ _____ _____    ______ ____
ROOT
ATOM      1  C   UNL     1       6.519  -3.548  24.301  0.00  0.00    +0.063 A 
ATOM      2  C   UNL     1       6.152  -3.207  25.628  0.00  0.00    +0.058 A 
ATOM      3  I   UNL     1       7.085  -1.496  26.523  0.00  0.00    -0.040 I 
ATOM      4  C   UNL     1       5.072  -3.858  26.263  0.00  0.00    +0.063 A 
ATOM      5  C   UNL     1       4.321  -4.810  25.519  0.00  0.00    +0.051 A 
ATOM      6  I   UNL     1       2.557  -5.633  26.454  0.00  0.00    -0.041 I 
ATOM      7  C   UNL     1       4.716  -5.207  24.222  0.00  0.00    +0.089 A 
ATOM      8  C   UNL     1       5.860  -4.618  23.651  0.00  0.00    +0.051 A 
ATOM      9  I   UNL     1       6.804  -5.555  21.936  0.00  0.00    -0.041 I 
ENDROOT
BRANCH   1  12
ATOM     10  C   UNL     1       9.733  -2.141  22.936  0.00  0.00    +0.109 C 
ATOM     11  C   UNL     1       8.859  -3.072  23.736  0.00  0.00    +0.214 C 
ATOM     12  N   UNL     1       7.506  -2.774  23.629  0.00  0.00    -0.284 N 
ATOM     13  H   UNL     1       7.236  -2.426  22.715  0.00  0.00    +0.155 HD
ATOM     14  O   UNL     1       9.315  -4.019  24.372  0.00  0.00    -0.276 OA
ENDBRANCH   1  12
BRANCH   4  15
ATOM     15  N   UNL     1       4.566  -3.450  27.523  0.00  0.00    -0.284 N 
ATOM     16  H   UNL     1       3.657  -2.993  27.495  0.00  0.00    +0.155 HD
ATOM     17  C   UNL     1       4.674  -4.045  28.751  0.00  0.00    +0.214 C 
ATOM     18  O   UNL     1       3.916  -3.650  29.643  0.00  0.00    -0.276 OA
ATOM     19  C   UNL     1       5.638  -5.163  29.029  0.00  0.00    +0.109 C 
ENDBRANCH   4  15
BRANCH   7  20
ATOM     20  C   UNL     1       3.942  -6.230  23.470  0.00  0.00    +0.339 C 
ATOM     21  O   UNL     1       3.106  -5.959  22.628  0.00  0.00    -0.245 OA
BRANCH  20  22
ATOM     22  O   UNL     1       4.296  -7.500  23.768  0.00  0.00    -0.477 OA
ATOM     23  H   UNL     1       4.979  -7.907  23.196  0.00  0.00    +0.295 HD
ENDBRANCH  20  22
ENDBRANCH   7  20
TORSDOF 4
ENDMDL
MODEL 7
REMARK VINA RESULT:      -4.8      2.984      6.450
REMARK  Name = 
REMARK  6 active torsions:
REMARK  status: ('A' for Active; 'I' for Inactive)
REMARK    1  A    between atoms: C_1  and  C_2
REMARK    2  A    between atoms: N_4  and  C_5
REMARK    3  A    between atoms: C_8  and  C_9
REMARK    4  A    between atoms: C_9  and  O_10
REMARK    5  A    between atoms: C_14  and  N_15
REMARK    6  A    between atoms: C_16  and  C_17
REMARK                            x       y       z     vdW  Elec       q    Type
REMARK                         _______ _______ _______ _____ _____    ______ ____
ROOT
ATOM      1  C   UNL     1       7.300   0.169  23.793  0.00  0.00    +0.063 A 
ATOM      2  C   UNL     1       7.716  -1.104  23.327  0.00  0.00    +0.058 A 
ATOM      3  I   UNL     1       9.382  -1.189  21.979  0.00  0.00    -0.040 I 
ATOM      4  C   UNL     1       7.174  -2.283  23.883  0.00  0.00    +0.063 A 
ATOM      5  C   UNL     1       6.256  -2.165  24.963  0.00  0.00    +0.051 A 
ATOM      6  I   UNL     1       5.606  -3.990  25.919  0.00  0.00    -0.041 I 
ATOM      7  C   UNL     1       5.783  -0.904  25.392  0.00  0.00    +0.089 A 
ATOM      8  C   UNL     1       6.261   0.254  24.749  0.00  0.00    +0.051 A 
ATOM      9  I   UNL     1       5.192   2.128  24.986  0.00  0.00    -0.041 I 
ENDROOT
BRANCH   1  12
ATOM     10  C   UNL     1       9.625   3.098  23.352  0.00  0.00    +0.109 C 
ATOM     11  C   UNL     1       9.049   1.876  24.021  0.00  0.00    +0.214 C 
ATOM     12  N   UNL     1       7.971   1.336  23.329  0.00  0.00    -0.284 N 
ATOM     13  H   UNL     1       8.051   1.417  22.321  0.00  0.00    +0.155 HD
ATOM     14  O   UNL     1       9.528   1.398  25.045  0.00  0.00    -0.276 OA
ENDBRANCH   1  12
BRANCH   4  15
ATOM     15  N   UNL     1       7.666  -3.575  23.567  0.00  0.00    -0.284 N 
ATOM     16  H   UNL     1       8.036  -4.101  24.356  0.00  0.00    +0.155 HD
ATOM     17  C   UNL     1       7.213  -4.492  22.656  0.00  0.00    +0.214 C 
ATOM     18  O   UNL     1       7.631  -5.649  22.760  0.00  0.00    -0.276 OA
ATOM     19  C   UNL     1       6.218  -4.149  21.585  0.00  0.00    +0.109 C 
ENDBRANCH   4  15
BRANCH   7  20
ATOM     20  C   UNL     1       4.795  -0.797  26.498  0.00  0.00    +0.339 C 
ATOM     21  O   UNL     1       3.594  -0.925  26.343  0.00  0.00    -0.245 OA
BRANCH  20  22
ATOM     22  O   UNL     1       5.361  -0.601  27.709  0.00  0.00    -0.477 OA
ATOM     23  H   UNL     1       5.130  -1.248  28.407  0.00  0.00    +0.295 HD
ENDBRANCH  20  22
ENDBRANCH   7  20
TORSDOF 4
ENDMDL
MODEL 8
REMARK VINA RESULT:      -4.7      2.334      2.727
REMARK  Name = 
REMARK  6 active torsions:
REMARK  status: ('A' for Active; 'I' for Inactive)
REMARK    1  A    between atoms: C_1  and  C_2
REMARK    2  A    between atoms: N_4  and  C_5
REMARK    3  A    between atoms: C_8  and  C_9
REMARK    4  A    between atoms: C_9  and  O_10
REMARK    5  A    between atoms: C_14  and  N_15
REMARK    6  A    between atoms: C_16  and  C_17
REMARK                            x       y       z     vdW  Elec       q    Type
REMARK                         _______ _______ _______ _____ _____    ______ ____
ROOT
ATOM      1  C   UNL     1       7.702  -0.086  24.661  0.00  0.00    +0.063 A 
ATOM      2  C   UNL     1       6.685   0.811  25.077  0.00  0.00    +0.058 A 
ATOM      3  I   UNL     1       5.152   0.065  26.379  0.00  0.00    -0.040 I 
ATOM      4  C   UNL     1       6.788   2.192  24.797  0.00  0.00    +0.063 A 
ATOM      5  C   UNL     1       7.963   2.667  24.152  0.00  0.00    +0.051 A 
ATOM      6  I   UNL     1       8.175   4.804  23.924  0.00  0.00    -0.041 I 
ATOM      7  C   UNL     1       8.952   1.777  23.674  0.00  0.00    +0.089 A 
ATOM      8  C   UNL     1       8.773   0.395  23.874  0.00  0.00    +0.051 A 
ATOM      9  I   UNL     1       9.950  -1.014  22.715  0.00  0.00    -0.041 I 
ENDROOT
BRANCH   1  12
ATOM     10  C   UNL     1       8.127  -3.336  26.515  0.00  0.00    +0.109 C 
ATOM     11  C   UNL     1       8.323  -1.869  26.230  0.00  0.00    +0.214 C 
ATOM     12  N   UNL     1       7.652  -1.443  25.089  0.00  0.00    -0.284 N 
ATOM     13  H   UNL     1       6.766  -1.913  24.937  0.00  0.00    +0.155 HD
ATOM     14  O   UNL     1       8.973  -1.135  26.969  0.00  0.00    -0.276 OA
ENDBRANCH   1  12
BRANCH   4  15
ATOM     15  N   UNL     1       5.884   3.149  25.322  0.00  0.00    -0.284 N 
ATOM     16  H   UNL     1       6.312   3.889  25.875  0.00  0.00    +0.155 HD
ATOM     17  C   UNL     1       4.739   3.669  24.781  0.00  0.00    +0.214 C 
ATOM     18  O   UNL     1       4.276   4.689  25.302  0.00  0.00    -0.276 OA
ATOM     19  C   UNL     1       4.064   3.072  23.579  0.00  0.00    +0.109 C 
ENDBRANCH   4  15
BRANCH   7  20
ATOM     20  C   UNL     1      10.158   2.286  22.969  0.00  0.00    +0.339 C 
ATOM     21  O   UNL     1      11.197   2.575  23.535  0.00  0.00    -0.245 OA
BRANCH  20  22
ATOM     22  O   UNL     1      10.013   2.345  21.627  0.00  0.00    -0.477 OA
ATOM     23  H   UNL     1       9.254   2.867  21.294  0.00  0.00    +0.295 HD
ENDBRANCH  20  22
ENDBRANCH   7  20
TORSDOF 4
ENDMDL
MODEL 9
REMARK VINA RESULT:      -4.7      2.310      2.712
REMARK  Name = 
REMARK  6 active torsions:
REMARK  status: ('A' for Active; 'I' for Inactive)
REMARK    1  A    between atoms: C_1  and  C_2
REMARK    2  A    between atoms: N_4  and  C_5
REMARK    3  A    between atoms: C_8  and  C_9
REMARK    4  A    between atoms: C_9  and  O_10
REMARK    5  A    between atoms: C_14  and  N_15
REMARK    6  A    between atoms: C_16  and  C_17
REMARK                            x       y       z     vdW  Elec       q    Type
REMARK                         _______ _______ _______ _____ _____    ______ ____
ROOT
ATOM      1  C   UNL     1       6.075  -3.473  25.189  0.00  0.00    +0.063 A 
ATOM      2  C   UNL     1       5.899  -2.341  26.026  0.00  0.00    +0.058 A 
ATOM      3  I   UNL     1       4.449  -2.470  27.602  0.00  0.00    -0.040 I 
ATOM      4  C   UNL     1       6.782  -1.243  25.942  0.00  0.00    +0.063 A 
ATOM      5  C   UNL     1       7.887  -1.327  25.051  0.00  0.00    +0.051 A 
ATOM      6  I   UNL     1       9.326   0.283  25.099  0.00  0.00    -0.041 I 
ATOM      7  C   UNL     1       8.036  -2.418  24.165  0.00  0.00    +0.089 A 
ATOM      8  C   UNL     1       7.081  -3.452  24.196  0.00  0.00    +0.051 A 
ATOM      9  I   UNL     1       6.955  -4.842  22.534  0.00  0.00    -0.041 I 
ENDROOT
BRANCH   1  12
ATOM     10  C   UNL     1       4.750  -6.853  26.185  0.00  0.00    +0.109 C 
ATOM     11  C   UNL     1       5.767  -5.749  26.052  0.00  0.00    +0.214 C 
ATOM     12  N   UNL     1       5.270  -4.628  25.399  0.00  0.00    -0.284 N 
ATOM     13  H   UNL     1       4.291  -4.445  25.591  0.00  0.00    +0.155 HD
ATOM     14  O   UNL     1       6.899  -5.836  26.522  0.00  0.00    -0.276 OA
ENDBRANCH   1  12
BRANCH   4  15
ATOM     15  N   UNL     1       6.746  -0.160  26.857  0.00  0.00    -0.284 N 
ATOM     16  H   UNL     1       7.618   0.014  27.354  0.00  0.00    +0.155 HD
ATOM     17  C   UNL     1       6.086   1.037  26.781  0.00  0.00    +0.214 C 
ATOM     18  O   UNL     1       6.431   1.927  27.565  0.00  0.00    -0.276 OA
ATOM     19  C   UNL     1       5.007   1.306  25.772  0.00  0.00    +0.109 C 
ENDBRANCH   4  15
BRANCH   7  20
ATOM     20  C   UNL     1       9.177  -2.475  23.214  0.00  0.00    +0.339 C 
ATOM     21  O   UNL     1       9.150  -1.986  22.099  0.00  0.00    -0.245 OA
BRANCH  20  22
ATOM     22  O   UNL     1      10.276  -3.073  23.724  0.00  0.00    -0.477 OA
ATOM     23  H   UNL     1      10.231  -4.046  23.833  0.00  0.00    +0.295 HD
ENDBRANCH  20  22
ENDBRANCH   7  20
TORSDOF 4
ENDMDL
