MODEL 1
REMARK VINA RESULT:      -6.4      0.000      0.000
REMARK  Name = 
REMARK  7 active torsions:
REMARK  status: ('A' for Active; 'I' for Inactive)
REMARK    1  A    between atoms: C_1  and  C_2
REMARK    2  A    between atoms: C_2  and  C_3
REMARK    3  A    between atoms: C_2  and  C_4
REMARK    4  A    between atoms: C_2  and  N_5
REMARK    5  A    between atoms: C_7  and  C_15
REMARK    6  A    between atoms: C_9  and  N_10
REMARK    7  A    between atoms: C_19  and  O_20
REMARK                            x       y       z     vdW  Elec       q    Type
REMARK                         _______ _______ _______ _____ _____    ______ ____
ROOT
ATOM      1  N   UNL     1       8.632   1.379  23.771  0.00  0.00    -0.240 N 
ATOM      2  C   UNL     1       7.699   2.163  23.135  0.00  0.00    +0.164 A 
ATOM      3  C   UNL     1       8.246   3.435  23.046  0.00  0.00    +0.086 A 
ATOM      4  C   UNL     1       7.444   4.417  22.440  0.00  0.00    +0.131 A 
ATOM      5  N   UNL     1       6.229   4.065  21.971  0.00  0.00    -0.220 NA
ATOM      6  C   UNL     1       5.825   2.794  22.119  0.00  0.00    +0.225 A 
ATOM      7  C   UNL     1       9.532   3.322  23.665  0.00  0.00    +0.105 A 
ATOM      8  N   UNL     1       6.483   1.784  22.700  0.00  0.00    -0.216 NA
ATOM      9  N   UNL     1       9.731   2.081  24.140  0.00  0.00    -0.168 NA
ENDROOT
BRANCH   7  10
ATOM     10  C   UNL     1      10.557   4.351  23.875  0.00  0.00    +0.006 A 
ATOM     11  C   UNL     1      11.872   4.167  23.438  0.00  0.00    +0.055 A 
ATOM     12  C   UNL     1      12.796   5.203  23.540  0.00  0.00    +0.117 A 
ATOM     13  C   UNL     1      12.462   6.405  24.150  0.00  0.00    +0.045 A 
ATOM     14  C   UNL     1      11.175   6.575  24.660  0.00  0.00    +0.004 A 
ATOM     15  C   UNL     1      10.226   5.558  24.514  0.00  0.00    +0.010 A 
BRANCH  12  16
ATOM     16  O   UNL     1      14.031   4.999  22.998  0.00  0.00    -0.507 OA
ATOM     17  H   UNL     1      14.061   4.108  22.614  0.00  0.00    +0.292 HD
ENDBRANCH  12  16
ENDBRANCH   7  10
BRANCH   1  19
ATOM     18  C   UNL     1       9.820  -0.460  24.881  0.00  0.00    +0.036 C 
ATOM     19  C   UNL     1       8.519  -0.036  24.178  0.00  0.00    +0.058 C 
ATOM     20  C   UNL     1       7.325  -0.293  25.122  0.00  0.00    +0.036 C 
ATOM     21  C   UNL     1       8.306  -0.944  22.941  0.00  0.00    +0.036 C 
ENDBRANCH   1  19
BRANCH   4  22
ATOM     22  N   UNL     1       7.777   5.753  22.287  0.00  0.00    -0.342 N 
ATOM     23  H   UNL     1       8.431   5.880  21.523  0.00  0.00    +0.144 HD
ATOM     24  H   UNL     1       7.006   6.407  22.317  0.00  0.00    +0.144 HD
ENDBRANCH   4  22
TORSDOF 4
ENDMDL
MODEL 2
REMARK VINA RESULT:      -6.4      4.220      7.716
REMARK  Name = 
REMARK  7 active torsions:
REMARK  status: ('A' for Active; 'I' for Inactive)
REMARK    1  A    between atoms: C_1  and  C_2
REMARK    2  A    between atoms: C_2  and  C_3
REMARK    3  A    between atoms: C_2  and  C_4
REMARK    4  A    between atoms: C_2  and  N_5
REMARK    5  A    between atoms: C_7  and  C_15
REMARK    6  A    between atoms: C_9  and  N_10
REMARK    7  A    between atoms: C_19  and  O_20
REMARK                            x       y       z     vdW  Elec       q    Type
REMARK                         _______ _______ _______ _____ _____    ______ ____
ROOT
ATOM      1  N   UNL     1       7.829   0.226  23.188  0.00  0.00    -0.240 N 
ATOM      2  C   UNL     1       6.808   0.228  24.109  0.00  0.00    +0.164 A 
ATOM      3  C   UNL     1       6.361  -1.082  24.206  0.00  0.00    +0.086 A 
ATOM      4  C   UNL     1       5.292  -1.310  25.090  0.00  0.00    +0.131 A 
ATOM      5  N   UNL     1       4.793  -0.271  25.789  0.00  0.00    -0.220 NA
ATOM      6  C   UNL     1       5.325   0.947  25.601  0.00  0.00    +0.225 A 
ATOM      7  C   UNL     1       7.183  -1.815  23.294  0.00  0.00    +0.105 A 
ATOM      8  N   UNL     1       6.318   1.291  24.773  0.00  0.00    -0.216 NA
ATOM      9  N   UNL     1       8.036  -1.000  22.650  0.00  0.00    -0.168 NA
ENDROOT
BRANCH   7  10
ATOM     10  C   UNL     1       7.159  -3.245  22.963  0.00  0.00    +0.006 A 
ATOM     11  C   UNL     1       6.437  -3.726  21.867  0.00  0.00    +0.055 A 
ATOM     12  C   UNL     1       6.525  -5.066  21.501  0.00  0.00    +0.117 A 
ATOM     13  C   UNL     1       7.260  -5.969  22.260  0.00  0.00    +0.045 A 
ATOM     14  C   UNL     1       7.923  -5.518  23.400  0.00  0.00    +0.004 A 
ATOM     15  C   UNL     1       7.881  -4.163  23.743  0.00  0.00    +0.010 A 
BRANCH  12  16
ATOM     16  O   UNL     1       5.885  -5.451  20.361  0.00  0.00    -0.507 OA
ATOM     17  H   UNL     1       5.231  -6.134  20.584  0.00  0.00    +0.292 HD
ENDBRANCH  12  16
ENDBRANCH   7  10
BRANCH   1  19
ATOM     18  C   UNL     1       7.657   2.270  21.840  0.00  0.00    +0.036 C 
ATOM     19  C   UNL     1       8.597   1.374  22.666  0.00  0.00    +0.058 C 
ATOM     20  C   UNL     1       9.246   2.217  23.784  0.00  0.00    +0.036 C 
ATOM     21  C   UNL     1       9.749   0.891  21.751  0.00  0.00    +0.036 C 
ENDBRANCH   1  19
BRANCH   4  22
ATOM     22  N   UNL     1       4.667  -2.528  25.307  0.00  0.00    -0.342 N 
ATOM     23  H   UNL     1       5.344  -3.281  25.352  0.00  0.00    +0.144 HD
ATOM     24  H   UNL     1       3.952  -2.537  26.022  0.00  0.00    +0.144 HD
ENDBRANCH   4  22
TORSDOF 4
ENDMDL
MODEL 3
REMARK VINA RESULT:      -6.3      4.078      6.342
REMARK  Name = 
REMARK  7 active torsions:
REMARK  status: ('A' for Active; 'I' for Inactive)
REMARK    1  A    between atoms: C_1  and  C_2
REMARK    2  A    between atoms: C_2  and  C_3
REMARK    3  A    between atoms: C_2  and  C_4
REMARK    4  A    between atoms: C_2  and  N_5
REMARK    5  A    between atoms: C_7  and  C_15
REMARK    6  A    between atoms: C_9  and  N_10
REMARK    7  A    between atoms: C_19  and  O_20
REMARK                            x       y       z     vdW  Elec       q    Type
REMARK                         _______ _______ _______ _____ _____    ______ ____
ROOT
ATOM      1  N   UNL     1       6.918  -3.641  23.076  0.00  0.00    -0.240 N 
ATOM      2  C   UNL     1       7.469  -3.559  24.333  0.00  0.00    +0.164 A 
ATOM      3  C   UNL     1       7.850  -2.237  24.511  0.00  0.00    +0.086 A 
ATOM      4  C   UNL     1       8.463  -1.925  25.737  0.00  0.00    +0.131 A 
ATOM      5  N   UNL     1       8.619  -2.903  26.653  0.00  0.00    -0.220 NA
ATOM      6  C   UNL     1       8.199  -4.142  26.350  0.00  0.00    +0.225 A 
ATOM      7  C   UNL     1       7.485  -1.585  23.291  0.00  0.00    +0.105 A 
ATOM      8  N   UNL     1       7.631  -4.563  25.214  0.00  0.00    -0.216 NA
ATOM      9  N   UNL     1       6.963  -2.460  22.414  0.00  0.00    -0.168 NA
ENDROOT
BRANCH   7  10
ATOM     10  C   UNL     1       7.658  -0.181  22.898  0.00  0.00    +0.006 A 
ATOM     11  C   UNL     1       8.899   0.310  22.481  0.00  0.00    +0.055 A 
ATOM     12  C   UNL     1       9.013   1.610  21.999  0.00  0.00    +0.117 A 
ATOM     13  C   UNL     1       7.924   2.473  22.000  0.00  0.00    +0.045 A 
ATOM     14  C   UNL     1       6.698   2.021  22.485  0.00  0.00    +0.004 A 
ATOM     15  C   UNL     1       6.563   0.699  22.921  0.00  0.00    +0.010 A 
BRANCH  12  16
ATOM     16  O   UNL     1      10.225   1.994  21.506  0.00  0.00    -0.507 OA
ATOM     17  H   UNL     1      10.635   2.614  22.132  0.00  0.00    +0.292 HD
ENDBRANCH  12  16
ENDBRANCH   7  10
BRANCH   1  19
ATOM     18  C   UNL     1       5.998  -4.437  20.945  0.00  0.00    +0.036 C 
ATOM     19  C   UNL     1       6.422  -4.838  22.368  0.00  0.00    +0.058 C 
ATOM     20  C   UNL     1       7.474  -5.963  22.285  0.00  0.00    +0.036 C 
ATOM     21  C   UNL     1       5.194  -5.435  23.099  0.00  0.00    +0.036 C 
ENDBRANCH   1  19
BRANCH   4  22
ATOM     22  N   UNL     1       8.956  -0.683  26.104  0.00  0.00    -0.342 N 
ATOM     23  H   UNL     1       9.968  -0.689  26.138  0.00  0.00    +0.144 HD
ATOM     24  H   UNL     1       8.536   0.113  25.642  0.00  0.00    +0.144 HD
ENDBRANCH   4  22
TORSDOF 4
ENDMDL
MODEL 4
REMARK VINA RESULT:      -6.3      4.225      7.345
REMARK  Name = 
REMARK  7 active torsions:
REMARK  status: ('A' for Active; 'I' for Inactive)
REMARK    1  A    between atoms: C_1  and  C_2
REMARK    2  A    between atoms: C_2  and  C_3
REMARK    3  A    between atoms: C_2  and  C_4
REMARK    4  A    between atoms: C_2  and  N_5
REMARK    5  A    between atoms: C_7  and  C_15
REMARK    6  A    between atoms: C_9  and  N_10
REMARK    7  A    between atoms: C_19  and  O_20
REMARK                            x       y       z     vdW  Elec       q    Type
REMARK                         _______ _______ _______ _____ _____    ______ ____
ROOT
ATOM      1  N   UNL     1       6.623   0.464  24.268  0.00  0.00    -0.240 N 
ATOM      2  C   UNL     1       7.659   0.797  23.427  0.00  0.00    +0.164 A 
ATOM      3  C   UNL     1       8.070  -0.382  22.822  0.00  0.00    +0.086 A 
ATOM      4  C   UNL     1       9.147  -0.279  21.924  0.00  0.00    +0.131 A 
ATOM      5  N   UNL     1       9.687   0.936  21.694  0.00  0.00    -0.220 NA
ATOM      6  C   UNL     1       9.186   1.997  22.346  0.00  0.00    +0.225 A 
ATOM      7  C   UNL     1       7.213  -1.390  23.367  0.00  0.00    +0.105 A 
ATOM      8  N   UNL     1       8.189   2.019  23.238  0.00  0.00    -0.216 NA
ATOM      9  N   UNL     1       6.373  -0.868  24.276  0.00  0.00    -0.168 NA
ENDROOT
BRANCH   7  10
ATOM     10  C   UNL     1       7.191  -2.834  23.106  0.00  0.00    +0.006 A 
ATOM     11  C   UNL     1       6.461  -3.369  22.040  0.00  0.00    +0.055 A 
ATOM     12  C   UNL     1       6.551  -4.725  21.739  0.00  0.00    +0.117 A 
ATOM     13  C   UNL     1       7.295  -5.588  22.534  0.00  0.00    +0.045 A 
ATOM     14  C   UNL     1       7.967  -5.081  23.645  0.00  0.00    +0.004 A 
ATOM     15  C   UNL     1       7.923  -3.711  23.923  0.00  0.00    +0.010 A 
BRANCH  12  16
ATOM     16  O   UNL     1       5.902  -5.166  20.624  0.00  0.00    -0.507 OA
ATOM     17  H   UNL     1       5.634  -6.089  20.763  0.00  0.00    +0.292 HD
ENDBRANCH  12  16
ENDBRANCH   7  10
BRANCH   1  19
ATOM     18  C   UNL     1       5.001   0.463  26.109  0.00  0.00    +0.036 C 
ATOM     19  C   UNL     1       5.880   1.337  25.198  0.00  0.00    +0.058 C 
ATOM     20  C   UNL     1       6.808   2.207  26.072  0.00  0.00    +0.036 C 
ATOM     21  C   UNL     1       4.966   2.314  24.418  0.00  0.00    +0.036 C 
ENDBRANCH   1  19
BRANCH   4  22
ATOM     22  N   UNL     1       9.741  -1.331  21.246  0.00  0.00    -0.342 N 
ATOM     23  H   UNL     1      10.141  -1.019  20.369  0.00  0.00    +0.144 HD
ATOM     24  H   UNL     1      10.323  -1.943  21.802  0.00  0.00    +0.144 HD
ENDBRANCH   4  22
TORSDOF 4
ENDMDL
MODEL 5
REMARK VINA RESULT:      -6.1      3.992      7.118
REMARK  Name = 
REMARK  7 active torsions:
REMARK  status: ('A' for Active; 'I' for Inactive)
REMARK    1  A    between atoms: C_1  and  C_2
REMARK    2  A    between atoms: C_2  and  C_3
REMARK    3  A    between atoms: C_2  and  C_4
REMARK    4  A    between atoms: C_2  and  N_5
REMARK    5  A    between atoms: C_7  and  C_15
REMARK    6  A    between atoms: C_9  and  N_10
REMARK    7  A    between atoms: C_19  and  O_20
REMARK                            x       y       z     vdW  Elec       q    Type
REMARK                         _______ _______ _______ _____ _____    ______ ____
ROOT
ATOM      1  N   UNL     1       6.586   0.533  24.294  0.00  0.00    -0.240 N 
ATOM      2  C   UNL     1       7.579   0.934  23.431  0.00  0.00    +0.164 A 
ATOM      3  C   UNL     1       8.039  -0.212  22.799  0.00  0.00    +0.086 A 
ATOM      4  C   UNL     1       9.084  -0.037  21.875  0.00  0.00    +0.131 A 
ATOM      5  N   UNL     1       9.549   1.209  21.648  0.00  0.00    -0.220 NA
ATOM      6  C   UNL     1       9.008   2.232  22.328  0.00  0.00    +0.225 A 
ATOM      7  C   UNL     1       7.254  -1.273  23.352  0.00  0.00    +0.105 A 
ATOM      8  N   UNL     1       8.035   2.186  23.246  0.00  0.00    -0.216 NA
ATOM      9  N   UNL     1       6.410  -0.810  24.290  0.00  0.00    -0.168 NA
ENDROOT
BRANCH   7  10
ATOM     10  C   UNL     1       7.305  -2.713  23.071  0.00  0.00    +0.006 A 
ATOM     11  C   UNL     1       8.180  -3.557  23.761  0.00  0.00    +0.055 A 
ATOM     12  C   UNL     1       8.128  -4.934  23.564  0.00  0.00    +0.117 A 
ATOM     13  C   UNL     1       7.270  -5.492  22.624  0.00  0.00    +0.045 A 
ATOM     14  C   UNL     1       6.447  -4.654  21.873  0.00  0.00    +0.004 A 
ATOM     15  C   UNL     1       6.457  -3.274  22.103  0.00  0.00    +0.010 A 
BRANCH  12  16
ATOM     16  O   UNL     1       8.930  -5.712  24.345  0.00  0.00    -0.507 OA
ATOM     17  H   UNL     1       9.832  -5.354  24.321  0.00  0.00    +0.292 HD
ENDBRANCH  12  16
ENDBRANCH   7  10
BRANCH   1  19
ATOM     18  C   UNL     1       6.804   2.079  26.187  0.00  0.00    +0.036 C 
ATOM     19  C   UNL     1       5.820   1.352  25.255  0.00  0.00    +0.058 C 
ATOM     20  C   UNL     1       4.913   2.392  24.565  0.00  0.00    +0.036 C 
ATOM     21  C   UNL     1       4.892   0.459  26.115  0.00  0.00    +0.036 C 
ENDBRANCH   1  19
BRANCH   4  22
ATOM     22  N   UNL     1       9.717  -1.046  21.167  0.00  0.00    -0.342 N 
ATOM     23  H   UNL     1      10.384  -1.537  21.751  0.00  0.00    +0.144 HD
ATOM     24  H   UNL     1       9.118  -1.630  20.599  0.00  0.00    +0.144 HD
ENDBRANCH   4  22
TORSDOF 4
ENDMDL
MODEL 6
REMARK VINA RESULT:      -6.0      3.759      7.259
REMARK  Name = 
REMARK  7 active torsions:
REMARK  status: ('A' for Active; 'I' for Inactive)
REMARK    1  A    between atoms: C_1  and  C_2
REMARK    2  A    between atoms: C_2  and  C_3
REMARK    3  A    between atoms: C_2  and  C_4
REMARK    4  A    between atoms: C_2  and  N_5
REMARK    5  A    between atoms: C_7  and  C_15
REMARK    6  A    between atoms: C_9  and  N_10
REMARK    7  A    between atoms: C_19  and  O_20
REMARK                            x       y       z     vdW  Elec       q    Type
REMARK                         _______ _______ _______ _____ _____    ______ ____
ROOT
ATOM      1  N   UNL     1       7.993   0.665  23.379  0.00  0.00    -0.240 N 
ATOM      2  C   UNL     1       6.897   0.646  24.210  0.00  0.00    +0.164 A 
ATOM      3  C   UNL     1       6.543  -0.686  24.366  0.00  0.00    +0.086 A 
ATOM      4  C   UNL     1       5.421  -0.942  25.172  0.00  0.00    +0.131 A 
ATOM      5  N   UNL     1       4.785   0.098  25.751  0.00  0.00    -0.220 NA
ATOM      6  C   UNL     1       5.239   1.340  25.517  0.00  0.00    +0.225 A 
ATOM      7  C   UNL     1       7.495  -1.410  23.581  0.00  0.00    +0.105 A 
ATOM      8  N   UNL     1       6.272   1.708  24.752  0.00  0.00    -0.216 NA
ATOM      9  N   UNL     1       8.338  -0.573  22.952  0.00  0.00    -0.168 NA
ENDROOT
BRANCH   7  10
ATOM     10  C   UNL     1       7.608  -2.856  23.355  0.00  0.00    +0.006 A 
ATOM     11  C   UNL     1       8.521  -3.635  24.073  0.00  0.00    +0.055 A 
ATOM     12  C   UNL     1       8.528  -5.019  23.930  0.00  0.00    +0.117 A 
ATOM     13  C   UNL     1       7.692  -5.649  23.016  0.00  0.00    +0.045 A 
ATOM     14  C   UNL     1       6.831  -4.878  22.238  0.00  0.00    +0.004 A 
ATOM     15  C   UNL     1       6.782  -3.491  22.414  0.00  0.00    +0.010 A 
BRANCH  12  16
ATOM     16  O   UNL     1       9.365  -5.731  24.737  0.00  0.00    -0.507 OA
ATOM     17  H   UNL     1       8.849  -6.407  25.206  0.00  0.00    +0.292 HD
ENDBRANCH  12  16
ENDBRANCH   7  10
BRANCH   1  19
ATOM     18  C   UNL     1       7.739   2.682  22.003  0.00  0.00    +0.036 C 
ATOM     19  C   UNL     1       8.715   1.835  22.839  0.00  0.00    +0.058 C 
ATOM     20  C   UNL     1       9.334   2.717  23.943  0.00  0.00    +0.036 C 
ATOM     21  C   UNL     1       9.883   1.383  21.928  0.00  0.00    +0.036 C 
ENDBRANCH   1  19
BRANCH   4  22
ATOM     22  N   UNL     1       4.873  -2.189  25.426  0.00  0.00    -0.342 N 
ATOM     23  H   UNL     1       4.161  -2.420  24.743  0.00  0.00    +0.144 HD
ATOM     24  H   UNL     1       5.532  -2.926  25.640  0.00  0.00    +0.144 HD
ENDBRANCH   4  22
TORSDOF 4
ENDMDL
MODEL 7
REMARK VINA RESULT:      -6.0      3.614      5.401
REMARK  Name = 
REMARK  7 active torsions:
REMARK  status: ('A' for Active; 'I' for Inactive)
REMARK    1  A    between atoms: C_1  and  C_2
REMARK    2  A    between atoms: C_2  and  C_3
REMARK    3  A    between atoms: C_2  and  C_4
REMARK    4  A    between atoms: C_2  and  N_5
REMARK    5  A    between atoms: C_7  and  C_15
REMARK    6  A    between atoms: C_9  and  N_10
REMARK    7  A    between atoms: C_19  and  O_20
REMARK                            x       y       z     vdW  Elec       q    Type
REMARK                         _______ _______ _______ _____ _____    ______ ____
ROOT
ATOM      1  N   UNL     1       7.400  -3.306  25.183  0.00  0.00    -0.240 N 
ATOM      2  C   UNL     1       6.328  -2.500  25.484  0.00  0.00    +0.164 A 
ATOM      3  C   UNL     1       6.689  -1.210  25.120  0.00  0.00    +0.086 A 
ATOM      4  C   UNL     1       5.737  -0.205  25.362  0.00  0.00    +0.131 A 
ATOM      5  N   UNL     1       4.549  -0.551  25.898  0.00  0.00    -0.220 NA
ATOM      6  C   UNL     1       4.329  -1.841  26.199  0.00  0.00    +0.225 A 
ATOM      7  C   UNL     1       8.017  -1.337  24.601  0.00  0.00    +0.105 A 
ATOM      8  N   UNL     1       5.163  -2.875  26.043  0.00  0.00    -0.216 NA
ATOM      9  N   UNL     1       8.450  -2.606  24.689  0.00  0.00    -0.168 NA
ENDROOT
BRANCH   7  10
ATOM     10  C   UNL     1       8.913  -0.301  24.076  0.00  0.00    +0.006 A 
ATOM     11  C   UNL     1       8.686   0.296  22.832  0.00  0.00    +0.055 A 
ATOM     12  C   UNL     1       9.477   1.359  22.408  0.00  0.00    +0.117 A 
ATOM     13  C   UNL     1      10.557   1.795  23.165  0.00  0.00    +0.045 A 
ATOM     14  C   UNL     1      10.843   1.159  24.372  0.00  0.00    +0.004 A 
ATOM     15  C   UNL     1      10.020   0.124  24.829  0.00  0.00    +0.010 A 
BRANCH  12  16
ATOM     16  O   UNL     1       9.138   1.968  21.236  0.00  0.00    -0.507 OA
ATOM     17  H   UNL     1       8.272   1.635  20.950  0.00  0.00    +0.292 HD
ENDBRANCH  12  16
ENDBRANCH   7  10
BRANCH   1  19
ATOM     18  C   UNL     1       8.925  -5.207  24.890  0.00  0.00    +0.036 C 
ATOM     19  C   UNL     1       7.562  -4.752  25.439  0.00  0.00    +0.058 C 
ATOM     20  C   UNL     1       7.475  -5.107  26.938  0.00  0.00    +0.036 C 
ATOM     21  C   UNL     1       6.448  -5.560  24.729  0.00  0.00    +0.036 C 
ENDBRANCH   1  19
BRANCH   4  22
ATOM     22  N   UNL     1       5.906   1.148  25.114  0.00  0.00    -0.342 N 
ATOM     23  H   UNL     1       5.375   1.707  25.771  0.00  0.00    +0.144 HD
ATOM     24  H   UNL     1       6.857   1.451  24.948  0.00  0.00    +0.144 HD
ENDBRANCH   4  22
TORSDOF 4
ENDMDL
MODEL 8
REMARK VINA RESULT:      -6.0      5.158      7.587
REMARK  Name = 
REMARK  7 active torsions:
REMARK  status: ('A' for Active; 'I' for Inactive)
REMARK    1  A    between atoms: C_1  and  C_2
REMARK    2  A    between atoms: C_2  and  C_3
REMARK    3  A    between atoms: C_2  and  C_4
REMARK    4  A    between atoms: C_2  and  N_5
REMARK    5  A    between atoms: C_7  and  C_15
REMARK    6  A    between atoms: C_9  and  N_10
REMARK    7  A    between atoms: C_19  and  O_20
REMARK                            x       y       z     vdW  Elec       q    Type
REMARK                         _______ _______ _______ _____ _____    ______ ____
ROOT
ATOM      1  N   UNL     1       5.622  -2.300  26.884  0.00  0.00    -0.240 N 
ATOM      2  C   UNL     1       6.218  -3.514  27.133  0.00  0.00    +0.164 A 
ATOM      3  C   UNL     1       7.473  -3.466  26.544  0.00  0.00    +0.086 A 
ATOM      4  C   UNL     1       8.259  -4.626  26.659  0.00  0.00    +0.131 A 
ATOM      5  N   UNL     1       7.766  -5.681  27.340  0.00  0.00    -0.220 NA
ATOM      6  C   UNL     1       6.534  -5.589  27.865  0.00  0.00    +0.225 A 
ATOM      7  C   UNL     1       7.549  -2.165  25.953  0.00  0.00    +0.105 A 
ATOM      8  N   UNL     1       5.686  -4.556  27.797  0.00  0.00    -0.216 NA
ATOM      9  N   UNL     1       6.402  -1.488  26.128  0.00  0.00    -0.168 NA
ENDROOT
BRANCH   7  10
ATOM     10  C   UNL     1       8.639  -1.556  25.183  0.00  0.00    +0.006 A 
ATOM     11  C   UNL     1       8.992  -2.034  23.917  0.00  0.00    +0.055 A 
ATOM     12  C   UNL     1       9.946  -1.367  23.155  0.00  0.00    +0.117 A 
ATOM     13  C   UNL     1      10.627  -0.267  23.662  0.00  0.00    +0.045 A 
ATOM     14  C   UNL     1      10.341   0.175  24.953  0.00  0.00    +0.004 A 
ATOM     15  C   UNL     1       9.346  -0.459  25.704  0.00  0.00    +0.010 A 
BRANCH  12  16
ATOM     16  O   UNL     1      10.168  -1.818  21.888  0.00  0.00    -0.507 OA
ATOM     17  H   UNL     1      11.117  -1.751  21.693  0.00  0.00    +0.292 HD
ENDBRANCH  12  16
ENDBRANCH   7  10
BRANCH   1  19
ATOM     18  C   UNL     1       3.246  -2.654  26.385  0.00  0.00    +0.036 C 
ATOM     19  C   UNL     1       4.256  -1.859  27.230  0.00  0.00    +0.058 C 
ATOM     20  C   UNL     1       3.927  -2.051  28.725  0.00  0.00    +0.036 C 
ATOM     21  C   UNL     1       4.075  -0.351  26.928  0.00  0.00    +0.036 C 
ENDBRANCH   1  19
BRANCH   4  22
ATOM     22  N   UNL     1       9.520  -4.808  26.113  0.00  0.00    -0.342 N 
ATOM     23  H   UNL     1      10.058  -3.950  26.147  0.00  0.00    +0.144 HD
ATOM     24  H   UNL     1      10.009  -5.645  26.399  0.00  0.00    +0.144 HD
ENDBRANCH   4  22
TORSDOF 4
ENDMDL
MODEL 9
REMARK VINA RESULT:      -6.0      2.917      5.686
REMARK  Name = 
REMARK  7 active torsions:
REMARK  status: ('A' for Active; 'I' for Inactive)
REMARK    1  A    between atoms: C_1  and  C_2
REMARK    2  A    between atoms: C_2  and  C_3
REMARK    3  A    between atoms: C_2  and  C_4
REMARK    4  A    between atoms: C_2  and  N_5
REMARK    5  A    between atoms: C_7  and  C_15
REMARK    6  A    between atoms: C_9  and  N_10
REMARK    7  A    between atoms: C_19  and  O_20
REMARK                            x       y       z     vdW  Elec       q    Type
REMARK                         _______ _______ _______ _____ _____    ______ ____
ROOT
ATOM      1  N   UNL     1       9.393   4.490  24.505  0.00  0.00    -0.240 N 
ATOM      2  C   UNL     1       8.462   4.035  25.409  0.00  0.00    +0.164 A 
ATOM      3  C   UNL     1       8.286   2.684  25.147  0.00  0.00    +0.086 A 
ATOM      4  C   UNL     1       7.350   2.011  25.952  0.00  0.00    +0.131 A 
ATOM      5  N   UNL     1       6.713   2.698  26.922  0.00  0.00    -0.220 NA
ATOM      6  C   UNL     1       6.984   4.005  27.069  0.00  0.00    +0.225 A 
ATOM      7  C   UNL     1       9.163   2.407  24.052  0.00  0.00    +0.105 A 
ATOM      8  N   UNL     1       7.827   4.756  26.351  0.00  0.00    -0.216 NA
ATOM      9  N   UNL     1       9.792   3.523  23.644  0.00  0.00    -0.168 NA
ENDROOT
BRANCH   7  10
ATOM     10  C   UNL     1       9.392   1.145  23.338  0.00  0.00    +0.006 A 
ATOM     11  C   UNL     1       9.755  -0.020  24.020  0.00  0.00    +0.055 A 
ATOM     12  C   UNL     1       9.849  -1.231  23.340  0.00  0.00    +0.117 A 
ATOM     13  C   UNL     1       9.669  -1.295  21.963  0.00  0.00    +0.045 A 
ATOM     14  C   UNL     1       9.382  -0.127  21.259  0.00  0.00    +0.004 A 
ATOM     15  C   UNL     1       9.234   1.083  21.944  0.00  0.00    +0.010 A 
BRANCH  12  16
ATOM     16  O   UNL     1      10.100  -2.349  24.077  0.00  0.00    -0.507 OA
ATOM     17  H   UNL     1       9.546  -3.074  23.745  0.00  0.00    +0.292 HD
ENDBRANCH  12  16
ENDBRANCH   7  10
BRANCH   1  19
ATOM     18  C   UNL     1       8.869   6.640  23.443  0.00  0.00    +0.036 C 
ATOM     19  C   UNL     1       9.882   5.869  24.308  0.00  0.00    +0.058 C 
ATOM     20  C   UNL     1      10.093   6.624  25.637  0.00  0.00    +0.036 C 
ATOM     21  C   UNL     1      11.250   5.865  23.581  0.00  0.00    +0.036 C 
ENDBRANCH   1  19
BRANCH   4  22
ATOM     22  N   UNL     1       6.991   0.677  25.835  0.00  0.00    -0.342 N 
ATOM     23  H   UNL     1       6.633   0.318  26.712  0.00  0.00    +0.144 HD
ATOM     24  H   UNL     1       6.458   0.434  25.010  0.00  0.00    +0.144 HD
ENDBRANCH   4  22
TORSDOF 4
ENDMDL
