MODEL 1
REMARK VINA RESULT:      -8.0      0.000      0.000
REMARK  Name = 
REMARK  15 active torsions:
REMARK  status: ('A' for Active; 'I' for Inactive)
REMARK    1  A    between atoms: C_1  and  O_2
REMARK    2  A    between atoms: O_2  and  C_3
REMARK    3  A    between atoms: C_5  and  C_6
REMARK    4  A    between atoms: C_6  and  N_7
REMARK    5  A    between atoms: C_8  and  C_10
REMARK    6  A    between atoms: C_10  and  C_11
REMARK    7  A    between atoms: C_17  and  O_19
REMARK    8  A    between atoms: N_21  and  C_22
REMARK    9  A    between atoms: C_22  and  C_23
REMARK   10  A    between atoms: N_29  and  C_30
REMARK   11  A    between atoms: C_30  and  C_31
REMARK   12  A    between atoms: C_34  and  O_35
REMARK   13  A    between atoms: C_36  and  O_37
REMARK   14  A    between atoms: O_37  and  C_38
REMARK   15  A    between atoms: C_44  and  O_45
REMARK                            x       y       z     vdW  Elec       q    Type
REMARK                         _______ _______ _______ _____ _____    ______ ____
ROOT
ATOM      1  N   UNL     1       7.554   1.776  24.547  0.00  0.00    -0.274 N 
ATOM      2  C   UNL     1       7.692   0.569  25.228  0.00  0.00    +0.320 C 
ATOM      3  O   UNL     1       8.007   0.543  26.416  0.00  0.00    -0.251 OA
ATOM      4  N   UNL     1       6.961  -0.458  24.587  0.00  0.00    -0.213 N 
ATOM      5  N   UNL     1       7.504  -1.166  23.426  0.00  0.00    -0.216 NA
ATOM      6  C   UNL     1       8.477  -0.385  22.632  0.00  0.00    +0.139 C 
ATOM      7  C   UNL     1       8.086   1.067  22.244  0.00  0.00    +0.151 C 
ATOM      8  C   UNL     1       8.452   2.033  23.402  0.00  0.00    +0.112 C 
ENDROOT
BRANCH   7   9
ATOM      9  O   UNL     1       8.728   1.430  21.015  0.00  0.00    -0.389 OA
ATOM     10  H   UNL     1       9.542   1.919  21.223  0.00  0.00    +0.210 HD
ENDBRANCH   7   9
BRANCH   1  11
ATOM     11  C   UNL     1       6.759   2.793  25.246  0.00  0.00    +0.145 C 
BRANCH  11  16
ATOM     12  C   UNL     1       4.954   5.427  23.141  0.00  0.00    +0.162 A 
ATOM     13  C   UNL     1       3.952   4.654  22.550  0.00  0.00    +0.158 A 
ATOM     14  C   UNL     1       3.804   3.312  22.903  0.00  0.00    +0.049 A 
ATOM     15  C   UNL     1       4.682   2.720  23.803  0.00  0.00    +0.009 A 
ATOM     16  C   UNL     1       5.736   3.450  24.354  0.00  0.00    -0.026 A 
ATOM     17  C   UNL     1       5.812   4.822  24.070  0.00  0.00    +0.054 A 
BRANCH  12  19
ATOM     18  C   UNL     1       6.546   7.073  22.465  0.00  0.00    +0.277 C 
ATOM     19  O   UNL     1       5.241   6.748  22.935  0.00  0.00    -0.491 OA
ENDBRANCH  12  19
BRANCH  13  20
ATOM     20  O   UNL     1       3.097   5.169  21.618  0.00  0.00    -0.503 OA
ATOM     21  H   UNL     1       3.428   4.935  20.735  0.00  0.00    +0.292 HD
ENDBRANCH  13  20
ENDBRANCH  11  16
ENDBRANCH   1  11
BRANCH   4  22
ATOM     22  C   UNL     1       5.966  -1.094  25.454  0.00  0.00    +0.164 C 
BRANCH  22  23
ATOM     23  C   UNL     1       6.314  -2.400  26.119  0.00  0.00    -0.025 A 
ATOM     24  C   UNL     1       7.660  -2.817  26.096  0.00  0.00    +0.054 A 
ATOM     25  C   UNL     1       8.048  -4.037  26.656  0.00  0.00    +0.162 A 
ATOM     26  C   UNL     1       7.066  -4.866  27.208  0.00  0.00    +0.158 A 
ATOM     27  C   UNL     1       5.724  -4.492  27.197  0.00  0.00    +0.049 A 
ATOM     28  C   UNL     1       5.350  -3.264  26.650  0.00  0.00    +0.009 A 
BRANCH  25  29
ATOM     29  O   UNL     1       9.335  -4.504  26.673  0.00  0.00    -0.491 OA
ATOM     30  C   UNL     1       9.827  -5.047  25.454  0.00  0.00    +0.277 C 
ENDBRANCH  25  29
BRANCH  26  31
ATOM     31  O   UNL     1       7.435  -6.055  27.775  0.00  0.00    -0.503 OA
ATOM     32  H   UNL     1       7.821  -6.621  27.089  0.00  0.00    +0.292 HD
ENDBRANCH  26  31
ENDBRANCH  22  23
ENDBRANCH   4  22
BRANCH   5  33
ATOM     33  C   UNL     1       6.467  -1.785  22.559  0.00  0.00    +0.141 C 
BRANCH  33  34
ATOM     34  C   UNL     1       6.331  -3.292  22.742  0.00  0.00    -0.032 A 
ATOM     35  C   UNL     1       5.069  -3.875  22.934  0.00  0.00    +0.005 A 
ATOM     36  C   UNL     1       4.927  -5.264  22.993  0.00  0.00    +0.000 A 
ATOM     37  C   UNL     1       6.045  -6.087  22.872  0.00  0.00    +0.000 A 
ATOM     38  C   UNL     1       7.310  -5.521  22.728  0.00  0.00    +0.000 A 
ATOM     39  C   UNL     1       7.455  -4.132  22.672  0.00  0.00    +0.005 A 
ENDBRANCH  33  34
ENDBRANCH   5  33
BRANCH   8  40
ATOM     40  C   UNL     1       8.634   3.511  22.937  0.00  0.00    +0.060 C 
BRANCH  40  41
ATOM     41  C   UNL     1       9.866   4.200  23.503  0.00  0.00    -0.046 A 
ATOM     42  C   UNL     1      11.137   3.694  23.194  0.00  0.00    +0.004 A 
ATOM     43  C   UNL     1      12.275   4.475  23.399  0.00  0.00    +0.000 A 
ATOM     44  C   UNL     1      12.160   5.744  23.962  0.00  0.00    +0.000 A 
ATOM     45  C   UNL     1      10.917   6.201  24.392  0.00  0.00    +0.000 A 
ATOM     46  C   UNL     1       9.778   5.420  24.192  0.00  0.00    +0.004 A 
ENDBRANCH  40  41
ENDBRANCH   8  40
TORSDOF 13
ENDMDL
MODEL 2
REMARK VINA RESULT:      -7.9      1.043      1.589
REMARK  Name = 
REMARK  15 active torsions:
REMARK  status: ('A' for Active; 'I' for Inactive)
REMARK    1  A    between atoms: C_1  and  O_2
REMARK    2  A    between atoms: O_2  and  C_3
REMARK    3  A    between atoms: C_5  and  C_6
REMARK    4  A    between atoms: C_6  and  N_7
REMARK    5  A    between atoms: C_8  and  C_10
REMARK    6  A    between atoms: C_10  and  C_11
REMARK    7  A    between atoms: C_17  and  O_19
REMARK    8  A    between atoms: N_21  and  C_22
REMARK    9  A    between atoms: C_22  and  C_23
REMARK   10  A    between atoms: N_29  and  C_30
REMARK   11  A    between atoms: C_30  and  C_31
REMARK   12  A    between atoms: C_34  and  O_35
REMARK   13  A    between atoms: C_36  and  O_37
REMARK   14  A    between atoms: O_37  and  C_38
REMARK   15  A    between atoms: C_44  and  O_45
REMARK                            x       y       z     vdW  Elec       q    Type
REMARK                         _______ _______ _______ _____ _____    ______ ____
ROOT
ATOM      1  N   UNL     1       7.690   1.886  24.736  0.00  0.00    -0.274 N 
ATOM      2  C   UNL     1       7.854   0.658  25.374  0.00  0.00    +0.320 C 
ATOM      3  O   UNL     1       8.270   0.594  26.529  0.00  0.00    -0.251 OA
ATOM      4  N   UNL     1       7.044  -0.333  24.773  0.00  0.00    -0.213 N 
ATOM      5  N   UNL     1       7.465  -1.023  23.553  0.00  0.00    -0.216 NA
ATOM      6  C   UNL     1       8.387  -0.245  22.697  0.00  0.00    +0.139 C 
ATOM      7  C   UNL     1       8.002   1.225  22.379  0.00  0.00    +0.151 C 
ATOM      8  C   UNL     1       8.493   2.151  23.525  0.00  0.00    +0.112 C 
ENDROOT
BRANCH   7   9
ATOM      9  O   UNL     1       8.546   1.605  21.109  0.00  0.00    -0.389 OA
ATOM     10  H   UNL     1       9.446   1.245  21.036  0.00  0.00    +0.210 HD
ENDBRANCH   7   9
BRANCH   1  11
ATOM     11  C   UNL     1       6.985   2.903  25.526  0.00  0.00    +0.145 C 
BRANCH  11  16
ATOM     12  C   UNL     1       3.684   3.229  23.621  0.00  0.00    +0.162 A 
ATOM     13  C   UNL     1       2.770   2.868  24.613  0.00  0.00    +0.158 A 
ATOM     14  C   UNL     1       3.210   2.613  25.912  0.00  0.00    +0.049 A 
ATOM     15  C   UNL     1       4.564   2.664  26.219  0.00  0.00    +0.009 A 
ATOM     16  C   UNL     1       5.507   2.951  25.231  0.00  0.00    -0.026 A 
ATOM     17  C   UNL     1       5.044   3.306  23.955  0.00  0.00    +0.054 A 
BRANCH  12  19
ATOM     18  C   UNL     1       2.935   4.826  22.012  0.00  0.00    +0.277 C 
ATOM     19  O   UNL     1       3.442   3.528  22.309  0.00  0.00    -0.491 OA
ENDBRANCH  12  19
BRANCH  13  20
ATOM     20  O   UNL     1       1.434   2.748  24.354  0.00  0.00    -0.503 OA
ATOM     21  H   UNL     1       1.150   1.856  24.613  0.00  0.00    +0.292 HD
ENDBRANCH  13  20
ENDBRANCH  11  16
ENDBRANCH   1  11
BRANCH   4  22
ATOM     22  C   UNL     1       6.110  -0.967  25.708  0.00  0.00    +0.164 C 
BRANCH  22  23
ATOM     23  C   UNL     1       6.431  -2.344  26.230  0.00  0.00    -0.025 A 
ATOM     24  C   UNL     1       7.778  -2.757  26.224  0.00  0.00    +0.054 A 
ATOM     25  C   UNL     1       8.144  -4.035  26.654  0.00  0.00    +0.162 A 
ATOM     26  C   UNL     1       7.139  -4.922  27.054  0.00  0.00    +0.158 A 
ATOM     27  C   UNL     1       5.798  -4.548  27.021  0.00  0.00    +0.049 A 
ATOM     28  C   UNL     1       5.446  -3.263  26.607  0.00  0.00    +0.009 A 
BRANCH  25  29
ATOM     29  O   UNL     1       9.431  -4.503  26.678  0.00  0.00    -0.491 OA
ATOM     30  C   UNL     1       9.946  -5.002  25.451  0.00  0.00    +0.277 C 
ENDBRANCH  25  29
BRANCH  26  31
ATOM     31  O   UNL     1       7.486  -6.171  27.494  0.00  0.00    -0.503 OA
ATOM     32  H   UNL     1       6.701  -6.598  27.870  0.00  0.00    +0.292 HD
ENDBRANCH  26  31
ENDBRANCH  22  23
ENDBRANCH   4  22
BRANCH   5  33
ATOM     33  C   UNL     1       6.342  -1.594  22.765  0.00  0.00    +0.141 C 
BRANCH  33  34
ATOM     34  C   UNL     1       6.253  -3.114  22.831  0.00  0.00    -0.032 A 
ATOM     35  C   UNL     1       7.414  -3.899  22.759  0.00  0.00    +0.005 A 
ATOM     36  C   UNL     1       7.348  -5.285  22.928  0.00  0.00    +0.000 A 
ATOM     37  C   UNL     1       6.121  -5.904  23.161  0.00  0.00    +0.000 A 
ATOM     38  C   UNL     1       4.955  -5.143  23.188  0.00  0.00    +0.000 A 
ATOM     39  C   UNL     1       5.018  -3.757  23.015  0.00  0.00    +0.005 A 
ENDBRANCH  33  34
ENDBRANCH   5  33
BRANCH   8  40
ATOM     40  C   UNL     1       8.674   3.636  23.081  0.00  0.00    +0.060 C 
BRANCH  40  41
ATOM     41  C   UNL     1       9.943   4.296  23.598  0.00  0.00    -0.046 A 
ATOM     42  C   UNL     1      11.188   3.766  23.230  0.00  0.00    +0.004 A 
ATOM     43  C   UNL     1      12.351   4.522  23.390  0.00  0.00    +0.000 A 
ATOM     44  C   UNL     1      12.286   5.789  23.967  0.00  0.00    +0.000 A 
ATOM     45  C   UNL     1      11.072   6.268  24.454  0.00  0.00    +0.000 A 
ATOM     46  C   UNL     1       9.911   5.512  24.299  0.00  0.00    +0.004 A 
ENDBRANCH  40  41
ENDBRANCH   8  40
TORSDOF 13
ENDMDL
MODEL 3
REMARK VINA RESULT:      -7.6      1.560      2.590
REMARK  Name = 
REMARK  15 active torsions:
REMARK  status: ('A' for Active; 'I' for Inactive)
REMARK    1  A    between atoms: C_1  and  O_2
REMARK    2  A    between atoms: O_2  and  C_3
REMARK    3  A    between atoms: C_5  and  C_6
REMARK    4  A    between atoms: C_6  and  N_7
REMARK    5  A    between atoms: C_8  and  C_10
REMARK    6  A    between atoms: C_10  and  C_11
REMARK    7  A    between atoms: C_17  and  O_19
REMARK    8  A    between atoms: N_21  and  C_22
REMARK    9  A    between atoms: C_22  and  C_23
REMARK   10  A    between atoms: N_29  and  C_30
REMARK   11  A    between atoms: C_30  and  C_31
REMARK   12  A    between atoms: C_34  and  O_35
REMARK   13  A    between atoms: C_36  and  O_37
REMARK   14  A    between atoms: O_37  and  C_38
REMARK   15  A    between atoms: C_44  and  O_45
REMARK                            x       y       z     vdW  Elec       q    Type
REMARK                         _______ _______ _______ _____ _____    ______ ____
ROOT
ATOM      1  N   UNL     1       7.879   1.912  24.783  0.00  0.00    -0.274 N 
ATOM      2  C   UNL     1       8.095   0.647  25.325  0.00  0.00    +0.320 C 
ATOM      3  O   UNL     1       8.517   0.512  26.472  0.00  0.00    -0.251 OA
ATOM      4  N   UNL     1       7.325  -0.328  24.650  0.00  0.00    -0.213 N 
ATOM      5  N   UNL     1       7.771  -0.905  23.381  0.00  0.00    -0.216 NA
ATOM      6  C   UNL     1       8.657  -0.027  22.586  0.00  0.00    +0.139 C 
ATOM      7  C   UNL     1       8.211   1.446  22.382  0.00  0.00    +0.151 C 
ATOM      8  C   UNL     1       8.667   2.302  23.595  0.00  0.00    +0.112 C 
ENDROOT
BRANCH   7   9
ATOM      9  O   UNL     1       8.735   1.944  21.145  0.00  0.00    -0.389 OA
ATOM     10  H   UNL     1       9.302   1.261  20.749  0.00  0.00    +0.210 HD
ENDBRANCH   7   9
BRANCH   1  11
ATOM     11  C   UNL     1       7.135   2.836  25.647  0.00  0.00    +0.145 C 
BRANCH  11  16
ATOM     12  C   UNL     1       3.351   2.556  26.129  0.00  0.00    +0.162 A 
ATOM     13  C   UNL     1       2.892   3.034  24.899  0.00  0.00    +0.158 A 
ATOM     14  C   UNL     1       3.799   3.355  23.889  0.00  0.00    +0.049 A 
ATOM     15  C   UNL     1       5.167   3.252  24.114  0.00  0.00    +0.009 A 
ATOM     16  C   UNL     1       5.656   2.847  25.356  0.00  0.00    -0.026 A 
ATOM     17  C   UNL     1       4.733   2.430  26.328  0.00  0.00    +0.054 A 
BRANCH  12  19
ATOM     18  C   UNL     1       2.255   0.807  27.329  0.00  0.00    +0.277 C 
ATOM     19  O   UNL     1       2.621   2.181  27.221  0.00  0.00    -0.491 OA
ENDBRANCH  12  19
BRANCH  13  20
ATOM     20  O   UNL     1       1.561   3.207  24.643  0.00  0.00    -0.503 OA
ATOM     21  H   UNL     1       1.454   3.410  23.699  0.00  0.00    +0.292 HD
ENDBRANCH  13  20
ENDBRANCH  11  16
ENDBRANCH   1  11
BRANCH   4  22
ATOM     22  C   UNL     1       6.421  -1.069  25.534  0.00  0.00    +0.164 C 
BRANCH  22  23
ATOM     23  C   UNL     1       6.844  -2.429  26.026  0.00  0.00    -0.025 A 
ATOM     24  C   UNL     1       5.845  -3.305  26.495  0.00  0.00    +0.054 A 
ATOM     25  C   UNL     1       6.169  -4.565  27.004  0.00  0.00    +0.162 A 
ATOM     26  C   UNL     1       7.516  -4.931  27.082  0.00  0.00    +0.158 A 
ATOM     27  C   UNL     1       8.522  -4.060  26.669  0.00  0.00    +0.049 A 
ATOM     28  C   UNL     1       8.186  -2.812  26.145  0.00  0.00    +0.009 A 
BRANCH  25  29
ATOM     29  O   UNL     1       5.251  -5.467  27.474  0.00  0.00    -0.491 OA
ATOM     30  C   UNL     1       4.516  -6.189  26.495  0.00  0.00    +0.277 C 
ENDBRANCH  25  29
BRANCH  26  31
ATOM     31  O   UNL     1       7.846  -6.170  27.564  0.00  0.00    -0.503 OA
ATOM     32  H   UNL     1       8.770  -6.155  27.854  0.00  0.00    +0.292 HD
ENDBRANCH  26  31
ENDBRANCH  22  23
ENDBRANCH   4  22
BRANCH   5  33
ATOM     33  C   UNL     1       6.670  -1.460  22.551  0.00  0.00    +0.141 C 
BRANCH  33  34
ATOM     34  C   UNL     1       6.504  -2.970  22.677  0.00  0.00    -0.032 A 
ATOM     35  C   UNL     1       7.629  -3.806  22.748  0.00  0.00    +0.005 A 
ATOM     36  C   UNL     1       7.483  -5.178  22.973  0.00  0.00    +0.000 A 
ATOM     37  C   UNL     1       6.213  -5.733  23.119  0.00  0.00    +0.000 A 
ATOM     38  C   UNL     1       5.086  -4.921  23.004  0.00  0.00    +0.000 A 
ATOM     39  C   UNL     1       5.229  -3.550  22.776  0.00  0.00    +0.005 A 
ENDBRANCH  33  34
ENDBRANCH   5  33
BRANCH   8  40
ATOM     40  C   UNL     1       8.785   3.822  23.266  0.00  0.00    +0.060 C 
BRANCH  40  41
ATOM     41  C   UNL     1      10.087   4.464  23.720  0.00  0.00    -0.046 A 
ATOM     42  C   UNL     1      11.304   3.937  23.266  0.00  0.00    +0.004 A 
ATOM     43  C   UNL     1      12.479   4.685  23.374  0.00  0.00    +0.000 A 
ATOM     44  C   UNL     1      12.456   5.938  23.982  0.00  0.00    +0.000 A 
ATOM     45  C   UNL     1      11.277   6.410  24.552  0.00  0.00    +0.000 A 
ATOM     46  C   UNL     1      10.103   5.664  24.449  0.00  0.00    +0.004 A 
ENDBRANCH  40  41
ENDBRANCH   8  40
TORSDOF 13
ENDMDL
MODEL 4
REMARK VINA RESULT:      -7.5      1.700      8.931
REMARK  Name = 
REMARK  15 active torsions:
REMARK  status: ('A' for Active; 'I' for Inactive)
REMARK    1  A    between atoms: C_1  and  O_2
REMARK    2  A    between atoms: O_2  and  C_3
REMARK    3  A    between atoms: C_5  and  C_6
REMARK    4  A    between atoms: C_6  and  N_7
REMARK    5  A    between atoms: C_8  and  C_10
REMARK    6  A    between atoms: C_10  and  C_11
REMARK    7  A    between atoms: C_17  and  O_19
REMARK    8  A    between atoms: N_21  and  C_22
REMARK    9  A    between atoms: C_22  and  C_23
REMARK   10  A    between atoms: N_29  and  C_30
REMARK   11  A    between atoms: C_30  and  C_31
REMARK   12  A    between atoms: C_34  and  O_35
REMARK   13  A    between atoms: C_36  and  O_37
REMARK   14  A    between atoms: O_37  and  C_38
REMARK   15  A    between atoms: C_44  and  O_45
REMARK                            x       y       z     vdW  Elec       q    Type
REMARK                         _______ _______ _______ _____ _____    ______ ____
ROOT
ATOM      1  N   UNL     1       7.805  -1.055  24.992  0.00  0.00    -0.274 N 
ATOM      2  C   UNL     1       6.967   0.049  25.130  0.00  0.00    +0.320 C 
ATOM      3  O   UNL     1       5.918  -0.026  25.766  0.00  0.00    -0.251 OA
ATOM      4  N   UNL     1       7.684   1.252  24.934  0.00  0.00    -0.213 N 
ATOM      5  N   UNL     1       7.967   1.759  23.590  0.00  0.00    -0.216 NA
ATOM      6  C   UNL     1       8.031   0.716  22.542  0.00  0.00    +0.139 C 
ATOM      7  C   UNL     1       8.891  -0.542  22.836  0.00  0.00    +0.151 C 
ATOM      8  C   UNL     1       8.048  -1.576  23.630  0.00  0.00    +0.112 C 
ENDROOT
BRANCH   7   9
ATOM      9  O   UNL     1       9.390  -1.085  21.607  0.00  0.00    -0.389 OA
ATOM     10  H   UNL     1       9.907  -1.884  21.807  0.00  0.00    +0.210 HD
ENDBRANCH   7   9
BRANCH   1  11
ATOM     11  C   UNL     1       8.085  -1.778  26.238  0.00  0.00    +0.145 C 
BRANCH  11  16
ATOM     12  C   UNL     1       5.299  -4.387  26.002  0.00  0.00    +0.162 A 
ATOM     13  C   UNL     1       5.999  -5.552  26.322  0.00  0.00    +0.158 A 
ATOM     14  C   UNL     1       7.340  -5.481  26.702  0.00  0.00    +0.049 A 
ATOM     15  C   UNL     1       8.003  -4.260  26.717  0.00  0.00    +0.009 A 
ATOM     16  C   UNL     1       7.348  -3.090  26.332  0.00  0.00    -0.026 A 
ATOM     17  C   UNL     1       5.975  -3.160  26.050  0.00  0.00    +0.054 A 
BRANCH  12  19
ATOM     18  C   UNL     1       3.688  -4.395  24.239  0.00  0.00    +0.277 C 
ATOM     19  O   UNL     1       3.991  -4.258  25.625  0.00  0.00    -0.491 OA
ENDBRANCH  12  19
BRANCH  13  20
ATOM     20  O   UNL     1       5.412  -6.785  26.271  0.00  0.00    -0.503 OA
ATOM     21  H   UNL     1       5.623  -7.190  25.413  0.00  0.00    +0.292 HD
ENDBRANCH  13  20
ENDBRANCH  11  16
ENDBRANCH   1  11
BRANCH   4  22
ATOM     22  C   UNL     1       7.617   2.163  26.079  0.00  0.00    +0.164 C 
BRANCH  22  23
ATOM     23  C   UNL     1       6.811   3.430  25.950  0.00  0.00    -0.025 A 
ATOM     24  C   UNL     1       5.612   3.380  25.212  0.00  0.00    +0.054 A 
ATOM     25  C   UNL     1       4.836   4.525  25.016  0.00  0.00    +0.162 A 
ATOM     26  C   UNL     1       5.292   5.742  25.532  0.00  0.00    +0.158 A 
ATOM     27  C   UNL     1       6.499   5.821  26.223  0.00  0.00    +0.049 A 
ATOM     28  C   UNL     1       7.257   4.668  26.428  0.00  0.00    +0.009 A 
BRANCH  25  29
ATOM     29  O   UNL     1       3.660   4.550  24.313  0.00  0.00    -0.491 OA
ATOM     30  C   UNL     1       3.764   4.405  22.902  0.00  0.00    +0.277 C 
ENDBRANCH  25  29
BRANCH  26  31
ATOM     31  O   UNL     1       4.532   6.868  25.361  0.00  0.00    -0.503 OA
ATOM     32  H   UNL     1       4.236   6.907  24.439  0.00  0.00    +0.292 HD
ENDBRANCH  26  31
ENDBRANCH  22  23
ENDBRANCH   4  22
BRANCH   5  33
ATOM     33  C   UNL     1       9.140   2.669  23.523  0.00  0.00    +0.141 C 
BRANCH  33  34
ATOM     34  C   UNL     1       8.779   4.119  23.220  0.00  0.00    -0.032 A 
ATOM     35  C   UNL     1       7.643   4.424  22.454  0.00  0.00    +0.005 A 
ATOM     36  C   UNL     1       7.247   5.751  22.265  0.00  0.00    +0.000 A 
ATOM     37  C   UNL     1       7.986   6.789  22.828  0.00  0.00    +0.000 A 
ATOM     38  C   UNL     1       9.143   6.503  23.551  0.00  0.00    +0.000 A 
ATOM     39  C   UNL     1       9.542   5.177  23.738  0.00  0.00    +0.005 A 
ENDBRANCH  33  34
ENDBRANCH   5  33
BRANCH   8  40
ATOM     40  C   UNL     1       8.577  -3.037  23.493  0.00  0.00    +0.060 C 
BRANCH  40  41
ATOM     41  C   UNL     1       7.584  -4.009  22.874  0.00  0.00    -0.046 A 
ATOM     42  C   UNL     1       6.593  -3.518  22.012  0.00  0.00    +0.004 A 
ATOM     43  C   UNL     1       5.897  -4.389  21.171  0.00  0.00    +0.000 A 
ATOM     44  C   UNL     1       6.147  -5.758  21.221  0.00  0.00    +0.000 A 
ATOM     45  C   UNL     1       7.035  -6.266  22.166  0.00  0.00    +0.000 A 
ATOM     46  C   UNL     1       7.728  -5.399  23.010  0.00  0.00    +0.004 A 
ENDBRANCH  40  41
ENDBRANCH   8  40
TORSDOF 13
ENDMDL
MODEL 5
REMARK VINA RESULT:      -7.2      1.631      2.977
REMARK  Name = 
REMARK  15 active torsions:
REMARK  status: ('A' for Active; 'I' for Inactive)
REMARK    1  A    between atoms: C_1  and  O_2
REMARK    2  A    between atoms: O_2  and  C_3
REMARK    3  A    between atoms: C_5  and  C_6
REMARK    4  A    between atoms: C_6  and  N_7
REMARK    5  A    between atoms: C_8  and  C_10
REMARK    6  A    between atoms: C_10  and  C_11
REMARK    7  A    between atoms: C_17  and  O_19
REMARK    8  A    between atoms: N_21  and  C_22
REMARK    9  A    between atoms: C_22  and  C_23
REMARK   10  A    between atoms: N_29  and  C_30
REMARK   11  A    between atoms: C_30  and  C_31
REMARK   12  A    between atoms: C_34  and  O_35
REMARK   13  A    between atoms: C_36  and  O_37
REMARK   14  A    between atoms: O_37  and  C_38
REMARK   15  A    between atoms: C_44  and  O_45
REMARK                            x       y       z     vdW  Elec       q    Type
REMARK                         _______ _______ _______ _____ _____    ______ ____
ROOT
ATOM      1  N   UNL     1       8.689   1.089  24.797  0.00  0.00    -0.274 N 
ATOM      2  C   UNL     1       8.612  -0.193  25.338  0.00  0.00    +0.320 C 
ATOM      3  O   UNL     1       9.017  -0.426  26.475  0.00  0.00    -0.251 OA
ATOM      4  N   UNL     1       7.617  -0.956  24.684  0.00  0.00    -0.213 N 
ATOM      5  N   UNL     1       7.884  -1.619  23.407  0.00  0.00    -0.216 NA
ATOM      6  C   UNL     1       8.934  -0.974  22.589  0.00  0.00    +0.139 C 
ATOM      7  C   UNL     1       8.845   0.563  22.391  0.00  0.00    +0.151 C 
ATOM      8  C   UNL     1       9.519   1.284  23.589  0.00  0.00    +0.112 C 
ENDROOT
BRANCH   7   9
ATOM      9  O   UNL     1       9.443   0.926  21.139  0.00  0.00    -0.389 OA
ATOM     10  H   UNL     1       9.974   0.177  20.820  0.00  0.00    +0.210 HD
ENDBRANCH   7   9
BRANCH   1  11
ATOM     11  C   UNL     1       8.207   2.161  25.675  0.00  0.00    +0.145 C 
BRANCH  11  16
ATOM     12  C   UNL     1       4.447   2.261  24.977  0.00  0.00    +0.162 A 
ATOM     13  C   UNL     1       3.938   1.856  26.212  0.00  0.00    +0.158 A 
ATOM     14  C   UNL     1       4.799   1.644  27.289  0.00  0.00    +0.049 A 
ATOM     15  C   UNL     1       6.172   1.782  27.130  0.00  0.00    +0.009 A 
ATOM     16  C   UNL     1       6.715   2.115  25.888  0.00  0.00    -0.026 A 
ATOM     17  C   UNL     1       5.834   2.425  24.841  0.00  0.00    +0.054 A 
BRANCH  12  19
ATOM     18  C   UNL     1       3.271   3.853  23.641  0.00  0.00    +0.277 C 
ATOM     19  O   UNL     1       3.766   2.528  23.822  0.00  0.00    -0.491 OA
ENDBRANCH  12  19
BRANCH  13  20
ATOM     20  O   UNL     1       2.602   1.652  26.410  0.00  0.00    -0.503 OA
ATOM     21  H   UNL     1       2.133   1.871  25.588  0.00  0.00    +0.292 HD
ENDBRANCH  13  20
ENDBRANCH  11  16
ENDBRANCH   1  11
BRANCH   4  22
ATOM     22  C   UNL     1       6.585  -1.464  25.591  0.00  0.00    +0.164 C 
BRANCH  22  23
ATOM     23  C   UNL     1       6.781  -2.816  26.227  0.00  0.00    -0.025 A 
ATOM     24  C   UNL     1       5.833  -3.246  27.176  0.00  0.00    +0.054 A 
ATOM     25  C   UNL     1       5.974  -4.469  27.835  0.00  0.00    +0.162 A 
ATOM     26  C   UNL     1       7.103  -5.250  27.568  0.00  0.00    +0.158 A 
ATOM     27  C   UNL     1       8.076  -4.820  26.669  0.00  0.00    +0.049 A 
ATOM     28  C   UNL     1       7.916  -3.604  26.003  0.00  0.00    +0.009 A 
BRANCH  25  29
ATOM     29  O   UNL     1       5.092  -4.951  28.766  0.00  0.00    -0.491 OA
ATOM     30  C   UNL     1       3.821  -5.363  28.279  0.00  0.00    +0.277 C 
ENDBRANCH  25  29
BRANCH  26  31
ATOM     31  O   UNL     1       7.244  -6.459  28.195  0.00  0.00    -0.503 OA
ATOM     32  H   UNL     1       7.322  -7.151  27.521  0.00  0.00    +0.292 HD
ENDBRANCH  26  31
ENDBRANCH  22  23
ENDBRANCH   4  22
BRANCH   5  33
ATOM     33  C   UNL     1       6.663  -1.895  22.605  0.00  0.00    +0.141 C 
BRANCH  33  34
ATOM     34  C   UNL     1       6.260  -3.365  22.582  0.00  0.00    -0.032 A 
ATOM     35  C   UNL     1       7.191  -4.353  22.226  0.00  0.00    +0.005 A 
ATOM     36  C   UNL     1       6.859  -5.707  22.308  0.00  0.00    +0.000 A 
ATOM     37  C   UNL     1       5.590  -6.092  22.736  0.00  0.00    +0.000 A 
ATOM     38  C   UNL     1       4.640  -5.121  23.048  0.00  0.00    +0.000 A 
ATOM     39  C   UNL     1       4.969  -3.765  22.963  0.00  0.00    +0.005 A 
ENDBRANCH  33  34
ENDBRANCH   5  33
BRANCH   8  40
ATOM     40  C   UNL     1       9.986   2.733  23.253  0.00  0.00    +0.060 C 
BRANCH  40  41
ATOM     41  C   UNL     1       8.867   3.763  23.221  0.00  0.00    -0.046 A 
ATOM     42  C   UNL     1       9.022   4.963  23.930  0.00  0.00    +0.004 A 
ATOM     43  C   UNL     1       8.194   6.054  23.657  0.00  0.00    +0.000 A 
ATOM     44  C   UNL     1       7.175   5.939  22.714  0.00  0.00    +0.000 A 
ATOM     45  C   UNL     1       6.932   4.712  22.102  0.00  0.00    +0.000 A 
ATOM     46  C   UNL     1       7.755   3.619  22.377  0.00  0.00    +0.004 A 
ENDBRANCH  40  41
ENDBRANCH   8  40
TORSDOF 13
ENDMDL
MODEL 6
REMARK VINA RESULT:      -7.0      2.079      2.999
REMARK  Name = 
REMARK  15 active torsions:
REMARK  status: ('A' for Active; 'I' for Inactive)
REMARK    1  A    between atoms: C_1  and  O_2
REMARK    2  A    between atoms: O_2  and  C_3
REMARK    3  A    between atoms: C_5  and  C_6
REMARK    4  A    between atoms: C_6  and  N_7
REMARK    5  A    between atoms: C_8  and  C_10
REMARK    6  A    between atoms: C_10  and  C_11
REMARK    7  A    between atoms: C_17  and  O_19
REMARK    8  A    between atoms: N_21  and  C_22
REMARK    9  A    between atoms: C_22  and  C_23
REMARK   10  A    between atoms: N_29  and  C_30
REMARK   11  A    between atoms: C_30  and  C_31
REMARK   12  A    between atoms: C_34  and  O_35
REMARK   13  A    between atoms: C_36  and  O_37
REMARK   14  A    between atoms: O_37  and  C_38
REMARK   15  A    between atoms: C_44  and  O_45
REMARK                            x       y       z     vdW  Elec       q    Type
REMARK                         _______ _______ _______ _____ _____    ______ ____
ROOT
ATOM      1  N   UNL     1       8.457   1.377  24.684  0.00  0.00    -0.274 N 
ATOM      2  C   UNL     1       8.899   0.112  25.065  0.00  0.00    +0.320 C 
ATOM      3  O   UNL     1       9.669  -0.032  26.012  0.00  0.00    -0.251 OA
ATOM      4  N   UNL     1       8.006  -0.889  24.618  0.00  0.00    -0.213 N 
ATOM      5  N   UNL     1       8.055  -1.395  23.245  0.00  0.00    -0.216 NA
ATOM      6  C   UNL     1       8.598  -0.435  22.258  0.00  0.00    +0.139 C 
ATOM      7  C   UNL     1       8.035   1.011  22.280  0.00  0.00    +0.151 C 
ATOM      8  C   UNL     1       8.806   1.856  23.330  0.00  0.00    +0.112 C 
ENDROOT
BRANCH   7   9
ATOM      9  O   UNL     1       8.113   1.582  20.967  0.00  0.00    -0.389 OA
ATOM     10  H   UNL     1       7.243   1.949  20.735  0.00  0.00    +0.210 HD
ENDBRANCH   7   9
BRANCH   1  11
ATOM     11  C   UNL     1       7.980   2.223  25.784  0.00  0.00    +0.145 C 
BRANCH  11  16
ATOM     12  C   UNL     1       5.149   4.775  25.462  0.00  0.00    +0.162 A 
ATOM     13  C   UNL     1       4.160   3.998  24.854  0.00  0.00    +0.158 A 
ATOM     14  C   UNL     1       4.374   2.637  24.637  0.00  0.00    +0.049 A 
ATOM     15  C   UNL     1       5.589   2.053  24.974  0.00  0.00    +0.009 A 
ATOM     16  C   UNL     1       6.621   2.820  25.516  0.00  0.00    -0.026 A 
ATOM     17  C   UNL     1       6.358   4.163  25.824  0.00  0.00    +0.054 A 
BRANCH  12  19
ATOM     18  C   UNL     1       4.887   6.466  27.128  0.00  0.00    +0.277 C 
ATOM     19  O   UNL     1       5.116   6.107  25.767  0.00  0.00    -0.491 OA
ENDBRANCH  12  19
BRANCH  13  20
ATOM     20  O   UNL     1       2.968   4.531  24.452  0.00  0.00    -0.503 OA
ATOM     21  H   UNL     1       2.993   5.490  24.609  0.00  0.00    +0.292 HD
ENDBRANCH  13  20
ENDBRANCH  11  16
ENDBRANCH   1  11
BRANCH   4  22
ATOM     22  C   UNL     1       7.468  -1.715  25.702  0.00  0.00    +0.164 C 
BRANCH  22  23
ATOM     23  C   UNL     1       6.309  -1.188  26.508  0.00  0.00    -0.025 A 
ATOM     24  C   UNL     1       5.006  -1.527  26.094  0.00  0.00    +0.054 A 
ATOM     25  C   UNL     1       3.884  -1.039  26.768  0.00  0.00    +0.162 A 
ATOM     26  C   UNL     1       4.074  -0.167  27.845  0.00  0.00    +0.158 A 
ATOM     27  C   UNL     1       5.353   0.218  28.239  0.00  0.00    +0.049 A 
ATOM     28  C   UNL     1       6.467  -0.289  27.569  0.00  0.00    +0.009 A 
BRANCH  25  29
ATOM     29  O   UNL     1       2.590  -1.329  26.424  0.00  0.00    -0.491 OA
ATOM     30  C   UNL     1       2.240  -2.706  26.380  0.00  0.00    +0.277 C 
ENDBRANCH  25  29
BRANCH  26  31
ATOM     31  O   UNL     1       2.983   0.304  28.525  0.00  0.00    -0.503 OA
ATOM     32  H   UNL     1       2.583   1.023  28.012  0.00  0.00    +0.292 HD
ENDBRANCH  26  31
ENDBRANCH  22  23
ENDBRANCH   4  22
BRANCH   5  33
ATOM     33  C   UNL     1       6.778  -1.993  22.776  0.00  0.00    +0.141 C 
BRANCH  33  34
ATOM     34  C   UNL     1       6.879  -3.477  22.443  0.00  0.00    -0.032 A 
ATOM     35  C   UNL     1       7.689  -4.326  23.212  0.00  0.00    +0.005 A 
ATOM     36  C   UNL     1       7.700  -5.704  22.979  0.00  0.00    +0.000 A 
ATOM     37  C   UNL     1       6.912  -6.249  21.967  0.00  0.00    +0.000 A 
ATOM     38  C   UNL     1       6.138  -5.412  21.165  0.00  0.00    +0.000 A 
ATOM     39  C   UNL     1       6.129  -4.033  21.394  0.00  0.00    +0.005 A 
ENDBRANCH  33  34
ENDBRANCH   5  33
BRANCH   8  40
ATOM     40  C   UNL     1       8.736   3.390  23.058  0.00  0.00    +0.060 C 
BRANCH  40  41
ATOM     41  C   UNL     1       9.930   4.176  23.577  0.00  0.00    -0.046 A 
ATOM     42  C   UNL     1      11.225   3.750  23.246  0.00  0.00    +0.004 A 
ATOM     43  C   UNL     1      12.312   4.612  23.405  0.00  0.00    +0.000 A 
ATOM     44  C   UNL     1      12.123   5.883  23.943  0.00  0.00    +0.000 A 
ATOM     45  C   UNL     1      10.862   6.264  24.395  0.00  0.00    +0.000 A 
ATOM     46  C   UNL     1       9.775   5.403  24.241  0.00  0.00    +0.004 A 
ENDBRANCH  40  41
ENDBRANCH   8  40
TORSDOF 13
ENDMDL
MODEL 7
REMARK VINA RESULT:      -6.9      1.760      2.855
REMARK  Name = 
REMARK  15 active torsions:
REMARK  status: ('A' for Active; 'I' for Inactive)
REMARK    1  A    between atoms: C_1  and  O_2
REMARK    2  A    between atoms: O_2  and  C_3
REMARK    3  A    between atoms: C_5  and  C_6
REMARK    4  A    between atoms: C_6  and  N_7
REMARK    5  A    between atoms: C_8  and  C_10
REMARK    6  A    between atoms: C_10  and  C_11
REMARK    7  A    between atoms: C_17  and  O_19
REMARK    8  A    between atoms: N_21  and  C_22
REMARK    9  A    between atoms: C_22  and  C_23
REMARK   10  A    between atoms: N_29  and  C_30
REMARK   11  A    between atoms: C_30  and  C_31
REMARK   12  A    between atoms: C_34  and  O_35
REMARK   13  A    between atoms: C_36  and  O_37
REMARK   14  A    between atoms: O_37  and  C_38
REMARK   15  A    between atoms: C_44  and  O_45
REMARK                            x       y       z     vdW  Elec       q    Type
REMARK                         _______ _______ _______ _____ _____    ______ ____
ROOT
ATOM      1  N   UNL     1       8.433   1.253  25.144  0.00  0.00    -0.274 N 
ATOM      2  C   UNL     1       8.233   0.009  25.739  0.00  0.00    +0.320 C 
ATOM      3  O   UNL     1       8.453  -0.164  26.936  0.00  0.00    -0.251 OA
ATOM      4  N   UNL     1       7.324  -0.769  24.986  0.00  0.00    -0.213 N 
ATOM      5  N   UNL     1       7.759  -1.516  23.804  0.00  0.00    -0.216 NA
ATOM      6  C   UNL     1       8.941  -0.947  23.121  0.00  0.00    +0.139 C 
ATOM      7  C   UNL     1       8.934   0.577  22.824  0.00  0.00    +0.151 C 
ATOM      8  C   UNL     1       9.442   1.354  24.068  0.00  0.00    +0.112 C 
ENDROOT
BRANCH   7   9
ATOM      9  O   UNL     1       9.725   0.847  21.660  0.00  0.00    -0.389 OA
ATOM     10  H   UNL     1      10.274   0.068  21.469  0.00  0.00    +0.210 HD
ENDBRANCH   7   9
BRANCH   1  11
ATOM     11  C   UNL     1       7.858   2.387  25.876  0.00  0.00    +0.145 C 
BRANCH  11  16
ATOM     12  C   UNL     1       4.207   2.482  27.011  0.00  0.00    +0.162 A 
ATOM     13  C   UNL     1       3.552   2.632  25.786  0.00  0.00    +0.158 A 
ATOM     14  C   UNL     1       4.280   2.608  24.596  0.00  0.00    +0.049 A 
ATOM     15  C   UNL     1       5.664   2.487  24.620  0.00  0.00    +0.009 A 
ATOM     16  C   UNL     1       6.351   2.408  25.832  0.00  0.00    -0.026 A 
ATOM     17  C   UNL     1       5.601   2.331  27.016  0.00  0.00    +0.054 A 
BRANCH  12  19
ATOM     18  C   UNL     1       4.273   1.611  29.234  0.00  0.00    +0.277 C 
ATOM     19  O   UNL     1       3.667   2.465  28.267  0.00  0.00    -0.491 OA
ENDBRANCH  12  19
BRANCH  13  20
ATOM     20  O   UNL     1       2.200   2.809  25.707  0.00  0.00    -0.503 OA
ATOM     21  H   UNL     1       1.990   3.705  26.020  0.00  0.00    +0.292 HD
ENDBRANCH  13  20
ENDBRANCH  11  16
ENDBRANCH   1  11
BRANCH   4  22
ATOM     22  C   UNL     1       6.150  -1.196  25.752  0.00  0.00    +0.164 C 
BRANCH  22  23
ATOM     23  C   UNL     1       5.993  -2.658  26.080  0.00  0.00    -0.025 A 
ATOM     24  C   UNL     1       7.151  -3.459  26.113  0.00  0.00    +0.054 A 
ATOM     25  C   UNL     1       7.076  -4.830  26.369  0.00  0.00    +0.162 A 
ATOM     26  C   UNL     1       5.817  -5.410  26.553  0.00  0.00    +0.158 A 
ATOM     27  C   UNL     1       4.656  -4.644  26.476  0.00  0.00    +0.049 A 
ATOM     28  C   UNL     1       4.744  -3.272  26.237  0.00  0.00    +0.009 A 
BRANCH  25  29
ATOM     29  O   UNL     1       8.159  -5.667  26.418  0.00  0.00    -0.491 OA
ATOM     30  C   UNL     1       9.327  -5.231  25.735  0.00  0.00    +0.277 C 
ENDBRANCH  25  29
BRANCH  26  31
ATOM     31  O   UNL     1       5.730  -6.750  26.822  0.00  0.00    -0.503 OA
ATOM     32  H   UNL     1       6.507  -7.193  26.448  0.00  0.00    +0.292 HD
ENDBRANCH  26  31
ENDBRANCH  22  23
ENDBRANCH   4  22
BRANCH   5  33
ATOM     33  C   UNL     1       6.665  -1.812  22.842  0.00  0.00    +0.141 C 
BRANCH  33  34
ATOM     34  C   UNL     1       6.357  -3.298  22.697  0.00  0.00    -0.032 A 
ATOM     35  C   UNL     1       7.398  -4.231  22.567  0.00  0.00    +0.005 A 
ATOM     36  C   UNL     1       7.126  -5.601  22.544  0.00  0.00    +0.000 A 
ATOM     37  C   UNL     1       5.813  -6.056  22.638  0.00  0.00    +0.000 A 
ATOM     38  C   UNL     1       4.766  -5.140  22.720  0.00  0.00    +0.000 A 
ATOM     39  C   UNL     1       5.035  -3.768  22.740  0.00  0.00    +0.005 A 
ENDBRANCH  33  34
ENDBRANCH   5  33
BRANCH   8  40
ATOM     40  C   UNL     1      10.001   2.768  23.725  0.00  0.00    +0.060 C 
BRANCH  40  41
ATOM     41  C   UNL     1       8.934   3.828  23.498  0.00  0.00    -0.046 A 
ATOM     42  C   UNL     1       9.029   5.051  24.178  0.00  0.00    +0.004 A 
ATOM     43  C   UNL     1       8.287   6.154  23.750  0.00  0.00    +0.000 A 
ATOM     44  C   UNL     1       7.407   6.030  22.677  0.00  0.00    +0.000 A 
ATOM     45  C   UNL     1       7.211   4.787  22.081  0.00  0.00    +0.000 A 
ATOM     46  C   UNL     1       7.948   3.683  22.509  0.00  0.00    +0.004 A 
ENDBRANCH  40  41
ENDBRANCH   8  40
TORSDOF 13
ENDMDL
MODEL 8
REMARK VINA RESULT:      -6.9      2.314      3.686
REMARK  Name = 
REMARK  15 active torsions:
REMARK  status: ('A' for Active; 'I' for Inactive)
REMARK    1  A    between atoms: C_1  and  O_2
REMARK    2  A    between atoms: O_2  and  C_3
REMARK    3  A    between atoms: C_5  and  C_6
REMARK    4  A    between atoms: C_6  and  N_7
REMARK    5  A    between atoms: C_8  and  C_10
REMARK    6  A    between atoms: C_10  and  C_11
REMARK    7  A    between atoms: C_17  and  O_19
REMARK    8  A    between atoms: N_21  and  C_22
REMARK    9  A    between atoms: C_22  and  C_23
REMARK   10  A    between atoms: N_29  and  C_30
REMARK   11  A    between atoms: C_30  and  C_31
REMARK   12  A    between atoms: C_34  and  O_35
REMARK   13  A    between atoms: C_36  and  O_37
REMARK   14  A    between atoms: O_37  and  C_38
REMARK   15  A    between atoms: C_44  and  O_45
REMARK                            x       y       z     vdW  Elec       q    Type
REMARK                         _______ _______ _______ _____ _____    ______ ____
ROOT
ATOM      1  N   UNL     1       8.893  -0.187  24.742  0.00  0.00    -0.274 N 
ATOM      2  C   UNL     1       8.600  -1.359  25.435  0.00  0.00    +0.320 C 
ATOM      3  O   UNL     1       9.014  -1.541  26.579  0.00  0.00    -0.251 OA
ATOM      4  N   UNL     1       7.441  -1.977  24.912  0.00  0.00    -0.213 N 
ATOM      5  N   UNL     1       7.502  -2.818  23.715  0.00  0.00    -0.216 NA
ATOM      6  C   UNL     1       8.610  -2.490  22.791  0.00  0.00    +0.139 C 
ATOM      7  C   UNL     1       8.810  -0.997  22.413  0.00  0.00    +0.151 C 
ATOM      8  C   UNL     1       9.676  -0.296  23.494  0.00  0.00    +0.112 C 
ENDROOT
BRANCH   7   9
ATOM      9  O   UNL     1       9.395  -0.902  21.108  0.00  0.00    -0.389 OA
ATOM     10  H   UNL     1       8.902  -1.481  20.503  0.00  0.00    +0.210 HD
ENDBRANCH   7   9
BRANCH   1  11
ATOM     11  C   UNL     1       8.676   1.050  25.502  0.00  0.00    +0.145 C 
BRANCH  11  16
ATOM     12  C   UNL     1       5.479   1.720  27.491  0.00  0.00    +0.162 A 
ATOM     13  C   UNL     1       4.560   1.916  26.457  0.00  0.00    +0.158 A 
ATOM     14  C   UNL     1       4.952   1.740  25.130  0.00  0.00    +0.049 A 
ATOM     15  C   UNL     1       6.268   1.419  24.821  0.00  0.00    +0.009 A 
ATOM     16  C   UNL     1       7.224   1.289  25.829  0.00  0.00    -0.026 A 
ATOM     17  C   UNL     1       6.796   1.368  27.164  0.00  0.00    +0.054 A 
BRANCH  12  19
ATOM     18  C   UNL     1       6.409   1.656  29.689  0.00  0.00    +0.277 C 
ATOM     19  O   UNL     1       5.279   1.831  28.838  0.00  0.00    -0.491 OA
ENDBRANCH  12  19
BRANCH  13  20
ATOM     20  O   UNL     1       3.268   2.285  26.700  0.00  0.00    -0.503 OA
ATOM     21  H   UNL     1       2.759   1.490  26.930  0.00  0.00    +0.292 HD
ENDBRANCH  13  20
ENDBRANCH  11  16
ENDBRANCH   1  11
BRANCH   4  22
ATOM     22  C   UNL     1       6.382  -2.166  25.907  0.00  0.00    +0.164 C 
BRANCH  22  23
ATOM     23  C   UNL     1       6.228  -3.519  26.552  0.00  0.00    -0.025 A 
ATOM     24  C   UNL     1       4.965  -3.866  27.070  0.00  0.00    +0.054 A 
ATOM     25  C   UNL     1       4.760  -5.087  27.718  0.00  0.00    +0.162 A 
ATOM     26  C   UNL     1       5.848  -5.950  27.885  0.00  0.00    +0.158 A 
ATOM     27  C   UNL     1       7.115  -5.603  27.422  0.00  0.00    +0.049 A 
ATOM     28  C   UNL     1       7.304  -4.389  26.761  0.00  0.00    +0.009 A 
BRANCH  25  29
ATOM     29  O   UNL     1       3.561  -5.491  28.242  0.00  0.00    -0.491 OA
ATOM     30  C   UNL     1       2.601  -5.988  27.319  0.00  0.00    +0.277 C 
ENDBRANCH  25  29
BRANCH  26  31
ATOM     31  O   UNL     1       5.656  -7.156  28.503  0.00  0.00    -0.503 OA
ATOM     32  H   UNL     1       5.325  -6.997  29.400  0.00  0.00    +0.292 HD
ENDBRANCH  26  31
ENDBRANCH  22  23
ENDBRANCH   4  22
BRANCH   5  33
ATOM     33  C   UNL     1       6.209  -2.934  22.992  0.00  0.00    +0.141 C 
BRANCH  33  34
ATOM     34  C   UNL     1       5.406  -4.176  23.360  0.00  0.00    -0.032 A 
ATOM     35  C   UNL     1       4.014  -4.102  23.521  0.00  0.00    +0.005 A 
ATOM     36  C   UNL     1       3.261  -5.257  23.750  0.00  0.00    +0.000 A 
ATOM     37  C   UNL     1       3.891  -6.498  23.834  0.00  0.00    +0.000 A 
ATOM     38  C   UNL     1       5.278  -6.580  23.724  0.00  0.00    +0.000 A 
ATOM     39  C   UNL     1       6.032  -5.426  23.498  0.00  0.00    +0.005 A 
ENDBRANCH  33  34
ENDBRANCH   5  33
BRANCH   8  40
ATOM     40  C   UNL     1      10.395   0.985  22.971  0.00  0.00    +0.060 C 
BRANCH  40  41
ATOM     41  C   UNL     1       9.470   2.167  22.721  0.00  0.00    -0.046 A 
ATOM     42  C   UNL     1       8.397   2.020  21.830  0.00  0.00    +0.004 A 
ATOM     43  C   UNL     1       7.348   2.941  21.833  0.00  0.00    +0.000 A 
ATOM     44  C   UNL     1       7.388   4.043  22.685  0.00  0.00    +0.000 A 
ATOM     45  C   UNL     1       8.511   4.266  23.477  0.00  0.00    +0.000 A 
ATOM     46  C   UNL     1       9.562   3.349  23.473  0.00  0.00    +0.004 A 
ENDBRANCH  40  41
ENDBRANCH   8  40
TORSDOF 13
ENDMDL
MODEL 9
REMARK VINA RESULT:      -6.9      2.571      9.389
REMARK  Name = 
REMARK  15 active torsions:
REMARK  status: ('A' for Active; 'I' for Inactive)
REMARK    1  A    between atoms: C_1  and  O_2
REMARK    2  A    between atoms: O_2  and  C_3
REMARK    3  A    between atoms: C_5  and  C_6
REMARK    4  A    between atoms: C_6  and  N_7
REMARK    5  A    between atoms: C_8  and  C_10
REMARK    6  A    between atoms: C_10  and  C_11
REMARK    7  A    between atoms: C_17  and  O_19
REMARK    8  A    between atoms: N_21  and  C_22
REMARK    9  A    between atoms: C_22  and  C_23
REMARK   10  A    between atoms: N_29  and  C_30
REMARK   11  A    between atoms: C_30  and  C_31
REMARK   12  A    between atoms: C_34  and  O_35
REMARK   13  A    between atoms: C_36  and  O_37
REMARK   14  A    between atoms: O_37  and  C_38
REMARK   15  A    between atoms: C_44  and  O_45
REMARK                            x       y       z     vdW  Elec       q    Type
REMARK                         _______ _______ _______ _____ _____    ______ ____
ROOT
ATOM      1  N   UNL     1       6.694  -1.138  24.636  0.00  0.00    -0.274 N 
ATOM      2  C   UNL     1       7.809  -0.676  25.331  0.00  0.00    +0.320 C 
ATOM      3  O   UNL     1       8.906  -1.216  25.201  0.00  0.00    -0.251 OA
ATOM      4  N   UNL     1       7.637   0.673  25.720  0.00  0.00    -0.213 N 
ATOM      5  N   UNL     1       6.869   1.029  26.914  0.00  0.00    -0.216 NA
ATOM      6  C   UNL     1       5.831   0.044  27.291  0.00  0.00    +0.139 C 
ATOM      7  C   UNL     1       4.883  -0.463  26.170  0.00  0.00    +0.151 C 
ATOM      8  C   UNL     1       5.549  -1.647  25.419  0.00  0.00    +0.112 C 
ENDROOT
BRANCH   7   9
ATOM      9  O   UNL     1       3.617  -0.827  26.735  0.00  0.00    -0.389 OA
ATOM     10  H   UNL     1       2.925  -0.283  26.323  0.00  0.00    +0.210 HD
ENDBRANCH   7   9
BRANCH   1  11
ATOM     11  C   UNL     1       6.913  -1.374  23.204  0.00  0.00    +0.145 C 
BRANCH  11  16
ATOM     12  C   UNL     1       7.779  -5.099  23.229  0.00  0.00    +0.162 A 
ATOM     13  C   UNL     1       6.829  -5.598  22.335  0.00  0.00    +0.158 A 
ATOM     14  C   UNL     1       5.978  -4.724  21.658  0.00  0.00    +0.049 A 
ATOM     15  C   UNL     1       6.031  -3.358  21.905  0.00  0.00    +0.009 A 
ATOM     16  C   UNL     1       6.921  -2.839  22.847  0.00  0.00    -0.026 A 
ATOM     17  C   UNL     1       7.840  -3.715  23.445  0.00  0.00    +0.054 A 
BRANCH  12  19
ATOM     18  C   UNL     1       9.212  -5.164  25.138  0.00  0.00    +0.277 C 
ATOM     19  O   UNL     1       8.699  -5.791  23.965  0.00  0.00    -0.491 OA
ENDBRANCH  12  19
BRANCH  13  20
ATOM     20  O   UNL     1       6.696  -6.936  22.095  0.00  0.00    -0.503 OA
ATOM     21  H   UNL     1       6.989  -7.116  21.187  0.00  0.00    +0.292 HD
ENDBRANCH  13  20
ENDBRANCH  11  16
ENDBRANCH   1  11
BRANCH   4  22
ATOM     22  C   UNL     1       8.683   1.563  25.208  0.00  0.00    +0.164 C 
BRANCH  22  23
ATOM     23  C   UNL     1       8.310   2.603  24.183  0.00  0.00    -0.025 A 
ATOM     24  C   UNL     1       8.830   3.903  24.338  0.00  0.00    +0.054 A 
ATOM     25  C   UNL     1       8.494   4.927  23.450  0.00  0.00    +0.162 A 
ATOM     26  C   UNL     1       7.590   4.652  22.418  0.00  0.00    +0.158 A 
ATOM     27  C   UNL     1       7.027   3.385  22.277  0.00  0.00    +0.049 A 
ATOM     28  C   UNL     1       7.384   2.365  23.160  0.00  0.00    +0.009 A 
BRANCH  25  29
ATOM     29  O   UNL     1       8.963   6.211  23.537  0.00  0.00    -0.491 OA
ATOM     30  C   UNL     1      10.288   6.368  24.028  0.00  0.00    +0.277 C 
ENDBRANCH  25  29
BRANCH  26  31
ATOM     31  O   UNL     1       7.266   5.642  21.530  0.00  0.00    -0.503 OA
ATOM     32  H   UNL     1       8.063   5.895  21.041  0.00  0.00    +0.292 HD
ENDBRANCH  26  31
ENDBRANCH  22  23
ENDBRANCH   4  22
BRANCH   5  33
ATOM     33  C   UNL     1       6.323   2.411  26.890  0.00  0.00    +0.141 C 
BRANCH  33  34
ATOM     34  C   UNL     1       6.605   3.206  28.160  0.00  0.00    -0.032 A 
ATOM     35  C   UNL     1       6.973   2.549  29.344  0.00  0.00    +0.005 A 
ATOM     36  C   UNL     1       7.338   3.278  30.479  0.00  0.00    +0.000 A 
ATOM     37  C   UNL     1       7.328   4.672  30.449  0.00  0.00    +0.000 A 
ATOM     38  C   UNL     1       6.920   5.337  29.295  0.00  0.00    +0.000 A 
ATOM     39  C   UNL     1       6.551   4.609  28.159  0.00  0.00    +0.005 A 
ENDBRANCH  33  34
ENDBRANCH   5  33
BRANCH   8  40
ATOM     40  C   UNL     1       4.524  -2.571  24.693  0.00  0.00    +0.060 C 
BRANCH  40  41
ATOM     41  C   UNL     1       4.532  -4.015  25.170  0.00  0.00    -0.046 A 
ATOM     42  C   UNL     1       3.703  -4.951  24.534  0.00  0.00    +0.004 A 
ATOM     43  C   UNL     1       3.926  -6.318  24.702  0.00  0.00    +0.000 A 
ATOM     44  C   UNL     1       4.941  -6.763  25.546  0.00  0.00    +0.000 A 
ATOM     45  C   UNL     1       5.682  -5.841  26.283  0.00  0.00    +0.000 A 
ATOM     46  C   UNL     1       5.458  -4.475  26.120  0.00  0.00    +0.004 A 
ENDBRANCH  40  41
ENDBRANCH   8  40
TORSDOF 13
ENDMDL
