MODEL 1
REMARK VINA RESULT:      -6.3      0.000      0.000
REMARK  Name = 
REMARK  13 active torsions:
REMARK  status: ('A' for Active; 'I' for Inactive)
REMARK    1  A    between atoms: C_5  and  C_6
REMARK    2  A    between atoms: C_6  and  S_7
REMARK    3  A    between atoms: S_7  and  C_8
REMARK    4  A    between atoms: N_12  and  C_13
REMARK    5  A    between atoms: C_14  and  C_29
REMARK    6  A    between atoms: C_18  and  N_19
REMARK    7  A    between atoms: C_18  and  O_27
REMARK    8  A    between atoms: C_20  and  C_22
REMARK    9  A    between atoms: C_22  and  S_23
REMARK   10  A    between atoms: S_23  and  C_24
REMARK   11  A    between atoms: C_24  and  C_25
REMARK   12  A    between atoms: O_27  and  C_28
REMARK   13  A    between atoms: C_29  and  O_30
REMARK                            x       y       z     vdW  Elec       q    Type
REMARK                         _______ _______ _______ _____ _____    ______ ____
ROOT
ATOM      1  C   UNL     1       9.016  -0.999  25.433  0.00  0.00    +0.199 C 
ATOM      2  C   UNL     1       9.691  -0.278  24.177  0.00  0.00    +0.242 C 
ATOM      3  C   UNL     1       9.836  -1.814  23.700  0.00  0.00    +0.275 C 
ATOM      4  O   UNL     1      10.383  -2.471  22.841  0.00  0.00    -0.270 OA
ATOM      5  N   UNL     1       8.954  -2.219  24.646  0.00  0.00    -0.244 N 
ATOM      6  C   UNL     1       8.272  -3.353  25.030  0.00  0.00    +0.123 C 
ATOM      7  C   UNL     1       7.348  -3.275  26.041  0.00  0.00    -0.021 C 
ATOM      8  C   UNL     1       7.009  -1.991  26.790  0.00  0.00    +0.104 C 
ATOM      9  S   UNL     1       7.337  -0.479  25.851  0.00  0.00    -0.128 S 
ENDROOT
BRANCH   2  10
ATOM     10  N   UNL     1       8.744   0.559  23.374  0.00  0.00    -0.277 N 
ATOM     11  H   UNL     1       7.963   0.991  23.860  0.00  0.00    +0.152 HD
ATOM     12  C   UNL     1       8.860   0.746  22.015  0.00  0.00    +0.225 C 
ATOM     13  O   UNL     1       9.764   0.264  21.344  0.00  0.00    -0.275 OA
BRANCH  12  14
ATOM     14  C   UNL     1       7.815   1.647  21.393  0.00  0.00    +0.165 C 
BRANCH  14  15
ATOM     15  S   UNL     1       6.807   2.451  22.664  0.00  0.00    -0.137 S 
BRANCH  15  16
ATOM     16  C   UNL     1       7.312   4.239  22.489  0.00  0.00    +0.187 C 
BRANCH  16  17
ATOM     17  C   UNL     1       8.247   4.509  23.657  0.00  0.00    +0.073 C 
ATOM     18  N   UNL     1       9.022   4.733  24.626  0.00  0.00    -0.196 NA
ENDBRANCH  16  17
ENDBRANCH  15  16
ENDBRANCH  14  15
ENDBRANCH  12  14
ENDBRANCH   2  10
BRANCH   2  19
ATOM     19  O   UNL     1      10.921   0.410  24.533  0.00  0.00    -0.349 OA
ATOM     20  C   UNL     1      11.035   1.787  24.200  0.00  0.00    +0.197 C 
ENDBRANCH   2  19
BRANCH   6  21
ATOM     21  C   UNL     1       8.503  -4.684  24.330  0.00  0.00    +0.351 C 
ATOM     22  O   UNL     1       9.319  -5.513  24.707  0.00  0.00    -0.244 OA
BRANCH  21  23
ATOM     23  O   UNL     1       7.796  -4.942  23.218  0.00  0.00    -0.476 OA
ATOM     24  H   UNL     1       7.375  -4.201  22.731  0.00  0.00    +0.295 HD
ENDBRANCH  21  23
ENDBRANCH   6  21
BRANCH   7  25
ATOM     25  C   UNL     1       6.450  -4.422  26.524  0.00  0.00    +0.111 C 
BRANCH  25  26
ATOM     26  S   UNL     1       4.707  -4.122  26.088  0.00  0.00    -0.080 S 
BRANCH  26  27
ATOM     27  C   UNL     1       4.773  -4.400  24.380  0.00  0.00    +0.209 A 
ATOM     28  N   UNL     1       4.621  -5.620  23.784  0.00  0.00    -0.223 N 
ATOM     29  C   UNL     1       4.419  -6.917  24.363  0.00  0.00    +0.177 C 
ATOM     30  N   UNL     1       4.685  -5.475  22.447  0.00  0.00    -0.043 NA
ATOM     31  N   UNL     1       4.883  -4.180  22.247  0.00  0.00    -0.022 NA
ATOM     32  N   UNL     1       4.938  -3.496  23.439  0.00  0.00    -0.102 NA
ENDBRANCH  26  27
ENDBRANCH  25  26
ENDBRANCH   7  25
TORSDOF 11
ENDMDL
MODEL 2
REMARK VINA RESULT:      -6.1      2.117      7.195
REMARK  Name = 
REMARK  13 active torsions:
REMARK  status: ('A' for Active; 'I' for Inactive)
REMARK    1  A    between atoms: C_5  and  C_6
REMARK    2  A    between atoms: C_6  and  S_7
REMARK    3  A    between atoms: S_7  and  C_8
REMARK    4  A    between atoms: N_12  and  C_13
REMARK    5  A    between atoms: C_14  and  C_29
REMARK    6  A    between atoms: C_18  and  N_19
REMARK    7  A    between atoms: C_18  and  O_27
REMARK    8  A    between atoms: C_20  and  C_22
REMARK    9  A    between atoms: C_22  and  S_23
REMARK   10  A    between atoms: S_23  and  C_24
REMARK   11  A    between atoms: C_24  and  C_25
REMARK   12  A    between atoms: O_27  and  C_28
REMARK   13  A    between atoms: C_29  and  O_30
REMARK                            x       y       z     vdW  Elec       q    Type
REMARK                         _______ _______ _______ _____ _____    ______ ____
ROOT
ATOM      1  C   UNL     1       8.478  -3.128  23.832  0.00  0.00    +0.199 C 
ATOM      2  C   UNL     1       7.688  -3.690  25.102  0.00  0.00    +0.242 C 
ATOM      3  C   UNL     1       8.489  -2.482  25.813  0.00  0.00    +0.275 C 
ATOM      4  O   UNL     1       8.732  -2.055  26.921  0.00  0.00    -0.270 OA
ATOM      5  N   UNL     1       8.795  -1.941  24.608  0.00  0.00    -0.244 N 
ATOM      6  C   UNL     1       9.367  -0.803  24.082  0.00  0.00    +0.123 C 
ATOM      7  C   UNL     1       9.377  -0.619  22.723  0.00  0.00    -0.021 C 
ATOM      8  C   UNL     1       8.783  -1.606  21.724  0.00  0.00    +0.104 C 
ATOM      9  S   UNL     1       7.474  -2.652  22.408  0.00  0.00    -0.128 S 
ENDROOT
BRANCH   2  10
ATOM     10  N   UNL     1       6.202  -3.518  25.021  0.00  0.00    -0.277 N 
ATOM     11  H   UNL     1       5.790  -3.382  24.102  0.00  0.00    +0.152 HD
ATOM     12  C   UNL     1       5.378  -3.505  26.123  0.00  0.00    +0.225 C 
ATOM     13  O   UNL     1       5.782  -3.658  27.268  0.00  0.00    -0.275 OA
BRANCH  12  14
ATOM     14  C   UNL     1       3.902  -3.343  25.826  0.00  0.00    +0.165 C 
BRANCH  14  15
ATOM     15  S   UNL     1       3.017  -4.906  26.047  0.00  0.00    -0.137 S 
BRANCH  15  16
ATOM     16  C   UNL     1       2.294  -5.189  24.351  0.00  0.00    +0.187 C 
BRANCH  16  17
ATOM     17  C   UNL     1       3.454  -5.014  23.384  0.00  0.00    +0.073 C 
ATOM     18  N   UNL     1       4.416  -4.869  22.582  0.00  0.00    -0.196 NA
ENDBRANCH  16  17
ENDBRANCH  15  16
ENDBRANCH  14  15
ENDBRANCH  12  14
ENDBRANCH   2  10
BRANCH   2  19
ATOM     19  O   UNL     1       8.102  -5.039  25.454  0.00  0.00    -0.349 OA
ATOM     20  C   UNL     1       9.492  -5.330  25.458  0.00  0.00    +0.197 C 
ENDBRANCH   2  19
BRANCH   6  21
ATOM     21  C   UNL     1       9.961   0.268  24.985  0.00  0.00    +0.351 C 
ATOM     22  O   UNL     1      11.153   0.541  25.018  0.00  0.00    -0.244 OA
BRANCH  21  23
ATOM     23  O   UNL     1       9.132   0.921  25.816  0.00  0.00    -0.476 OA
ATOM     24  H   UNL     1       8.597   0.412  26.463  0.00  0.00    +0.295 HD
ENDBRANCH  21  23
ENDBRANCH   6  21
BRANCH   7  25
ATOM     25  C   UNL     1       9.896   0.626  21.992  0.00  0.00    +0.111 C 
BRANCH  25  26
ATOM     26  S   UNL     1       8.528   1.740  21.536  0.00  0.00    -0.080 S 
BRANCH  26  27
ATOM     27  C   UNL     1       8.367   2.635  23.010  0.00  0.00    +0.209 A 
ATOM     28  N   UNL     1       7.236   2.677  23.775  0.00  0.00    -0.223 N 
ATOM     29  C   UNL     1       5.953   2.070  23.569  0.00  0.00    +0.177 C 
ATOM     30  N   UNL     1       7.466   3.426  24.870  0.00  0.00    -0.043 NA
ATOM     31  N   UNL     1       8.721   3.837  24.754  0.00  0.00    -0.022 NA
ATOM     32  N   UNL     1       9.297   3.351  23.603  0.00  0.00    -0.102 NA
ENDBRANCH  26  27
ENDBRANCH  25  26
ENDBRANCH   7  25
TORSDOF 11
ENDMDL
MODEL 3
REMARK VINA RESULT:      -6.0      1.930      8.048
REMARK  Name = 
REMARK  13 active torsions:
REMARK  status: ('A' for Active; 'I' for Inactive)
REMARK    1  A    between atoms: C_5  and  C_6
REMARK    2  A    between atoms: C_6  and  S_7
REMARK    3  A    between atoms: S_7  and  C_8
REMARK    4  A    between atoms: N_12  and  C_13
REMARK    5  A    between atoms: C_14  and  C_29
REMARK    6  A    between atoms: C_18  and  N_19
REMARK    7  A    between atoms: C_18  and  O_27
REMARK    8  A    between atoms: C_20  and  C_22
REMARK    9  A    between atoms: C_22  and  S_23
REMARK   10  A    between atoms: S_23  and  C_24
REMARK   11  A    between atoms: C_24  and  C_25
REMARK   12  A    between atoms: O_27  and  C_28
REMARK   13  A    between atoms: C_29  and  O_30
REMARK                            x       y       z     vdW  Elec       q    Type
REMARK                         _______ _______ _______ _____ _____    ______ ____
ROOT
ATOM      1  C   UNL     1       7.025  -1.811  23.410  0.00  0.00    +0.199 C 
ATOM      2  C   UNL     1       7.694  -3.260  23.501  0.00  0.00    +0.242 C 
ATOM      3  C   UNL     1       9.035  -2.360  23.483  0.00  0.00    +0.275 C 
ATOM      4  O   UNL     1      10.236  -2.486  23.376  0.00  0.00    -0.270 OA
ATOM      5  N   UNL     1       8.318  -1.241  23.750  0.00  0.00    -0.244 N 
ATOM      6  C   UNL     1       8.520   0.086  24.060  0.00  0.00    +0.123 C 
ATOM      7  C   UNL     1       7.443   0.878  24.371  0.00  0.00    -0.021 C 
ATOM      8  C   UNL     1       6.001   0.384  24.402  0.00  0.00    +0.104 C 
ATOM      9  S   UNL     1       5.836  -1.393  24.703  0.00  0.00    -0.128 S 
ENDROOT
BRANCH   2  10
ATOM     10  N   UNL     1       7.418  -3.979  24.785  0.00  0.00    -0.277 N 
ATOM     11  H   UNL     1       6.617  -3.678  25.335  0.00  0.00    +0.152 HD
ATOM     12  C   UNL     1       8.206  -4.998  25.270  0.00  0.00    +0.225 C 
ATOM     13  O   UNL     1       9.190  -5.426  24.682  0.00  0.00    -0.275 OA
BRANCH  12  14
ATOM     14  C   UNL     1       7.742  -5.611  26.574  0.00  0.00    +0.165 C 
BRANCH  14  15
ATOM     15  S   UNL     1       6.156  -4.914  27.095  0.00  0.00    -0.137 S 
BRANCH  15  16
ATOM     16  C   UNL     1       5.080  -6.434  27.213  0.00  0.00    +0.187 C 
BRANCH  16  17
ATOM     17  C   UNL     1       4.772  -6.822  25.774  0.00  0.00    +0.073 C 
ATOM     18  N   UNL     1       4.517  -7.143  24.583  0.00  0.00    -0.196 NA
ENDBRANCH  16  17
ENDBRANCH  15  16
ENDBRANCH  14  15
ENDBRANCH  12  14
ENDBRANCH   2  10
BRANCH   2  19
ATOM     19  O   UNL     1       7.434  -4.061  22.315  0.00  0.00    -0.349 OA
ATOM     20  C   UNL     1       6.192  -3.881  21.649  0.00  0.00    +0.197 C 
ENDBRANCH   2  19
BRANCH   6  21
ATOM     21  C   UNL     1       9.920   0.682  24.094  0.00  0.00    +0.351 C 
ATOM     22  O   UNL     1      10.455   1.208  23.128  0.00  0.00    -0.244 OA
BRANCH  21  23
ATOM     23  O   UNL     1      10.615   0.591  25.239  0.00  0.00    -0.476 OA
ATOM     24  H   UNL     1      10.458   1.245  25.953  0.00  0.00    +0.295 HD
ENDBRANCH  21  23
ENDBRANCH   6  21
BRANCH   7  25
ATOM     25  C   UNL     1       7.510   2.344  24.819  0.00  0.00    +0.111 C 
BRANCH  25  26
ATOM     26  S   UNL     1       7.062   3.469  23.457  0.00  0.00    -0.080 S 
BRANCH  26  27
ATOM     27  C   UNL     1       8.367   4.603  23.563  0.00  0.00    +0.209 A 
ATOM     28  N   UNL     1       8.362   5.849  23.003  0.00  0.00    -0.223 N 
ATOM     29  C   UNL     1       7.368   6.502  22.201  0.00  0.00    +0.177 C 
ATOM     30  N   UNL     1       9.509   6.482  23.313  0.00  0.00    -0.043 NA
ATOM     31  N   UNL     1      10.198   5.615  24.043  0.00  0.00    -0.022 NA
ATOM     32  N   UNL     1       9.500   4.442  24.210  0.00  0.00    -0.102 NA
ENDBRANCH  26  27
ENDBRANCH  25  26
ENDBRANCH   7  25
TORSDOF 11
ENDMDL
MODEL 4
REMARK VINA RESULT:      -6.0      2.806      4.281
REMARK  Name = 
REMARK  13 active torsions:
REMARK  status: ('A' for Active; 'I' for Inactive)
REMARK    1  A    between atoms: C_5  and  C_6
REMARK    2  A    between atoms: C_6  and  S_7
REMARK    3  A    between atoms: S_7  and  C_8
REMARK    4  A    between atoms: N_12  and  C_13
REMARK    5  A    between atoms: C_14  and  C_29
REMARK    6  A    between atoms: C_18  and  N_19
REMARK    7  A    between atoms: C_18  and  O_27
REMARK    8  A    between atoms: C_20  and  C_22
REMARK    9  A    between atoms: C_22  and  S_23
REMARK   10  A    between atoms: S_23  and  C_24
REMARK   11  A    between atoms: C_24  and  C_25
REMARK   12  A    between atoms: O_27  and  C_28
REMARK   13  A    between atoms: C_29  and  O_30
REMARK                            x       y       z     vdW  Elec       q    Type
REMARK                         _______ _______ _______ _____ _____    ______ ____
ROOT
ATOM      1  C   UNL     1       7.690  -4.015  25.495  0.00  0.00    +0.199 C 
ATOM      2  C   UNL     1       8.772  -3.620  24.388  0.00  0.00    +0.242 C 
ATOM      3  C   UNL     1       7.709  -4.385  23.444  0.00  0.00    +0.275 C 
ATOM      4  O   UNL     1       7.609  -4.811  22.313  0.00  0.00    -0.270 OA
ATOM      5  N   UNL     1       6.767  -4.331  24.417  0.00  0.00    -0.244 N 
ATOM      6  C   UNL     1       5.429  -4.606  24.601  0.00  0.00    +0.123 C 
ATOM      7  C   UNL     1       4.831  -4.282  25.793  0.00  0.00    -0.021 C 
ATOM      8  C   UNL     1       5.557  -3.620  26.959  0.00  0.00    +0.104 C 
ATOM      9  S   UNL     1       7.011  -2.658  26.475  0.00  0.00    -0.128 S 
ENDROOT
BRANCH   2  10
ATOM     10  N   UNL     1       8.896  -2.145  24.156  0.00  0.00    -0.277 N 
ATOM     11  H   UNL     1       8.260  -1.531  24.657  0.00  0.00    +0.152 HD
ATOM     12  C   UNL     1       9.799  -1.587  23.281  0.00  0.00    +0.225 C 
ATOM     13  O   UNL     1      10.602  -2.245  22.631  0.00  0.00    -0.275 OA
BRANCH  12  14
ATOM     14  C   UNL     1       9.781  -0.075  23.208  0.00  0.00    +0.165 C 
BRANCH  14  15
ATOM     15  S   UNL     1       9.211   0.493  21.587  0.00  0.00    -0.137 S 
BRANCH  15  16
ATOM     16  C   UNL     1       7.721   1.523  22.036  0.00  0.00    +0.187 C 
BRANCH  16  17
ATOM     17  C   UNL     1       6.973   0.714  23.084  0.00  0.00    +0.073 C 
ATOM     18  N   UNL     1       6.353   0.043  23.952  0.00  0.00    -0.196 NA
ENDBRANCH  16  17
ENDBRANCH  15  16
ENDBRANCH  14  15
ENDBRANCH  12  14
ENDBRANCH   2  10
BRANCH   2  19
ATOM     19  O   UNL     1      10.047  -4.286  24.602  0.00  0.00    -0.349 OA
ATOM     20  C   UNL     1      10.131  -5.244  25.648  0.00  0.00    +0.197 C 
ENDBRANCH   2  19
BRANCH   6  21
ATOM     21  C   UNL     1       4.596  -5.234  23.493  0.00  0.00    +0.351 C 
ATOM     22  O   UNL     1       3.815  -4.604  22.795  0.00  0.00    -0.244 OA
BRANCH  21  23
ATOM     23  O   UNL     1       4.702  -6.559  23.301  0.00  0.00    -0.476 OA
ATOM     24  H   UNL     1       5.196  -7.104  23.951  0.00  0.00    +0.295 HD
ENDBRANCH  21  23
ENDBRANCH   6  21
BRANCH   7  25
ATOM     25  C   UNL     1       3.341  -4.443  26.119  0.00  0.00    +0.111 C 
BRANCH  25  26
ATOM     26  S   UNL     1       2.906  -6.197  26.357  0.00  0.00    -0.080 S 
BRANCH  26  27
ATOM     27  C   UNL     1       4.040  -6.622  27.595  0.00  0.00    +0.209 A 
ATOM     28  N   UNL     1       3.819  -6.477  28.935  0.00  0.00    -0.223 N 
ATOM     29  C   UNL     1       2.689  -5.938  29.637  0.00  0.00    +0.177 C 
ATOM     30  N   UNL     1       4.883  -6.943  29.615  0.00  0.00    -0.043 NA
ATOM     31  N   UNL     1       5.737  -7.353  28.688  0.00  0.00    -0.022 NA
ATOM     32  N   UNL     1       5.226  -7.163  27.425  0.00  0.00    -0.102 NA
ENDBRANCH  26  27
ENDBRANCH  25  26
ENDBRANCH   7  25
TORSDOF 11
ENDMDL
MODEL 5
REMARK VINA RESULT:      -6.0      1.396      1.776
REMARK  Name = 
REMARK  13 active torsions:
REMARK  status: ('A' for Active; 'I' for Inactive)
REMARK    1  A    between atoms: C_5  and  C_6
REMARK    2  A    between atoms: C_6  and  S_7
REMARK    3  A    between atoms: S_7  and  C_8
REMARK    4  A    between atoms: N_12  and  C_13
REMARK    5  A    between atoms: C_14  and  C_29
REMARK    6  A    between atoms: C_18  and  N_19
REMARK    7  A    between atoms: C_18  and  O_27
REMARK    8  A    between atoms: C_20  and  C_22
REMARK    9  A    between atoms: C_22  and  S_23
REMARK   10  A    between atoms: S_23  and  C_24
REMARK   11  A    between atoms: C_24  and  C_25
REMARK   12  A    between atoms: O_27  and  C_28
REMARK   13  A    between atoms: C_29  and  O_30
REMARK                            x       y       z     vdW  Elec       q    Type
REMARK                         _______ _______ _______ _____ _____    ______ ____
ROOT
ATOM      1  C   UNL     1       9.264  -1.833  24.772  0.00  0.00    +0.199 C 
ATOM      2  C   UNL     1       9.219  -0.659  23.689  0.00  0.00    +0.242 C 
ATOM      3  C   UNL     1       8.883  -1.910  22.725  0.00  0.00    +0.275 C 
ATOM      4  O   UNL     1       8.779  -2.170  21.545  0.00  0.00    -0.270 OA
ATOM      5  N   UNL     1       8.625  -2.700  23.795  0.00  0.00    -0.244 N 
ATOM      6  C   UNL     1       8.132  -3.954  24.081  0.00  0.00    +0.123 C 
ATOM      7  C   UNL     1       7.937  -4.322  25.388  0.00  0.00    -0.021 C 
ATOM      8  C   UNL     1       8.231  -3.419  26.581  0.00  0.00    +0.104 C 
ATOM      9  S   UNL     1       8.174  -1.650  26.201  0.00  0.00    -0.128 S 
ENDROOT
BRANCH   2  10
ATOM     10  N   UNL     1       8.100   0.316  23.894  0.00  0.00    -0.277 N 
ATOM     11  H   UNL     1       7.652   0.340  24.806  0.00  0.00    +0.152 HD
ATOM     12  C   UNL     1       7.631   1.152  22.906  0.00  0.00    +0.225 C 
ATOM     13  O   UNL     1       8.104   1.192  21.778  0.00  0.00    -0.275 OA
BRANCH  12  14
ATOM     14  C   UNL     1       6.509   2.080  23.322  0.00  0.00    +0.165 C 
BRANCH  14  15
ATOM     15  S   UNL     1       6.872   3.790  22.856  0.00  0.00    -0.137 S 
BRANCH  15  16
ATOM     16  C   UNL     1       8.491   4.099  23.731  0.00  0.00    +0.187 C 
BRANCH  16  17
ATOM     17  C   UNL     1       8.147   4.139  25.212  0.00  0.00    +0.073 C 
ATOM     18  N   UNL     1       7.862   4.172  26.439  0.00  0.00    -0.196 NA
ENDBRANCH  16  17
ENDBRANCH  15  16
ENDBRANCH  14  15
ENDBRANCH  12  14
ENDBRANCH   2  10
BRANCH   2  19
ATOM     19  O   UNL     1      10.517  -0.029  23.507  0.00  0.00    -0.349 OA
ATOM     20  C   UNL     1      10.927   0.939  24.463  0.00  0.00    +0.197 C 
ENDBRANCH   2  19
BRANCH   6  21
ATOM     21  C   UNL     1       7.770  -4.928  22.969  0.00  0.00    +0.351 C 
ATOM     22  O   UNL     1       8.308  -6.017  22.822  0.00  0.00    -0.244 OA
BRANCH  21  23
ATOM     23  O   UNL     1       6.835  -4.552  22.082  0.00  0.00    -0.476 OA
ATOM     24  H   UNL     1       5.891  -4.541  22.350  0.00  0.00    +0.295 HD
ENDBRANCH  21  23
ENDBRANCH   6  21
BRANCH   7  25
ATOM     25  C   UNL     1       7.318  -5.643  25.864  0.00  0.00    +0.111 C 
BRANCH  25  26
ATOM     26  S   UNL     1       5.582  -5.413  26.367  0.00  0.00    -0.080 S 
BRANCH  26  27
ATOM     27  C   UNL     1       4.844  -5.209  24.814  0.00  0.00    +0.209 A 
ATOM     28  N   UNL     1       4.483  -4.006  24.276  0.00  0.00    -0.223 N 
ATOM     29  C   UNL     1       4.572  -2.682  24.821  0.00  0.00    +0.177 C 
ATOM     30  N   UNL     1       3.980  -4.202  23.043  0.00  0.00    -0.043 NA
ATOM     31  N   UNL     1       4.031  -5.513  22.850  0.00  0.00    -0.022 NA
ATOM     32  N   UNL     1       4.568  -6.153  23.942  0.00  0.00    -0.102 NA
ENDBRANCH  26  27
ENDBRANCH  25  26
ENDBRANCH   7  25
TORSDOF 11
ENDMDL
MODEL 6
REMARK VINA RESULT:      -5.9      2.402      2.913
REMARK  Name = 
REMARK  13 active torsions:
REMARK  status: ('A' for Active; 'I' for Inactive)
REMARK    1  A    between atoms: C_5  and  C_6
REMARK    2  A    between atoms: C_6  and  S_7
REMARK    3  A    between atoms: S_7  and  C_8
REMARK    4  A    between atoms: N_12  and  C_13
REMARK    5  A    between atoms: C_14  and  C_29
REMARK    6  A    between atoms: C_18  and  N_19
REMARK    7  A    between atoms: C_18  and  O_27
REMARK    8  A    between atoms: C_20  and  C_22
REMARK    9  A    between atoms: C_22  and  S_23
REMARK   10  A    between atoms: S_23  and  C_24
REMARK   11  A    between atoms: C_24  and  C_25
REMARK   12  A    between atoms: O_27  and  C_28
REMARK   13  A    between atoms: C_29  and  O_30
REMARK                            x       y       z     vdW  Elec       q    Type
REMARK                         _______ _______ _______ _____ _____    ______ ____
ROOT
ATOM      1  C   UNL     1       8.276  -1.434  24.585  0.00  0.00    +0.199 C 
ATOM      2  C   UNL     1       9.108  -0.412  23.683  0.00  0.00    +0.242 C 
ATOM      3  C   UNL     1       8.669  -1.464  22.539  0.00  0.00    +0.275 C 
ATOM      4  O   UNL     1       8.904  -1.725  21.379  0.00  0.00    -0.270 OA
ATOM      5  N   UNL     1       7.743  -2.012  23.363  0.00  0.00    -0.244 N 
ATOM      6  C   UNL     1       6.716  -2.930  23.326  0.00  0.00    +0.123 C 
ATOM      7  C   UNL     1       5.928  -3.107  24.435  0.00  0.00    -0.021 C 
ATOM      8  C   UNL     1       6.109  -2.341  25.740  0.00  0.00    +0.104 C 
ATOM      9  S   UNL     1       6.918  -0.733  25.548  0.00  0.00    -0.128 S 
ENDROOT
BRANCH   2  10
ATOM     10  N   UNL     1       8.492   0.949  23.577  0.00  0.00    -0.277 N 
ATOM     11  H   UNL     1       7.778   1.200  24.255  0.00  0.00    +0.152 HD
ATOM     12  C   UNL     1       8.821   1.857  22.597  0.00  0.00    +0.225 C 
ATOM     13  O   UNL     1       9.665   1.644  21.737  0.00  0.00    -0.275 OA
BRANCH  12  14
ATOM     14  C   UNL     1       8.102   3.187  22.679  0.00  0.00    +0.165 C 
BRANCH  14  15
ATOM     15  S   UNL     1       8.583   4.098  24.167  0.00  0.00    -0.137 S 
BRANCH  15  16
ATOM     16  C   UNL     1       9.065   5.760  23.469  0.00  0.00    +0.187 C 
BRANCH  16  17
ATOM     17  C   UNL     1      10.554   5.896  23.745  0.00  0.00    +0.073 C 
ATOM     18  N   UNL     1      11.788   6.009  23.974  0.00  0.00    -0.196 NA
ENDBRANCH  16  17
ENDBRANCH  15  16
ENDBRANCH  14  15
ENDBRANCH  12  14
ENDBRANCH   2  10
BRANCH   2  19
ATOM     19  O   UNL     1      10.519  -0.389  24.036  0.00  0.00    -0.349 OA
ATOM     20  C   UNL     1      10.959   0.600  24.956  0.00  0.00    +0.197 C 
ENDBRANCH   2  19
BRANCH   6  21
ATOM     21  C   UNL     1       6.421  -3.729  22.064  0.00  0.00    +0.351 C 
ATOM     22  O   UNL     1       5.535  -3.439  21.272  0.00  0.00    -0.244 OA
BRANCH  21  23
ATOM     23  O   UNL     1       7.152  -4.831  21.832  0.00  0.00    -0.476 OA
ATOM     24  H   UNL     1       6.906  -5.426  21.090  0.00  0.00    +0.295 HD
ENDBRANCH  21  23
ENDBRANCH   6  21
BRANCH   7  25
ATOM     25  C   UNL     1       4.700  -4.022  24.524  0.00  0.00    +0.111 C 
BRANCH  25  26
ATOM     26  S   UNL     1       5.191  -5.769  24.694  0.00  0.00    -0.080 S 
BRANCH  26  27
ATOM     27  C   UNL     1       6.044  -5.694  26.199  0.00  0.00    +0.209 A 
ATOM     28  N   UNL     1       5.450  -5.606  27.426  0.00  0.00    -0.223 N 
ATOM     29  C   UNL     1       4.064  -5.518  27.782  0.00  0.00    +0.177 C 
ATOM     30  N   UNL     1       6.399  -5.613  28.382  0.00  0.00    -0.043 NA
ATOM     31  N   UNL     1       7.550  -5.693  27.729  0.00  0.00    -0.022 NA
ATOM     32  N   UNL     1       7.347  -5.748  26.370  0.00  0.00    -0.102 NA
ENDBRANCH  26  27
ENDBRANCH  25  26
ENDBRANCH   7  25
TORSDOF 11
ENDMDL
MODEL 7
REMARK VINA RESULT:      -5.9      2.899      7.253
REMARK  Name = 
REMARK  13 active torsions:
REMARK  status: ('A' for Active; 'I' for Inactive)
REMARK    1  A    between atoms: C_5  and  C_6
REMARK    2  A    between atoms: C_6  and  S_7
REMARK    3  A    between atoms: S_7  and  C_8
REMARK    4  A    between atoms: N_12  and  C_13
REMARK    5  A    between atoms: C_14  and  C_29
REMARK    6  A    between atoms: C_18  and  N_19
REMARK    7  A    between atoms: C_18  and  O_27
REMARK    8  A    between atoms: C_20  and  C_22
REMARK    9  A    between atoms: C_22  and  S_23
REMARK   10  A    between atoms: S_23  and  C_24
REMARK   11  A    between atoms: C_24  and  C_25
REMARK   12  A    between atoms: O_27  and  C_28
REMARK   13  A    between atoms: C_29  and  O_30
REMARK                            x       y       z     vdW  Elec       q    Type
REMARK                         _______ _______ _______ _____ _____    ______ ____
ROOT
ATOM      1  C   UNL     1       8.096  -4.694  26.488  0.00  0.00    +0.199 C 
ATOM      2  C   UNL     1       6.787  -5.425  27.039  0.00  0.00    +0.242 C 
ATOM      3  C   UNL     1       6.324  -3.890  27.234  0.00  0.00    +0.275 C 
ATOM      4  O   UNL     1       5.440  -3.247  27.758  0.00  0.00    -0.270 OA
ATOM      5  N   UNL     1       7.333  -3.458  26.439  0.00  0.00    -0.244 N 
ATOM      6  C   UNL     1       7.779  -2.298  25.844  0.00  0.00    +0.123 C 
ATOM      7  C   UNL     1       8.848  -2.346  24.986  0.00  0.00    -0.021 C 
ATOM      8  C   UNL     1       9.599  -3.624  24.630  0.00  0.00    +0.104 C 
ATOM      9  S   UNL     1       8.617  -5.134  24.815  0.00  0.00    -0.128 S 
ENDROOT
BRANCH   2  10
ATOM     10  N   UNL     1       6.036  -6.197  25.998  0.00  0.00    -0.277 N 
ATOM     11  H   UNL     1       6.572  -6.635  25.254  0.00  0.00    +0.152 HD
ATOM     12  C   UNL     1       4.665  -6.316  25.983  0.00  0.00    +0.225 C 
ATOM     13  O   UNL     1       3.937  -5.823  26.834  0.00  0.00    -0.275 OA
BRANCH  12  14
ATOM     14  C   UNL     1       4.101  -7.160  24.859  0.00  0.00    +0.165 C 
BRANCH  14  15
ATOM     15  S   UNL     1       3.471  -6.121  23.518  0.00  0.00    -0.137 S 
BRANCH  15  16
ATOM     16  C   UNL     1       5.041  -5.625  22.638  0.00  0.00    +0.187 C 
BRANCH  16  17
ATOM     17  C   UNL     1       5.262  -4.165  23.003  0.00  0.00    +0.073 C 
ATOM     18  N   UNL     1       5.446  -2.956  23.305  0.00  0.00    -0.196 NA
ENDBRANCH  16  17
ENDBRANCH  15  16
ENDBRANCH  14  15
ENDBRANCH  12  14
ENDBRANCH   2  10
BRANCH   2  19
ATOM     19  O   UNL     1       7.050  -6.183  28.252  0.00  0.00    -0.349 OA
ATOM     20  C   UNL     1       6.064  -6.165  29.276  0.00  0.00    +0.197 C 
ENDBRANCH   2  19
BRANCH   6  21
ATOM     21  C   UNL     1       7.085  -0.967  26.100  0.00  0.00    +0.351 C 
ATOM     22  O   UNL     1       7.428  -0.182  26.972  0.00  0.00    -0.244 OA
BRANCH  21  23
ATOM     23  O   UNL     1       6.016  -0.660  25.346  0.00  0.00    -0.476 OA
ATOM     24  H   UNL     1       5.204  -0.318  25.778  0.00  0.00    +0.295 HD
ENDBRANCH  21  23
ENDBRANCH   6  21
BRANCH   7  25
ATOM     25  C   UNL     1       9.407  -1.163  24.184  0.00  0.00    +0.111 C 
BRANCH  25  26
ATOM     26  S   UNL     1       8.693  -1.108  22.509  0.00  0.00    -0.080 S 
BRANCH  26  27
ATOM     27  C   UNL     1       7.993   0.475  22.533  0.00  0.00    +0.209 A 
ATOM     28  N   UNL     1       8.681   1.633  22.305  0.00  0.00    -0.223 N 
ATOM     29  C   UNL     1      10.075   1.848  22.041  0.00  0.00    +0.177 C 
ATOM     30  N   UNL     1       7.830   2.675  22.355  0.00  0.00    -0.043 NA
ATOM     31  N   UNL     1       6.644   2.144  22.621  0.00  0.00    -0.022 NA
ATOM     32  N   UNL     1       6.729   0.775  22.732  0.00  0.00    -0.102 NA
ENDBRANCH  26  27
ENDBRANCH  25  26
ENDBRANCH   7  25
TORSDOF 11
ENDMDL
MODEL 8
REMARK VINA RESULT:      -5.8      2.739      7.281
REMARK  Name = 
REMARK  13 active torsions:
REMARK  status: ('A' for Active; 'I' for Inactive)
REMARK    1  A    between atoms: C_5  and  C_6
REMARK    2  A    between atoms: C_6  and  S_7
REMARK    3  A    between atoms: S_7  and  C_8
REMARK    4  A    between atoms: N_12  and  C_13
REMARK    5  A    between atoms: C_14  and  C_29
REMARK    6  A    between atoms: C_18  and  N_19
REMARK    7  A    between atoms: C_18  and  O_27
REMARK    8  A    between atoms: C_20  and  C_22
REMARK    9  A    between atoms: C_22  and  S_23
REMARK   10  A    between atoms: S_23  and  C_24
REMARK   11  A    between atoms: C_24  and  C_25
REMARK   12  A    between atoms: O_27  and  C_28
REMARK   13  A    between atoms: C_29  and  O_30
REMARK                            x       y       z     vdW  Elec       q    Type
REMARK                         _______ _______ _______ _____ _____    ______ ____
ROOT
ATOM      1  C   UNL     1       5.413  -5.356  24.340  0.00  0.00    +0.199 C 
ATOM      2  C   UNL     1       4.851  -5.869  25.745  0.00  0.00    +0.242 C 
ATOM      3  C   UNL     1       6.396  -5.640  26.156  0.00  0.00    +0.275 C 
ATOM      4  O   UNL     1       7.157  -5.871  27.070  0.00  0.00    -0.270 OA
ATOM      5  N   UNL     1       6.615  -4.918  25.030  0.00  0.00    -0.244 N 
ATOM      6  C   UNL     1       7.598  -4.143  24.454  0.00  0.00    +0.123 C 
ATOM      7  C   UNL     1       7.334  -3.479  23.282  0.00  0.00    -0.021 C 
ATOM      8  C   UNL     1       5.997  -3.535  22.552  0.00  0.00    +0.104 C 
ATOM      9  S   UNL     1       4.587  -3.920  23.620  0.00  0.00    -0.128 S 
ENDROOT
BRANCH   2  10
ATOM     10  N   UNL     1       3.868  -4.937  26.385  0.00  0.00    -0.277 N 
ATOM     11  H   UNL     1       3.467  -4.202  25.809  0.00  0.00    +0.152 HD
ATOM     12  C   UNL     1       3.509  -5.007  27.711  0.00  0.00    +0.225 C 
ATOM     13  O   UNL     1       3.941  -5.854  28.483  0.00  0.00    -0.275 OA
BRANCH  12  14
ATOM     14  C   UNL     1       2.483  -3.988  28.159  0.00  0.00    +0.165 C 
BRANCH  14  15
ATOM     15  S   UNL     1       2.519  -2.519  27.103  0.00  0.00    -0.137 S 
BRANCH  15  16
ATOM     16  C   UNL     1       3.731  -1.421  28.002  0.00  0.00    +0.187 C 
BRANCH  16  17
ATOM     17  C   UNL     1       5.088  -1.736  27.391  0.00  0.00    +0.073 C 
ATOM     18  N   UNL     1       6.212  -1.996  26.885  0.00  0.00    -0.196 NA
ENDBRANCH  16  17
ENDBRANCH  15  16
ENDBRANCH  14  15
ENDBRANCH  12  14
ENDBRANCH   2  10
BRANCH   2  19
ATOM     19  O   UNL     1       4.393  -7.248  25.684  0.00  0.00    -0.349 OA
ATOM     20  C   UNL     1       3.251  -7.536  24.890  0.00  0.00    +0.197 C 
ENDBRANCH   2  19
BRANCH   6  21
ATOM     21  C   UNL     1       8.961  -3.986  25.111  0.00  0.00    +0.351 C 
ATOM     22  O   UNL     1       9.988  -4.478  24.665  0.00  0.00    -0.244 OA
BRANCH  21  23
ATOM     23  O   UNL     1       9.029  -3.298  26.263  0.00  0.00    -0.476 OA
ATOM     24  H   UNL     1       8.498  -3.594  27.034  0.00  0.00    +0.295 HD
ENDBRANCH  21  23
ENDBRANCH   6  21
BRANCH   7  25
ATOM     25  C   UNL     1       8.289  -2.515  22.565  0.00  0.00    +0.111 C 
BRANCH  25  26
ATOM     26  S   UNL     1       7.768  -0.783  22.792  0.00  0.00    -0.080 S 
BRANCH  26  27
ATOM     27  C   UNL     1       9.145  -0.166  23.642  0.00  0.00    +0.209 A 
ATOM     28  N   UNL     1       9.929   0.865  23.208  0.00  0.00    -0.223 N 
ATOM     29  C   UNL     1       9.860   1.640  22.003  0.00  0.00    +0.177 C 
ATOM     30  N   UNL     1      10.882   1.118  24.125  0.00  0.00    -0.043 NA
ATOM     31  N   UNL     1      10.675   0.237  25.094  0.00  0.00    -0.022 NA
ATOM     32  N   UNL     1       9.596  -0.568  24.810  0.00  0.00    -0.102 NA
ENDBRANCH  26  27
ENDBRANCH  25  26
ENDBRANCH   7  25
TORSDOF 11
ENDMDL
MODEL 9
REMARK VINA RESULT:      -5.8      2.800      3.827
REMARK  Name = 
REMARK  13 active torsions:
REMARK  status: ('A' for Active; 'I' for Inactive)
REMARK    1  A    between atoms: C_5  and  C_6
REMARK    2  A    between atoms: C_6  and  S_7
REMARK    3  A    between atoms: S_7  and  C_8
REMARK    4  A    between atoms: N_12  and  C_13
REMARK    5  A    between atoms: C_14  and  C_29
REMARK    6  A    between atoms: C_18  and  N_19
REMARK    7  A    between atoms: C_18  and  O_27
REMARK    8  A    between atoms: C_20  and  C_22
REMARK    9  A    between atoms: C_22  and  S_23
REMARK   10  A    between atoms: S_23  and  C_24
REMARK   11  A    between atoms: C_24  and  C_25
REMARK   12  A    between atoms: O_27  and  C_28
REMARK   13  A    between atoms: C_29  and  O_30
REMARK                            x       y       z     vdW  Elec       q    Type
REMARK                         _______ _______ _______ _____ _____    ______ ____
ROOT
ATOM      1  C   UNL     1       8.840   1.292  24.960  0.00  0.00    +0.199 C 
ATOM      2  C   UNL     1       8.523   2.552  24.030  0.00  0.00    +0.242 C 
ATOM      3  C   UNL     1       9.242   1.603  22.939  0.00  0.00    +0.275 C 
ATOM      4  O   UNL     1       9.679   1.654  21.809  0.00  0.00    -0.270 OA
ATOM      5  N   UNL     1       9.121   0.528  23.756  0.00  0.00    -0.244 N 
ATOM      6  C   UNL     1       9.318  -0.835  23.734  0.00  0.00    +0.123 C 
ATOM      7  C   UNL     1       8.943  -1.589  24.817  0.00  0.00    -0.021 C 
ATOM      8  C   UNL     1       8.305  -1.014  26.077  0.00  0.00    +0.104 C 
ATOM      9  S   UNL     1       7.433   0.550  25.816  0.00  0.00    -0.128 S 
ENDROOT
BRANCH   2  10
ATOM     10  N   UNL     1       7.061   2.793  23.810  0.00  0.00    -0.277 N 
ATOM     11  H   UNL     1       6.410   2.419  24.494  0.00  0.00    +0.152 HD
ATOM     12  C   UNL     1       6.558   3.464  22.718  0.00  0.00    +0.225 C 
ATOM     13  O   UNL     1       7.262   3.947  21.841  0.00  0.00    -0.275 OA
BRANCH  12  14
ATOM     14  C   UNL     1       5.053   3.624  22.693  0.00  0.00    +0.165 C 
BRANCH  14  15
ATOM     15  S   UNL     1       4.520   4.957  23.795  0.00  0.00    -0.137 S 
BRANCH  15  16
ATOM     16  C   UNL     1       3.027   4.204  24.625  0.00  0.00    +0.187 C 
BRANCH  16  17
ATOM     17  C   UNL     1       3.492   2.850  25.138  0.00  0.00    +0.073 C 
ATOM     18  N   UNL     1       3.877   1.728  25.563  0.00  0.00    -0.196 NA
ENDBRANCH  16  17
ENDBRANCH  15  16
ENDBRANCH  14  15
ENDBRANCH  12  14
ENDBRANCH   2  10
BRANCH   2  19
ATOM     19  O   UNL     1       9.255   3.739  24.442  0.00  0.00    -0.349 OA
ATOM     20  C   UNL     1       8.569   4.707  25.223  0.00  0.00    +0.197 C 
ENDBRANCH   2  19
BRANCH   6  21
ATOM     21  C   UNL     1       9.917  -1.524  22.516  0.00  0.00    +0.351 C 
ATOM     22  O   UNL     1      10.977  -2.132  22.535  0.00  0.00    -0.244 OA
BRANCH  21  23
ATOM     23  O   UNL     1       9.258  -1.424  21.350  0.00  0.00    -0.476 OA
ATOM     24  H   UNL     1       8.313  -1.159  21.350  0.00  0.00    +0.295 HD
ENDBRANCH  21  23
ENDBRANCH   6  21
BRANCH   7  25
ATOM     25  C   UNL     1       9.017  -3.119  24.912  0.00  0.00    +0.111 C 
BRANCH  25  26
ATOM     26  S   UNL     1       7.413  -3.881  24.507  0.00  0.00    -0.080 S 
BRANCH  26  27
ATOM     27  C   UNL     1       7.169  -4.840  25.929  0.00  0.00    +0.209 A 
ATOM     28  N   UNL     1       6.173  -5.762  26.084  0.00  0.00    -0.223 N 
ATOM     29  C   UNL     1       5.109  -6.137  25.197  0.00  0.00    +0.177 C 
ATOM     30  N   UNL     1       6.298  -6.356  27.285  0.00  0.00    -0.043 NA
ATOM     31  N   UNL     1       7.355  -5.786  27.847  0.00  0.00    -0.022 NA
ATOM     32  N   UNL     1       7.910  -4.842  27.014  0.00  0.00    -0.102 NA
ENDBRANCH  26  27
ENDBRANCH  25  26
ENDBRANCH   7  25
TORSDOF 11
ENDMDL
