MODEL 1
REMARK VINA RESULT:      -4.1      0.000      0.000
REMARK  Name = 
REMARK  7 active torsions:
REMARK  status: ('A' for Active; 'I' for Inactive)
REMARK    1  A    between atoms: C_1  and  C_2
REMARK    2  A    between atoms: C_2  and  C_3
REMARK    3  A    between atoms: C_2  and  C_4
REMARK    4  A    between atoms: C_2  and  C_6
REMARK    5  A    between atoms: C_4  and  O_5
REMARK    6  A    between atoms: C_6  and  C_8
REMARK    7  A    between atoms: C_8  and  O_9
REMARK                            x       y       z     vdW  Elec       q    Type
REMARK                         _______ _______ _______ _____ _____    ______ ____
ROOT
ATOM      1  C   UNL     1      10.977   0.654  24.288  0.00  0.00    +0.022 C 
ATOM      2  C   UNL     1       9.688   0.976  23.508  0.00  0.00    +0.058 C 
ATOM      3  C   UNL     1       8.776   1.804  24.426  0.00  0.00    +0.022 C 
ENDROOT
BRANCH   2   4
ATOM      4  C   UNL     1       8.996  -0.334  23.133  0.00  0.00    +0.247 C 
ATOM      5  O   UNL     1       7.779  -0.489  23.028  0.00  0.00    -0.284 OA
BRANCH   4   6
ATOM      6  C   UNL     1       9.852  -1.572  22.826  0.00  0.00    +0.373 C 
ATOM      7  O   UNL     1      10.131  -2.437  23.630  0.00  0.00    -0.242 OA
BRANCH   6   8
ATOM      8  O   UNL     1      10.290  -1.526  21.551  0.00  0.00    -0.475 OA
ATOM      9  H   UNL     1      10.916  -2.274  21.403  0.00  0.00    +0.295 HD
ENDBRANCH   6   8
ENDBRANCH   4   6
ENDBRANCH   2   4
BRANCH   2  10
ATOM     10  C   UNL     1      10.031   1.765  22.236  0.00  0.00    +0.170 C 
BRANCH  10  11
ATOM     11  O   UNL     1       9.199   1.369  21.151  0.00  0.00    -0.394 OA
ATOM     12  H   UNL     1       9.415   1.927  20.382  0.00  0.00    +0.209 HD
ENDBRANCH  10  11
ENDBRANCH   2  10
TORSDOF 5
ENDMDL
MODEL 2
REMARK VINA RESULT:      -3.9      1.318      3.027
REMARK  Name = 
REMARK  7 active torsions:
REMARK  status: ('A' for Active; 'I' for Inactive)
REMARK    1  A    between atoms: C_1  and  C_2
REMARK    2  A    between atoms: C_2  and  C_3
REMARK    3  A    between atoms: C_2  and  C_4
REMARK    4  A    between atoms: C_2  and  C_6
REMARK    5  A    between atoms: C_4  and  O_5
REMARK    6  A    between atoms: C_6  and  C_8
REMARK    7  A    between atoms: C_8  and  O_9
REMARK                            x       y       z     vdW  Elec       q    Type
REMARK                         _______ _______ _______ _____ _____    ______ ____
ROOT
ATOM      1  C   UNL     1       8.866  -1.138  24.622  0.00  0.00    +0.022 C 
ATOM      2  C   UNL     1       9.701  -0.302  23.632  0.00  0.00    +0.058 C 
ATOM      3  C   UNL     1      10.762   0.461  24.438  0.00  0.00    +0.022 C 
ENDROOT
BRANCH   2   4
ATOM      4  C   UNL     1       8.778   0.687  22.920  0.00  0.00    +0.247 C 
ATOM      5  O   UNL     1       7.617   0.456  22.581  0.00  0.00    -0.284 OA
BRANCH   4   6
ATOM      6  C   UNL     1       9.291   2.102  22.611  0.00  0.00    +0.373 C 
ATOM      7  O   UNL     1       9.023   3.092  23.260  0.00  0.00    -0.242 OA
BRANCH   6   8
ATOM      8  O   UNL     1      10.036   2.087  21.487  0.00  0.00    -0.475 OA
ATOM      9  H   UNL     1      10.658   2.853  21.508  0.00  0.00    +0.295 HD
ENDBRANCH   6   8
ENDBRANCH   4   6
ENDBRANCH   2   4
BRANCH   2  10
ATOM     10  C   UNL     1      10.366  -1.226  22.602  0.00  0.00    +0.170 C 
BRANCH  10  11
ATOM     11  O   UNL     1       9.825  -1.013  21.303  0.00  0.00    -0.394 OA
ATOM     12  H   UNL     1      10.432  -1.409  20.652  0.00  0.00    +0.209 HD
ENDBRANCH  10  11
ENDBRANCH   2  10
TORSDOF 5
ENDMDL
MODEL 3
REMARK VINA RESULT:      -3.8      4.052      5.900
REMARK  Name = 
REMARK  7 active torsions:
REMARK  status: ('A' for Active; 'I' for Inactive)
REMARK    1  A    between atoms: C_1  and  C_2
REMARK    2  A    between atoms: C_2  and  C_3
REMARK    3  A    between atoms: C_2  and  C_4
REMARK    4  A    between atoms: C_2  and  C_6
REMARK    5  A    between atoms: C_4  and  O_5
REMARK    6  A    between atoms: C_6  and  C_8
REMARK    7  A    between atoms: C_8  and  O_9
REMARK                            x       y       z     vdW  Elec       q    Type
REMARK                         _______ _______ _______ _____ _____    ______ ____
ROOT
ATOM      1  C   UNL     1       6.356  -4.208  24.634  0.00  0.00    +0.022 C 
ATOM      2  C   UNL     1       7.713  -4.467  23.951  0.00  0.00    +0.058 C 
ATOM      3  C   UNL     1       7.471  -5.415  22.768  0.00  0.00    +0.022 C 
ENDROOT
BRANCH   2   4
ATOM      4  C   UNL     1       8.656  -5.123  24.959  0.00  0.00    +0.247 C 
ATOM      5  O   UNL     1       9.596  -5.864  24.672  0.00  0.00    -0.284 OA
BRANCH   4   6
ATOM      6  C   UNL     1       8.469  -4.838  26.457  0.00  0.00    +0.373 C 
ATOM      7  O   UNL     1       8.728  -3.782  26.997  0.00  0.00    -0.242 OA
BRANCH   6   8
ATOM      8  O   UNL     1       8.027  -5.945  27.086  0.00  0.00    -0.475 OA
ATOM      9  H   UNL     1       7.399  -5.676  27.799  0.00  0.00    +0.295 HD
ENDBRANCH   6   8
ENDBRANCH   4   6
ENDBRANCH   2   4
BRANCH   2  10
ATOM     10  C   UNL     1       8.313  -3.140  23.465  0.00  0.00    +0.170 C 
BRANCH  10  11
ATOM     11  O   UNL     1       9.712  -3.089  23.723  0.00  0.00    -0.394 OA
ATOM     12  H   UNL     1       9.860  -3.352  24.650  0.00  0.00    +0.209 HD
ENDBRANCH  10  11
ENDBRANCH   2  10
TORSDOF 5
ENDMDL
MODEL 4
REMARK VINA RESULT:      -3.8      1.033      2.009
REMARK  Name = 
REMARK  7 active torsions:
REMARK  status: ('A' for Active; 'I' for Inactive)
REMARK    1  A    between atoms: C_1  and  C_2
REMARK    2  A    between atoms: C_2  and  C_3
REMARK    3  A    between atoms: C_2  and  C_4
REMARK    4  A    between atoms: C_2  and  C_6
REMARK    5  A    between atoms: C_4  and  O_5
REMARK    6  A    between atoms: C_6  and  C_8
REMARK    7  A    between atoms: C_8  and  O_9
REMARK                            x       y       z     vdW  Elec       q    Type
REMARK                         _______ _______ _______ _____ _____    ______ ____
ROOT
ATOM      1  C   UNL     1       9.959   1.565  22.174  0.00  0.00    +0.022 C 
ATOM      2  C   UNL     1       9.698   0.849  23.514  0.00  0.00    +0.058 C 
ATOM      3  C   UNL     1      11.054   0.630  24.202  0.00  0.00    +0.022 C 
ENDROOT
BRANCH   2   4
ATOM      4  C   UNL     1       9.033  -0.498  23.234  0.00  0.00    +0.247 C 
ATOM      5  O   UNL     1       7.824  -0.720  23.307  0.00  0.00    -0.284 OA
BRANCH   4   6
ATOM      6  C   UNL     1       9.903  -1.686  22.797  0.00  0.00    +0.373 C 
ATOM      7  O   UNL     1      10.272  -2.579  23.530  0.00  0.00    -0.242 OA
BRANCH   6   8
ATOM      8  O   UNL     1      10.236  -1.560  21.496  0.00  0.00    -0.475 OA
ATOM      9  H   UNL     1      11.073  -1.041  21.432  0.00  0.00    +0.295 HD
ENDBRANCH   6   8
ENDBRANCH   4   6
ENDBRANCH   2   4
BRANCH   2  10
ATOM     10  C   UNL     1       8.780   1.710  24.394  0.00  0.00    +0.170 C 
BRANCH  10  11
ATOM     11  O   UNL     1       8.613   1.125  25.680  0.00  0.00    -0.394 OA
ATOM     12  H   UNL     1       8.751   1.818  26.350  0.00  0.00    +0.209 HD
ENDBRANCH  10  11
ENDBRANCH   2  10
TORSDOF 5
ENDMDL
MODEL 5
REMARK VINA RESULT:      -3.7      3.700      5.479
REMARK  Name = 
REMARK  7 active torsions:
REMARK  status: ('A' for Active; 'I' for Inactive)
REMARK    1  A    between atoms: C_1  and  C_2
REMARK    2  A    between atoms: C_2  and  C_3
REMARK    3  A    between atoms: C_2  and  C_4
REMARK    4  A    between atoms: C_2  and  C_6
REMARK    5  A    between atoms: C_4  and  O_5
REMARK    6  A    between atoms: C_6  and  C_8
REMARK    7  A    between atoms: C_8  and  O_9
REMARK                            x       y       z     vdW  Elec       q    Type
REMARK                         _______ _______ _______ _____ _____    ______ ____
ROOT
ATOM      1  C   UNL     1       6.950  -5.294  26.039  0.00  0.00    +0.022 C 
ATOM      2  C   UNL     1       8.140  -4.363  25.733  0.00  0.00    +0.058 C 
ATOM      3  C   UNL     1       7.834  -2.990  26.350  0.00  0.00    +0.022 C 
ENDROOT
BRANCH   2   4
ATOM      4  C   UNL     1       8.288  -4.231  24.218  0.00  0.00    +0.247 C 
ATOM      5  O   UNL     1       7.955  -5.086  23.396  0.00  0.00    -0.284 OA
BRANCH   4   6
ATOM      6  C   UNL     1       8.866  -2.935  23.632  0.00  0.00    +0.373 C 
ATOM      7  O   UNL     1       8.211  -2.071  23.086  0.00  0.00    -0.242 OA
BRANCH   6   8
ATOM      8  O   UNL     1      10.208  -2.926  23.766  0.00  0.00    -0.475 OA
ATOM      9  H   UNL     1      10.484  -2.050  24.128  0.00  0.00    +0.295 HD
ENDBRANCH   6   8
ENDBRANCH   4   6
ENDBRANCH   2   4
BRANCH   2  10
ATOM     10  C   UNL     1       9.426  -4.949  26.333  0.00  0.00    +0.170 C 
BRANCH  10  11
ATOM     11  O   UNL     1      10.194  -5.615  25.337  0.00  0.00    -0.394 OA
ATOM     12  H   UNL     1       9.589  -5.909  24.632  0.00  0.00    +0.209 HD
ENDBRANCH  10  11
ENDBRANCH   2  10
TORSDOF 5
ENDMDL
MODEL 6
REMARK VINA RESULT:      -3.7      1.636      3.438
REMARK  Name = 
REMARK  7 active torsions:
REMARK  status: ('A' for Active; 'I' for Inactive)
REMARK    1  A    between atoms: C_1  and  C_2
REMARK    2  A    between atoms: C_2  and  C_3
REMARK    3  A    between atoms: C_2  and  C_4
REMARK    4  A    between atoms: C_2  and  C_6
REMARK    5  A    between atoms: C_4  and  O_5
REMARK    6  A    between atoms: C_6  and  C_8
REMARK    7  A    between atoms: C_8  and  O_9
REMARK                            x       y       z     vdW  Elec       q    Type
REMARK                         _______ _______ _______ _____ _____    ______ ____
ROOT
ATOM      1  C   UNL     1       7.521   0.442  22.869  0.00  0.00    +0.022 C 
ATOM      2  C   UNL     1       8.843  -0.332  23.045  0.00  0.00    +0.058 C 
ATOM      3  C   UNL     1       8.667  -1.300  24.224  0.00  0.00    +0.022 C 
ENDROOT
BRANCH   2   4
ATOM      4  C   UNL     1       9.961   0.663  23.352  0.00  0.00    +0.247 C 
ATOM      5  O   UNL     1      10.991   0.402  23.974  0.00  0.00    -0.284 OA
BRANCH   4   6
ATOM      6  C   UNL     1       9.844   2.105  22.834  0.00  0.00    +0.373 C 
ATOM      7  O   UNL     1       9.469   3.049  23.498  0.00  0.00    -0.242 OA
BRANCH   6   8
ATOM      8  O   UNL     1      10.168   2.153  21.526  0.00  0.00    -0.475 OA
ATOM      9  H   UNL     1      11.150   2.200  21.444  0.00  0.00    +0.295 HD
ENDBRANCH   6   8
ENDBRANCH   4   6
ENDBRANCH   2   4
BRANCH   2  10
ATOM     10  C   UNL     1       9.170  -1.103  21.758  0.00  0.00    +0.170 C 
BRANCH  10  11
ATOM     11  O   UNL     1      10.494  -1.624  21.801  0.00  0.00    -0.394 OA
ATOM     12  H   UNL     1      10.501  -2.391  22.401  0.00  0.00    +0.209 HD
ENDBRANCH  10  11
ENDBRANCH   2  10
TORSDOF 5
ENDMDL
MODEL 7
REMARK VINA RESULT:      -3.7      1.528      3.271
REMARK  Name = 
REMARK  7 active torsions:
REMARK  status: ('A' for Active; 'I' for Inactive)
REMARK    1  A    between atoms: C_1  and  C_2
REMARK    2  A    between atoms: C_2  and  C_3
REMARK    3  A    between atoms: C_2  and  C_4
REMARK    4  A    between atoms: C_2  and  C_6
REMARK    5  A    between atoms: C_4  and  O_5
REMARK    6  A    between atoms: C_6  and  C_8
REMARK    7  A    between atoms: C_8  and  O_9
REMARK                            x       y       z     vdW  Elec       q    Type
REMARK                         _______ _______ _______ _____ _____    ______ ____
ROOT
ATOM      1  C   UNL     1       9.753   0.776  24.605  0.00  0.00    +0.022 C 
ATOM      2  C   UNL     1       9.001  -0.182  23.661  0.00  0.00    +0.058 C 
ATOM      3  C   UNL     1       9.627  -1.577  23.810  0.00  0.00    +0.022 C 
ENDROOT
BRANCH   2   4
ATOM      4  C   UNL     1       9.165   0.310  22.223  0.00  0.00    +0.247 C 
ATOM      5  O   UNL     1       9.357  -0.412  21.244  0.00  0.00    -0.284 OA
BRANCH   4   6
ATOM      6  C   UNL     1       9.058   1.814  21.930  0.00  0.00    +0.373 C 
ATOM      7  O   UNL     1       8.026   2.451  21.952  0.00  0.00    -0.242 OA
BRANCH   6   8
ATOM      8  O   UNL     1      10.268   2.305  21.593  0.00  0.00    -0.475 OA
ATOM      9  H   UNL     1      10.144   3.178  21.149  0.00  0.00    +0.295 HD
ENDBRANCH   6   8
ENDBRANCH   4   6
ENDBRANCH   2   4
BRANCH   2  10
ATOM     10  C   UNL     1       7.511  -0.217  24.033  0.00  0.00    +0.170 C 
BRANCH  10  11
ATOM     11  O   UNL     1       6.697  -0.259  22.866  0.00  0.00    -0.394 OA
ATOM     12  H   UNL     1       6.807   0.582  22.388  0.00  0.00    +0.209 HD
ENDBRANCH  10  11
ENDBRANCH   2  10
TORSDOF 5
ENDMDL
MODEL 8
REMARK VINA RESULT:      -3.6      5.393      6.992
REMARK  Name = 
REMARK  7 active torsions:
REMARK  status: ('A' for Active; 'I' for Inactive)
REMARK    1  A    between atoms: C_1  and  C_2
REMARK    2  A    between atoms: C_2  and  C_3
REMARK    3  A    between atoms: C_2  and  C_4
REMARK    4  A    between atoms: C_2  and  C_6
REMARK    5  A    between atoms: C_4  and  O_5
REMARK    6  A    between atoms: C_6  and  C_8
REMARK    7  A    between atoms: C_8  and  O_9
REMARK                            x       y       z     vdW  Elec       q    Type
REMARK                         _______ _______ _______ _____ _____    ______ ____
ROOT
ATOM      1  C   UNL     1       6.177  -3.529  22.149  0.00  0.00    +0.022 C 
ATOM      2  C   UNL     1       6.806  -4.744  22.859  0.00  0.00    +0.058 C 
ATOM      3  C   UNL     1       7.112  -5.806  21.793  0.00  0.00    +0.022 C 
ENDROOT
BRANCH   2   4
ATOM      4  C   UNL     1       5.804  -5.297  23.872  0.00  0.00    +0.247 C 
ATOM      5  O   UNL     1       5.886  -5.167  25.094  0.00  0.00    -0.284 OA
BRANCH   4   6
ATOM      6  C   UNL     1       4.568  -6.057  23.366  0.00  0.00    +0.373 C 
ATOM      7  O   UNL     1       3.657  -5.555  22.742  0.00  0.00    -0.242 OA
BRANCH   6   8
ATOM      8  O   UNL     1       4.623  -7.344  23.764  0.00  0.00    -0.475 OA
ATOM      9  H   UNL     1       4.808  -7.911  22.977  0.00  0.00    +0.295 HD
ENDBRANCH   6   8
ENDBRANCH   4   6
ENDBRANCH   2   4
BRANCH   2  10
ATOM     10  C   UNL     1       8.093  -4.317  23.580  0.00  0.00    +0.170 C 
BRANCH  10  11
ATOM     11  O   UNL     1       8.778  -5.447  24.109  0.00  0.00    -0.394 OA
ATOM     12  H   UNL     1       8.888  -5.315  25.068  0.00  0.00    +0.209 HD
ENDBRANCH  10  11
ENDBRANCH   2  10
TORSDOF 5
ENDMDL
MODEL 9
REMARK VINA RESULT:      -3.5      1.684      2.660
REMARK  Name = 
REMARK  7 active torsions:
REMARK  status: ('A' for Active; 'I' for Inactive)
REMARK    1  A    between atoms: C_1  and  C_2
REMARK    2  A    between atoms: C_2  and  C_3
REMARK    3  A    between atoms: C_2  and  C_4
REMARK    4  A    between atoms: C_2  and  C_6
REMARK    5  A    between atoms: C_4  and  O_5
REMARK    6  A    between atoms: C_6  and  C_8
REMARK    7  A    between atoms: C_8  and  O_9
REMARK                            x       y       z     vdW  Elec       q    Type
REMARK                         _______ _______ _______ _____ _____    ______ ____
ROOT
ATOM      1  C   UNL     1       8.204   0.423  23.682  0.00  0.00    +0.022 C 
ATOM      2  C   UNL     1       9.663   0.201  23.236  0.00  0.00    +0.058 C 
ATOM      3  C   UNL     1       9.877   0.970  21.924  0.00  0.00    +0.022 C 
ENDROOT
BRANCH   2   4
ATOM      4  C   UNL     1       9.888  -1.293  23.007  0.00  0.00    +0.247 C 
ATOM      5  O   UNL     1      10.735  -1.775  22.254  0.00  0.00    -0.284 OA
BRANCH   4   6
ATOM      6  C   UNL     1       9.031  -2.307  23.778  0.00  0.00    +0.373 C 
ATOM      7  O   UNL     1       9.122  -2.526  24.968  0.00  0.00    -0.242 OA
BRANCH   6   8
ATOM      8  O   UNL     1       8.204  -2.952  22.930  0.00  0.00    -0.475 OA
ATOM      9  H   UNL     1       7.391  -3.220  23.422  0.00  0.00    +0.295 HD
ENDBRANCH   6   8
ENDBRANCH   4   6
ENDBRANCH   2   4
BRANCH   2  10
ATOM     10  C   UNL     1      10.622   0.711  24.322  0.00  0.00    +0.170 C 
BRANCH  10  11
ATOM     11  O   UNL     1      10.196   0.294  25.614  0.00  0.00    -0.394 OA
ATOM     12  H   UNL     1      10.979  -0.000  26.113  0.00  0.00    +0.209 HD
ENDBRANCH  10  11
ENDBRANCH   2  10
TORSDOF 5
ENDMDL
