MODEL 1
REMARK VINA RESULT:      -7.5      0.000      0.000
REMARK  Name = 
REMARK  6 active torsions:
REMARK  status: ('A' for Active; 'I' for Inactive)
REMARK    1  A    between atoms: C_1  and  C_2
REMARK    2  A    between atoms: C_2  and  C_3
REMARK    3  A    between atoms: C_18  and  C_19
REMARK    4  A    between atoms: C_19  and  O_20
REMARK    5  A    between atoms: O_20  and  S_21
REMARK    6  A    between atoms: S_21  and  N_22
REMARK                            x       y       z     vdW  Elec       q    Type
REMARK                         _______ _______ _______ _____ _____    ______ ____
ROOT
ATOM      1  C   UNL     1       6.852  -5.594  22.007  0.00  0.00    +0.074 C 
ATOM      2  C   UNL     1       6.749  -4.245  22.704  0.00  0.00    +0.169 C 
ATOM      3  O   UNL     1       8.027  -3.595  22.658  0.00  0.00    -0.313 OA
ATOM      4  C   UNL     1       8.477  -3.540  24.019  0.00  0.00    +0.228 C 
ATOM      5  C   UNL     1       7.167  -3.474  24.790  0.00  0.00    +0.217 C 
ATOM      6  C   UNL     1       7.313  -3.771  26.278  0.00  0.00    +0.219 C 
ATOM      7  C   UNL     1       8.434  -4.745  26.681  0.00  0.00    +0.211 C 
ATOM      8  C   UNL     1       9.570  -4.898  25.680  0.00  0.00    +0.200 C 
ATOM      9  O   UNL     1       7.800  -5.996  26.937  0.00  0.00    -0.207 OA
ATOM     10  S   UNL     1       6.318  -5.713  27.539  0.00  0.00    +0.211 S 
ATOM     11  O   UNL     1       6.459  -5.508  28.966  0.00  0.00    -0.118 OA
ATOM     12  O   UNL     1       5.394  -6.669  26.977  0.00  0.00    -0.118 OA
ATOM     13  O   UNL     1       6.093  -4.250  26.859  0.00  0.00    -0.207 OA
ATOM     14  O   UNL     1       9.160  -4.764  24.323  0.00  0.00    -0.342 OA
ATOM     15  O   UNL     1       6.354  -4.423  24.080  0.00  0.00    -0.338 OA
ATOM     16  C   UNL     1       5.740  -3.350  21.983  0.00  0.00    +0.074 C 
ENDROOT
BRANCH   4  17
ATOM     17  C   UNL     1       9.385  -2.311  24.179  0.00  0.00    +0.262 C 
BRANCH  17  18
ATOM     18  O   UNL     1       8.719  -1.179  23.624  0.00  0.00    -0.220 OA
BRANCH  18  19
ATOM     19  S   UNL     1       9.528  -0.282  22.558  0.00  0.00    +0.149 S 
ATOM     20  O   UNL     1      10.686   0.256  23.232  0.00  0.00    -0.130 OA
ATOM     21  O   UNL     1       8.587   0.547  21.853  0.00  0.00    -0.130 OA
BRANCH  19  22
ATOM     22  N   UNL     1      10.075  -1.433  21.474  0.00  0.00    -0.183 NA
ATOM     23  H   UNL     1      11.085  -1.550  21.535  0.00  0.00    +0.146 HD
ATOM     24  H   UNL     1       9.556  -2.303  21.579  0.00  0.00    +0.146 HD
ENDBRANCH  19  22
ENDBRANCH  18  19
ENDBRANCH  17  18
ENDBRANCH   4  17
TORSDOF 4
ENDMDL
MODEL 2
REMARK VINA RESULT:      -6.9      2.487      5.801
REMARK  Name = 
REMARK  6 active torsions:
REMARK  status: ('A' for Active; 'I' for Inactive)
REMARK    1  A    between atoms: C_1  and  C_2
REMARK    2  A    between atoms: C_2  and  C_3
REMARK    3  A    between atoms: C_18  and  C_19
REMARK    4  A    between atoms: C_19  and  O_20
REMARK    5  A    between atoms: O_20  and  S_21
REMARK    6  A    between atoms: S_21  and  N_22
REMARK                            x       y       z     vdW  Elec       q    Type
REMARK                         _______ _______ _______ _____ _____    ______ ____
ROOT
ATOM      1  C   UNL     1       5.450  -4.161  22.331  0.00  0.00    +0.074 C 
ATOM      2  C   UNL     1       6.716  -4.818  22.862  0.00  0.00    +0.169 C 
ATOM      3  O   UNL     1       6.470  -5.304  24.189  0.00  0.00    -0.313 OA
ATOM      4  C   UNL     1       7.294  -4.504  25.048  0.00  0.00    +0.228 C 
ATOM      5  C   UNL     1       8.461  -4.151  24.139  0.00  0.00    +0.217 C 
ATOM      6  C   UNL     1       9.325  -3.008  24.663  0.00  0.00    +0.219 C 
ATOM      7  C   UNL     1       8.615  -1.939  25.512  0.00  0.00    +0.211 C 
ATOM      8  C   UNL     1       7.310  -2.372  26.164  0.00  0.00    +0.200 C 
ATOM      9  O   UNL     1       8.416  -0.818  24.654  0.00  0.00    -0.207 OA
ATOM     10  S   UNL     1       9.649  -0.746  23.599  0.00  0.00    +0.211 S 
ATOM     11  O   UNL     1      10.736  -0.040  24.247  0.00  0.00    -0.118 OA
ATOM     12  O   UNL     1       9.137  -0.367  22.304  0.00  0.00    -0.118 OA
ATOM     13  O   UNL     1      10.026  -2.331  23.611  0.00  0.00    -0.207 OA
ATOM     14  O   UNL     1       6.571  -3.316  25.399  0.00  0.00    -0.342 OA
ATOM     15  O   UNL     1       7.796  -3.862  22.898  0.00  0.00    -0.338 OA
ATOM     16  C   UNL     1       7.104  -6.010  21.988  0.00  0.00    +0.074 C 
ENDROOT
BRANCH   4  17
ATOM     17  C   UNL     1       7.665  -5.344  26.281  0.00  0.00    +0.262 C 
BRANCH  17  18
ATOM     18  O   UNL     1       6.592  -6.242  26.559  0.00  0.00    -0.220 OA
BRANCH  18  19
ATOM     19  S   UNL     1       5.667  -5.928  27.840  0.00  0.00    +0.149 S 
ATOM     20  O   UNL     1       4.429  -5.367  27.355  0.00  0.00    -0.130 OA
ATOM     21  O   UNL     1       6.475  -5.278  28.837  0.00  0.00    -0.130 OA
BRANCH  19  22
ATOM     22  N   UNL     1       5.327  -7.464  28.411  0.00  0.00    -0.183 NA
ATOM     23  H   UNL     1       4.362  -7.725  28.218  0.00  0.00    +0.146 HD
ATOM     24  H   UNL     1       6.010  -8.136  28.068  0.00  0.00    +0.146 HD
ENDBRANCH  19  22
ENDBRANCH  18  19
ENDBRANCH  17  18
ENDBRANCH   4  17
TORSDOF 4
ENDMDL
MODEL 3
REMARK VINA RESULT:      -6.5      4.002      5.846
REMARK  Name = 
REMARK  6 active torsions:
REMARK  status: ('A' for Active; 'I' for Inactive)
REMARK    1  A    between atoms: C_1  and  C_2
REMARK    2  A    between atoms: C_2  and  C_3
REMARK    3  A    between atoms: C_18  and  C_19
REMARK    4  A    between atoms: C_19  and  O_20
REMARK    5  A    between atoms: O_20  and  S_21
REMARK    6  A    between atoms: S_21  and  N_22
REMARK                            x       y       z     vdW  Elec       q    Type
REMARK                         _______ _______ _______ _____ _____    ______ ____
ROOT
ATOM      1  C   UNL     1       7.189  -3.661  22.120  0.00  0.00    +0.074 C 
ATOM      2  C   UNL     1       6.315  -4.867  22.432  0.00  0.00    +0.169 C 
ATOM      3  O   UNL     1       4.937  -4.501  22.277  0.00  0.00    -0.313 OA
ATOM      4  C   UNL     1       4.375  -4.561  23.595  0.00  0.00    +0.228 C 
ATOM      5  C   UNL     1       5.223  -5.635  24.259  0.00  0.00    +0.217 C 
ATOM      6  C   UNL     1       5.097  -5.666  25.779  0.00  0.00    +0.219 C 
ATOM      7  C   UNL     1       4.809  -4.324  26.475  0.00  0.00    +0.211 C 
ATOM      8  C   UNL     1       4.180  -3.248  25.603  0.00  0.00    +0.200 C 
ATOM      9  O   UNL     1       6.051  -3.886  27.021  0.00  0.00    -0.207 OA
ATOM     10  S   UNL     1       6.916  -5.189  27.458  0.00  0.00    +0.211 S 
ATOM     11  O   UNL     1       6.484  -5.575  28.785  0.00  0.00    -0.118 OA
ATOM     12  O   UNL     1       8.302  -4.965  27.124  0.00  0.00    -0.118 OA
ATOM     13  O   UNL     1       6.251  -6.242  26.408  0.00  0.00    -0.207 OA
ATOM     14  O   UNL     1       4.591  -3.299  24.242  0.00  0.00    -0.342 OA
ATOM     15  O   UNL     1       6.541  -5.310  23.786  0.00  0.00    -0.338 OA
ATOM     16  C   UNL     1       6.612  -6.006  21.455  0.00  0.00    +0.074 C 
ENDROOT
BRANCH   4  17
ATOM     17  C   UNL     1       2.881  -4.902  23.469  0.00  0.00    +0.262 C 
BRANCH  17  18
ATOM     18  O   UNL     1       2.749  -6.070  22.662  0.00  0.00    -0.220 OA
BRANCH  18  19
ATOM     19  S   UNL     1       1.718  -7.207  23.154  0.00  0.00    +0.149 S 
ATOM     20  O   UNL     1       1.230  -7.888  21.979  0.00  0.00    -0.130 OA
ATOM     21  O   UNL     1       0.840  -6.630  24.137  0.00  0.00    -0.130 OA
BRANCH  19  22
ATOM     22  N   UNL     1       2.727  -8.269  23.961  0.00  0.00    -0.183 NA
ATOM     23  H   UNL     1       2.196  -8.999  24.433  0.00  0.00    +0.146 HD
ATOM     24  H   UNL     1       3.449  -8.626  23.339  0.00  0.00    +0.146 HD
ENDBRANCH  19  22
ENDBRANCH  18  19
ENDBRANCH  17  18
ENDBRANCH   4  17
TORSDOF 4
ENDMDL
MODEL 4
REMARK VINA RESULT:      -6.4      2.161      4.138
REMARK  Name = 
REMARK  6 active torsions:
REMARK  status: ('A' for Active; 'I' for Inactive)
REMARK    1  A    between atoms: C_1  and  C_2
REMARK    2  A    between atoms: C_2  and  C_3
REMARK    3  A    between atoms: C_18  and  C_19
REMARK    4  A    between atoms: C_19  and  O_20
REMARK    5  A    between atoms: O_20  and  S_21
REMARK    6  A    between atoms: S_21  and  N_22
REMARK                            x       y       z     vdW  Elec       q    Type
REMARK                         _______ _______ _______ _____ _____    ______ ____
ROOT
ATOM      1  C   UNL     1       7.364  -5.293  26.911  0.00  0.00    +0.074 C 
ATOM      2  C   UNL     1       8.314  -4.554  25.980  0.00  0.00    +0.169 C 
ATOM      3  O   UNL     1       8.130  -3.142  26.148  0.00  0.00    -0.313 OA
ATOM      4  C   UNL     1       7.578  -2.678  24.908  0.00  0.00    +0.228 C 
ATOM      5  C   UNL     1       8.163  -3.661  23.906  0.00  0.00    +0.217 C 
ATOM      6  C   UNL     1       7.470  -3.642  22.548  0.00  0.00    +0.219 C 
ATOM      7  C   UNL     1       5.973  -3.283  22.542  0.00  0.00    +0.211 C 
ATOM      8  C   UNL     1       5.476  -2.503  23.749  0.00  0.00    +0.200 C 
ATOM      9  O   UNL     1       5.270  -4.515  22.398  0.00  0.00    -0.207 OA
ATOM     10  S   UNL     1       6.165  -5.520  21.489  0.00  0.00    +0.211 S 
ATOM     11  O   UNL     1       5.888  -5.215  20.100  0.00  0.00    -0.118 OA
ATOM     12  O   UNL     1       6.064  -6.855  22.028  0.00  0.00    -0.118 OA
ATOM     13  O   UNL     1       7.621  -4.882  21.843  0.00  0.00    -0.207 OA
ATOM     14  O   UNL     1       6.152  -2.823  24.959  0.00  0.00    -0.342 OA
ATOM     15  O   UNL     1       8.044  -4.910  24.608  0.00  0.00    -0.338 OA
ATOM     16  C   UNL     1       9.766  -4.885  26.328  0.00  0.00    +0.074 C 
ENDROOT
BRANCH   4  17
ATOM     17  C   UNL     1       8.006  -1.215  24.705  0.00  0.00    +0.262 C 
BRANCH  17  18
ATOM     18  O   UNL     1       9.322  -1.200  24.155  0.00  0.00    -0.220 OA
BRANCH  18  19
ATOM     19  S   UNL     1       9.557  -0.363  22.797  0.00  0.00    +0.149 S 
ATOM     20  O   UNL     1      10.525   0.667  23.085  0.00  0.00    -0.130 OA
ATOM     21  O   UNL     1       8.274  -0.080  22.210  0.00  0.00    -0.130 OA
BRANCH  19  22
ATOM     22  N   UNL     1      10.306  -1.491  21.816  0.00  0.00    -0.183 NA
ATOM     23  H   UNL     1      10.753  -1.047  21.016  0.00  0.00    +0.146 HD
ATOM     24  H   UNL     1      10.932  -2.083  22.358  0.00  0.00    +0.146 HD
ENDBRANCH  19  22
ENDBRANCH  18  19
ENDBRANCH  17  18
ENDBRANCH   4  17
TORSDOF 4
ENDMDL
MODEL 5
REMARK VINA RESULT:      -6.3      3.061      6.047
REMARK  Name = 
REMARK  6 active torsions:
REMARK  status: ('A' for Active; 'I' for Inactive)
REMARK    1  A    between atoms: C_1  and  C_2
REMARK    2  A    between atoms: C_2  and  C_3
REMARK    3  A    between atoms: C_18  and  C_19
REMARK    4  A    between atoms: C_19  and  O_20
REMARK    5  A    between atoms: O_20  and  S_21
REMARK    6  A    between atoms: S_21  and  N_22
REMARK                            x       y       z     vdW  Elec       q    Type
REMARK                         _______ _______ _______ _____ _____    ______ ____
ROOT
ATOM      1  C   UNL     1       7.157  -1.787  26.766  0.00  0.00    +0.074 C 
ATOM      2  C   UNL     1       6.604  -1.800  25.349  0.00  0.00    +0.169 C 
ATOM      3  O   UNL     1       6.942  -3.046  24.725  0.00  0.00    -0.313 OA
ATOM      4  C   UNL     1       7.861  -2.713  23.676  0.00  0.00    +0.228 C 
ATOM      5  C   UNL     1       7.422  -1.307  23.297  0.00  0.00    +0.217 C 
ATOM      6  C   UNL     1       8.443  -0.550  22.454  0.00  0.00    +0.219 C 
ATOM      7  C   UNL     1       9.924  -0.893  22.690  0.00  0.00    +0.211 C 
ATOM      8  C   UNL     1      10.196  -2.253  23.317  0.00  0.00    +0.200 C 
ATOM      9  O   UNL     1      10.452   0.160  23.493  0.00  0.00    -0.207 OA
ATOM     10  S   UNL     1       9.690   1.541  23.105  0.00  0.00    +0.211 S 
ATOM     11  O   UNL     1      10.364   2.101  21.951  0.00  0.00    -0.118 OA
ATOM     12  O   UNL     1       9.450   2.298  24.310  0.00  0.00    -0.118 OA
ATOM     13  O   UNL     1       8.302   0.872  22.578  0.00  0.00    -0.207 OA
ATOM     14  O   UNL     1       9.186  -2.680  24.224  0.00  0.00    -0.342 OA
ATOM     15  O   UNL     1       7.169  -0.716  24.583  0.00  0.00    -0.338 OA
ATOM     16  C   UNL     1       5.079  -1.683  25.371  0.00  0.00    +0.074 C 
ENDROOT
BRANCH   4  17
ATOM     17  C   UNL     1       7.720  -3.759  22.558  0.00  0.00    +0.262 C 
BRANCH  17  18
ATOM     18  O   UNL     1       6.911  -4.831  23.040  0.00  0.00    -0.220 OA
BRANCH  18  19
ATOM     19  S   UNL     1       5.573  -5.187  22.216  0.00  0.00    +0.149 S 
ATOM     20  O   UNL     1       5.959  -5.449  20.851  0.00  0.00    -0.130 OA
ATOM     21  O   UNL     1       4.556  -4.230  22.564  0.00  0.00    -0.130 OA
BRANCH  19  22
ATOM     22  N   UNL     1       5.122  -6.648  22.895  0.00  0.00    -0.183 NA
ATOM     23  H   UNL     1       4.184  -6.601  23.288  0.00  0.00    +0.146 HD
ATOM     24  H   UNL     1       5.250  -7.409  22.231  0.00  0.00    +0.146 HD
ENDBRANCH  19  22
ENDBRANCH  18  19
ENDBRANCH  17  18
ENDBRANCH   4  17
TORSDOF 4
ENDMDL
MODEL 6
REMARK VINA RESULT:      -6.3      2.741      4.426
REMARK  Name = 
REMARK  6 active torsions:
REMARK  status: ('A' for Active; 'I' for Inactive)
REMARK    1  A    between atoms: C_1  and  C_2
REMARK    2  A    between atoms: C_2  and  C_3
REMARK    3  A    between atoms: C_18  and  C_19
REMARK    4  A    between atoms: C_19  and  O_20
REMARK    5  A    between atoms: O_20  and  S_21
REMARK    6  A    between atoms: S_21  and  N_22
REMARK                            x       y       z     vdW  Elec       q    Type
REMARK                         _______ _______ _______ _____ _____    ______ ____
ROOT
ATOM      1  C   UNL     1       5.924   0.314  25.637  0.00  0.00    +0.074 C 
ATOM      2  C   UNL     1       7.350  -0.112  25.951  0.00  0.00    +0.169 C 
ATOM      3  O   UNL     1       8.259   0.702  25.198  0.00  0.00    -0.313 OA
ATOM      4  C   UNL     1       8.883  -0.186  24.260  0.00  0.00    +0.228 C 
ATOM      5  C   UNL     1       8.856  -1.512  25.006  0.00  0.00    +0.217 C 
ATOM      6  C   UNL     1       9.125  -2.723  24.118  0.00  0.00    +0.219 C 
ATOM      7  C   UNL     1       8.673  -2.616  22.650  0.00  0.00    +0.211 C 
ATOM      8  C   UNL     1       8.498  -1.204  22.113  0.00  0.00    +0.200 C 
ATOM      9  O   UNL     1       7.460  -3.359  22.553  0.00  0.00    -0.207 OA
ATOM     10  S   UNL     1       7.527  -4.601  23.598  0.00  0.00    +0.211 S 
ATOM     11  O   UNL     1       8.228  -5.686  22.940  0.00  0.00    -0.118 OA
ATOM     12  O   UNL     1       6.231  -4.770  24.210  0.00  0.00    -0.118 OA
ATOM     13  O   UNL     1       8.564  -3.927  24.657  0.00  0.00    -0.207 OA
ATOM     14  O   UNL     1       8.057  -0.268  23.090  0.00  0.00    -0.342 OA
ATOM     15  O   UNL     1       7.546  -1.497  25.596  0.00  0.00    -0.338 OA
ATOM     16  C   UNL     1       7.653   0.093  27.436  0.00  0.00    +0.074 C 
ENDROOT
BRANCH   4  17
ATOM     17  C   UNL     1      10.288   0.351  23.945  0.00  0.00    +0.262 C 
BRANCH  17  18
ATOM     18  O   UNL     1      10.370   1.701  24.400  0.00  0.00    -0.220 OA
BRANCH  18  19
ATOM     19  S   UNL     1      10.219   2.871  23.302  0.00  0.00    +0.149 S 
ATOM     20  O   UNL     1      11.452   3.621  23.296  0.00  0.00    -0.130 OA
ATOM     21  O   UNL     1       8.934   3.494  23.474  0.00  0.00    -0.130 OA
BRANCH  19  22
ATOM     22  N   UNL     1      10.157   2.005  21.873  0.00  0.00    -0.183 NA
ATOM     23  H   UNL     1      10.431   2.580  21.079  0.00  0.00    +0.146 HD
ATOM     24  H   UNL     1      10.684   1.138  21.952  0.00  0.00    +0.146 HD
ENDBRANCH  19  22
ENDBRANCH  18  19
ENDBRANCH  17  18
ENDBRANCH   4  17
TORSDOF 4
ENDMDL
MODEL 7
REMARK VINA RESULT:      -6.3      2.234      3.830
REMARK  Name = 
REMARK  6 active torsions:
REMARK  status: ('A' for Active; 'I' for Inactive)
REMARK    1  A    between atoms: C_1  and  C_2
REMARK    2  A    between atoms: C_2  and  C_3
REMARK    3  A    between atoms: C_18  and  C_19
REMARK    4  A    between atoms: C_19  and  O_20
REMARK    5  A    between atoms: O_20  and  S_21
REMARK    6  A    between atoms: S_21  and  N_22
REMARK                            x       y       z     vdW  Elec       q    Type
REMARK                         _______ _______ _______ _____ _____    ______ ____
ROOT
ATOM      1  C   UNL     1       7.847  -5.201  27.061  0.00  0.00    +0.074 C 
ATOM      2  C   UNL     1       8.080  -4.856  25.597  0.00  0.00    +0.169 C 
ATOM      3  O   UNL     1       8.063  -3.430  25.443  0.00  0.00    -0.313 OA
ATOM      4  C   UNL     1       6.897  -3.143  24.660  0.00  0.00    +0.228 C 
ATOM      5  C   UNL     1       6.753  -4.403  23.820  0.00  0.00    +0.217 C 
ATOM      6  C   UNL     1       5.392  -4.542  23.147  0.00  0.00    +0.219 C 
ATOM      7  C   UNL     1       4.190  -3.928  23.886  0.00  0.00    +0.211 C 
ATOM      8  C   UNL     1       4.520  -2.836  24.894  0.00  0.00    +0.200 C 
ATOM      9  O   UNL     1       3.510  -5.015  24.509  0.00  0.00    -0.207 OA
ATOM     10  S   UNL     1       3.671  -6.333  23.572  0.00  0.00    +0.211 S 
ATOM     11  O   UNL     1       2.634  -6.279  22.562  0.00  0.00    -0.118 OA
ATOM     12  O   UNL     1       3.877  -7.486  24.416  0.00  0.00    -0.118 OA
ATOM     13  O   UNL     1       5.069  -5.908  22.853  0.00  0.00    -0.207 OA
ATOM     14  O   UNL     1       5.774  -3.015  25.543  0.00  0.00    -0.342 OA
ATOM     15  O   UNL     1       7.043  -5.435  24.778  0.00  0.00    -0.338 OA
ATOM     16  C   UNL     1       9.448  -5.362  25.141  0.00  0.00    +0.074 C 
ENDROOT
BRANCH   4  17
ATOM     17  C   UNL     1       7.156  -1.856  23.859  0.00  0.00    +0.262 C 
BRANCH  17  18
ATOM     18  O   UNL     1       8.049  -2.160  22.790  0.00  0.00    -0.220 OA
BRANCH  18  19
ATOM     19  S   UNL     1       9.520  -1.502  22.833  0.00  0.00    +0.149 S 
ATOM     20  O   UNL     1      10.464  -2.565  23.082  0.00  0.00    -0.130 OA
ATOM     21  O   UNL     1       9.462  -0.312  23.639  0.00  0.00    -0.130 OA
BRANCH  19  22
ATOM     22  N   UNL     1       9.730  -1.011  21.248  0.00  0.00    -0.183 NA
ATOM     23  H   UNL     1       9.372  -1.705  20.594  0.00  0.00    +0.146 HD
ATOM     24  H   UNL     1       9.349  -0.078  21.104  0.00  0.00    +0.146 HD
ENDBRANCH  19  22
ENDBRANCH  18  19
ENDBRANCH  17  18
ENDBRANCH   4  17
TORSDOF 4
ENDMDL
MODEL 8
REMARK VINA RESULT:      -6.2      3.228      4.466
REMARK  Name = 
REMARK  6 active torsions:
REMARK  status: ('A' for Active; 'I' for Inactive)
REMARK    1  A    between atoms: C_1  and  C_2
REMARK    2  A    between atoms: C_2  and  C_3
REMARK    3  A    between atoms: C_18  and  C_19
REMARK    4  A    between atoms: C_19  and  O_20
REMARK    5  A    between atoms: O_20  and  S_21
REMARK    6  A    between atoms: S_21  and  N_22
REMARK                            x       y       z     vdW  Elec       q    Type
REMARK                         _______ _______ _______ _____ _____    ______ ____
ROOT
ATOM      1  C   UNL     1      10.389  -1.868  22.912  0.00  0.00    +0.074 C 
ATOM      2  C   UNL     1       9.088  -1.160  22.562  0.00  0.00    +0.169 C 
ATOM      3  O   UNL     1       8.605  -0.468  23.722  0.00  0.00    -0.313 OA
ATOM      4  C   UNL     1       7.392  -1.139  24.090  0.00  0.00    +0.228 C 
ATOM      5  C   UNL     1       6.887  -1.652  22.749  0.00  0.00    +0.217 C 
ATOM      6  C   UNL     1       5.800  -2.715  22.867  0.00  0.00    +0.219 C 
ATOM      7  C   UNL     1       5.855  -3.625  24.107  0.00  0.00    +0.211 C 
ATOM      8  C   UNL     1       6.620  -3.071  25.300  0.00  0.00    +0.200 C 
ATOM      9  O   UNL     1       6.411  -4.862  23.668  0.00  0.00    -0.207 OA
ATOM     10  S   UNL     1       5.950  -5.121  22.132  0.00  0.00    +0.211 S 
ATOM     11  O   UNL     1       4.640  -5.737  22.167  0.00  0.00    -0.118 OA
ATOM     12  O   UNL     1       7.057  -5.688  21.399  0.00  0.00    -0.118 OA
ATOM     13  O   UNL     1       5.740  -3.562  21.711  0.00  0.00    -0.207 OA
ATOM     14  O   UNL     1       7.721  -2.244  24.943  0.00  0.00    -0.342 OA
ATOM     15  O   UNL     1       8.099  -2.119  22.133  0.00  0.00    -0.338 OA
ATOM     16  C   UNL     1       9.324  -0.126  21.461  0.00  0.00    +0.074 C 
ENDROOT
BRANCH   4  17
ATOM     17  C   UNL     1       6.469  -0.124  24.783  0.00  0.00    +0.262 C 
BRANCH  17  18
ATOM     18  O   UNL     1       7.037   1.177  24.641  0.00  0.00    -0.220 OA
BRANCH  18  19
ATOM     19  S   UNL     1       6.248   2.242  23.726  0.00  0.00    +0.149 S 
ATOM     20  O   UNL     1       6.445   1.861  22.348  0.00  0.00    -0.130 OA
ATOM     21  O   UNL     1       6.538   3.564  24.213  0.00  0.00    -0.130 OA
BRANCH  19  22
ATOM     22  N   UNL     1       4.652   1.918  24.108  0.00  0.00    -0.183 NA
ATOM     23  H   UNL     1       4.227   1.293  23.425  0.00  0.00    +0.146 HD
ATOM     24  H   UNL     1       4.569   1.593  25.069  0.00  0.00    +0.146 HD
ENDBRANCH  19  22
ENDBRANCH  18  19
ENDBRANCH  17  18
ENDBRANCH   4  17
TORSDOF 4
ENDMDL
MODEL 9
REMARK VINA RESULT:      -6.1      3.326      6.154
REMARK  Name = 
REMARK  6 active torsions:
REMARK  status: ('A' for Active; 'I' for Inactive)
REMARK    1  A    between atoms: C_1  and  C_2
REMARK    2  A    between atoms: C_2  and  C_3
REMARK    3  A    between atoms: C_18  and  C_19
REMARK    4  A    between atoms: C_19  and  O_20
REMARK    5  A    between atoms: O_20  and  S_21
REMARK    6  A    between atoms: S_21  and  N_22
REMARK                            x       y       z     vdW  Elec       q    Type
REMARK                         _______ _______ _______ _____ _____    ______ ____
ROOT
ATOM      1  C   UNL     1       6.227  -1.172  26.103  0.00  0.00    +0.074 C 
ATOM      2  C   UNL     1       5.639  -2.554  26.345  0.00  0.00    +0.169 C 
ATOM      3  O   UNL     1       6.555  -3.321  27.139  0.00  0.00    -0.313 OA
ATOM      4  C   UNL     1       7.017  -4.373  26.281  0.00  0.00    +0.228 C 
ATOM      5  C   UNL     1       5.828  -4.581  25.355  0.00  0.00    +0.217 C 
ATOM      6  C   UNL     1       6.156  -5.388  24.104  0.00  0.00    +0.219 C 
ATOM      7  C   UNL     1       7.589  -5.262  23.556  0.00  0.00    +0.211 C 
ATOM      8  C   UNL     1       8.639  -4.796  24.554  0.00  0.00    +0.200 C 
ATOM      9  O   UNL     1       7.511  -4.380  22.439  0.00  0.00    -0.207 OA
ATOM     10  S   UNL     1       6.070  -4.583  21.717  0.00  0.00    +0.211 S 
ATOM     11  O   UNL     1       6.192  -5.704  20.807  0.00  0.00    -0.118 OA
ATOM     12  O   UNL     1       5.567  -3.295  21.303  0.00  0.00    -0.118 OA
ATOM     13  O   UNL     1       5.254  -5.109  23.025  0.00  0.00    -0.207 OA
ATOM     14  O   UNL     1       8.141  -3.891  25.532  0.00  0.00    -0.342 OA
ATOM     15  O   UNL     1       5.417  -3.229  25.089  0.00  0.00    -0.338 OA
ATOM     16  C   UNL     1       4.324  -2.445  27.118  0.00  0.00    +0.074 C 
ENDROOT
BRANCH   4  17
ATOM     17  C   UNL     1       7.378  -5.586  27.153  0.00  0.00    +0.262 C 
BRANCH  17  18
ATOM     18  O   UNL     1       6.196  -6.354  27.374  0.00  0.00    -0.220 OA
BRANCH  18  19
ATOM     19  S   UNL     1       5.796  -6.691  28.898  0.00  0.00    +0.149 S 
ATOM     20  O   UNL     1       6.902  -7.408  29.488  0.00  0.00    -0.130 OA
ATOM     21  O   UNL     1       4.449  -7.195  28.915  0.00  0.00    -0.130 OA
BRANCH  19  22
ATOM     22  N   UNL     1       5.760  -5.172  29.596  0.00  0.00    -0.183 NA
ATOM     23  H   UNL     1       5.755  -4.439  28.888  0.00  0.00    +0.146 HD
ATOM     24  H   UNL     1       4.996  -5.099  30.265  0.00  0.00    +0.146 HD
ENDBRANCH  19  22
ENDBRANCH  18  19
ENDBRANCH  17  18
ENDBRANCH   4  17
TORSDOF 4
ENDMDL
