MODEL 1
REMARK VINA RESULT:      -4.0      0.000      0.000
REMARK  Name = 
REMARK  40 active torsions:
REMARK  status: ('A' for Active; 'I' for Inactive)
REMARK    1  A    between atoms: C_1  and  C_2
REMARK    2  A    between atoms: C_2  and  C_3
REMARK    3  A    between atoms: C_2  and  C_4
REMARK    4  A    between atoms: C_4  and  C_5
REMARK    5  A    between atoms: C_5  and  N_7
REMARK    6  A    between atoms: C_5  and  C_74
REMARK    7  A    between atoms: C_8  and  C_10
REMARK    8  A    between atoms: C_10  and  C_12
REMARK    9  A    between atoms: C_10  and  N_18
REMARK   10  A    between atoms: C_12  and  O_13
REMARK   11  A    between atoms: O_13  and  C_14
REMARK   12  A    between atoms: C_14  and  C_15
REMARK   13  A    between atoms: C_14  and  C_16
REMARK   14  A    between atoms: C_14  and  C_17
REMARK   15  A    between atoms: C_19  and  C_21
REMARK   16  A    between atoms: C_21  and  C_23
REMARK   17  A    between atoms: C_21  and  N_31
REMARK   18  A    between atoms: C_23  and  C_24
REMARK   19  A    between atoms: C_27  and  O_28
REMARK   20  A    between atoms: C_32  and  CA_34
REMARK   21  A    between atoms: CA_34  and  C_36
REMARK   22  A    between atoms: CA_34  and  N_38
REMARK   23  A    between atoms: C_36  and  O_37
REMARK   24  A    between atoms: C_39  and  CA_41
REMARK   25  A    between atoms: CA_41  and  CB_43
REMARK   26  A    between atoms: CA_41  and  N_53
REMARK   27  A    between atoms: CB_43  and  CG_44
REMARK   28  A    between atoms: C_54  and  CA_56
REMARK   29  A    between atoms: CA_56  and  CB_58
REMARK   30  A    between atoms: CA_56  and  N_64
REMARK   31  A    between atoms: CB_58  and  CG_59
REMARK   32  A    between atoms: C_65  and  CA_67
REMARK   33  A    between atoms: N_76  and  C_77
REMARK   34  A    between atoms: C_77  and  C_79
REMARK   35  A    between atoms: C_77  and  C_86
REMARK   36  A    between atoms: C_79  and  C_80
REMARK   37  A    between atoms: C_80  and  C_81
REMARK   38  A    between atoms: C_81  and  N_82
REMARK   39  A    between atoms: C_92  and  C_94
REMARK   40  A    between atoms: N_96  and  N_97
REMARK                            x       y       z     vdW  Elec       q    Type
REMARK                         _______ _______ _______ _____ _____    ______ ____
ROOT
ATOM      1  C   UNL     1       6.036  -1.598  24.319  0.00  0.00    +0.163 C 
ENDROOT
BRANCH   1   2
ATOM      2  N   UNL     1       6.257  -0.908  23.033  0.00  0.00    -0.302 N 
ATOM      3  H   UNL     1       5.421  -0.685  22.514  0.00  0.00    +0.150 HD
ATOM      4  C   UNL     1       7.373  -0.115  22.797  0.00  0.00    +0.236 C 
ATOM      5  O   UNL     1       8.252   0.020  23.634  0.00  0.00    -0.274 OA
BRANCH   4   6
ATOM      6  CA  UNL     1       7.453   0.584  21.425  0.00  0.00    +0.184 C 
BRANCH   6   7
ATOM      7  N   UNL     1       6.952   1.972  21.370  0.00  0.00    -0.301 N 
ATOM      8  H   UNL     1       7.393   2.635  20.753  0.00  0.00    +0.150 HD
ATOM      9  C   UNL     1       5.998   2.380  22.279  0.00  0.00    +0.234 C 
ATOM     10  O   UNL     1       5.474   1.534  23.011  0.00  0.00    -0.274 OA
BRANCH   9  11
ATOM     11  CA  UNL     1       5.612   3.902  22.366  0.00  0.00    +0.163 C 
BRANCH  11  12
ATOM     12  N   UNL     1       4.230   4.018  22.910  0.00  0.00    -0.302 N 
ATOM     13  H   UNL     1       3.904   3.241  23.468  0.00  0.00    +0.150 HD
ATOM     14  C   UNL     1       3.402   5.106  22.670  0.00  0.00    +0.234 C 
ATOM     15  O   UNL     1       3.769   6.061  21.982  0.00  0.00    -0.274 OA
BRANCH  14  16
ATOM     16  CA  UNL     1       1.952   5.106  23.260  0.00  0.00    +0.165 C 
BRANCH  16  17
ATOM     17  N   UNL     1       1.720   6.036  24.391  0.00  0.00    -0.302 N 
ATOM     18  H   UNL     1       1.717   7.030  24.190  0.00  0.00    +0.150 HD
ATOM     19  C   UNL     1       1.521   5.578  25.690  0.00  0.00    +0.234 C 
ATOM     20  O   UNL     1       1.588   4.386  25.980  0.00  0.00    -0.274 OA
BRANCH  19  21
ATOM     21  CA  UNL     1       1.286   6.667  26.764  0.00  0.00    +0.159 C 
ATOM     22  N   UNL     1       0.466   6.185  27.848  0.00  0.00    -0.304 N 
ATOM     23  H   UNL     1      -0.537   6.047  27.828  0.00  0.00    +0.149 HD
ATOM     24  C   UNL     1       1.203   5.843  28.960  0.00  0.00    +0.214 C 
ATOM     25  O   UNL     1       0.753   5.259  29.930  0.00  0.00    -0.276 OA
ATOM     26  C   UNL     1       2.644   6.207  28.719  0.00  0.00    +0.098 C 
ATOM     27  C   UNL     1       2.565   7.108  27.484  0.00  0.00    +0.041 C 
ENDBRANCH  19  21
ENDBRANCH  16  17
BRANCH  16  28
ATOM     28  CB  UNL     1       0.841   5.151  22.205  0.00  0.00    +0.086 C 
BRANCH  28  29
ATOM     29  CG  UNL     1       1.305   4.996  20.802  0.00  0.00    +0.038 A 
ATOM     30  ND1 UNL     1       1.631   6.048  19.985  0.00  0.00    -0.348 N 
ATOM     31  HD1 UNL     1       1.712   7.017  20.246  0.00  0.00    +0.166 HD
ATOM     32  CE1 UNL     1       1.847   5.561  18.744  0.00  0.00    +0.196 A 
ATOM     33  NE2 UNL     1       1.758   4.248  18.740  0.00  0.00    -0.244 NA
ATOM     34  CD2 UNL     1       1.439   3.881  20.014  0.00  0.00    +0.133 A 
ENDBRANCH  28  29
ENDBRANCH  16  28
ENDBRANCH  14  16
ENDBRANCH  11  12
BRANCH  11  35
ATOM     35  CB  UNL     1       6.613   4.851  23.106  0.00  0.00    +0.069 C 
BRANCH  35  36
ATOM     36  CG  UNL     1       6.462   4.966  24.603  0.00  0.00    -0.020 A 
ATOM     37  CD2 UNL     1       7.305   5.652  25.566  0.00  0.00    +0.003 A 
ATOM     38  CE2 UNL     1       6.655   5.572  26.808  0.00  0.00    +0.047 A 
ATOM     39  CZ2 UNL     1       7.017   6.298  27.939  0.00  0.00    +0.026 A 
ATOM     40  CH2 UNL     1       8.158   7.081  27.855  0.00  0.00    +0.002 A 
ATOM     41  CZ3 UNL     1       8.926   7.073  26.693  0.00  0.00    +0.001 A 
ATOM     42  NE1 UNL     1       5.680   4.664  26.653  0.00  0.00    -0.360 N 
ATOM     43  HE1 UNL     1       5.157   4.262  27.401  0.00  0.00    +0.165 HD
ATOM     44  CE3 UNL     1       8.519   6.366  25.543  0.00  0.00    +0.010 A 
ATOM     45  CD1 UNL     1       5.420   4.440  25.336  0.00  0.00    +0.087 A 
ENDBRANCH  35  36
ENDBRANCH  11  35
ENDBRANCH   9  11
ENDBRANCH   6   7
BRANCH   6  46
ATOM     46  C   UNL     1       8.869   0.445  20.846  0.00  0.00    +0.187 C 
BRANCH  46  47
ATOM     47  O   UNL     1       9.353  -0.898  20.893  0.00  0.00    -0.393 OA
ATOM     48  H   UNL     1       8.686  -1.445  21.343  0.00  0.00    +0.209 HD
ENDBRANCH  46  47
ENDBRANCH   6  46
ENDBRANCH   4   6
ENDBRANCH   1   2
BRANCH   1  51
ATOM     49  N   UNL     1       6.418   0.571  25.535  0.00  0.00    -0.301 N 
ATOM     50  H   UNL     1       6.001   1.048  24.742  0.00  0.00    +0.150 HD
ATOM     51  C   UNL     1       6.714  -0.777  25.460  0.00  0.00    +0.234 C 
ATOM     52  O   UNL     1       7.544  -1.287  26.215  0.00  0.00    -0.274 OA
BRANCH  49  53
ATOM     53  C   UNL     1       7.057   1.443  26.555  0.00  0.00    +0.185 C 
BRANCH  53  56
ATOM     54  N   UNL     1       5.455   0.607  28.348  0.00  0.00    -0.302 N 
ATOM     55  H   UNL     1       4.744   0.725  27.636  0.00  0.00    +0.150 HD
ATOM     56  C   UNL     1       6.765   0.903  28.014  0.00  0.00    +0.236 C 
ATOM     57  O   UNL     1       7.716   0.655  28.768  0.00  0.00    -0.274 OA
BRANCH  54  58
ATOM     58  C   UNL     1       4.948  -0.078  29.584  0.00  0.00    +0.159 C 
BRANCH  58  59
ATOM     59  C   UNL     1       4.337  -1.488  29.178  0.00  0.00    +0.234 C 
ATOM     60  N   UNL     1       3.828  -2.318  30.160  0.00  0.00    -0.302 N 
ATOM     61  H   UNL     1       3.583  -1.945  31.073  0.00  0.00    +0.150 HD
ATOM     62  O   UNL     1       4.473  -1.902  28.022  0.00  0.00    -0.274 OA
BRANCH  60  63
ATOM     63  C   UNL     1       3.420  -3.732  29.923  0.00  0.00    +0.159 C 
BRANCH  63  64
ATOM     64  C   UNL     1       4.634  -4.654  29.566  0.00  0.00    +0.237 C 
ATOM     65  N   UNL     1       4.704  -5.185  28.286  0.00  0.00    -0.288 N 
ATOM     66  C   UNL     1       5.855  -5.973  27.817  0.00  0.00    +0.163 C 
ATOM     67  C   UNL     1       5.310  -6.765  26.607  0.00  0.00    +0.033 C 
ATOM     68  C   UNL     1       3.854  -6.325  26.438  0.00  0.00    +0.021 C 
ATOM     69  C   UNL     1       3.756  -5.020  27.198  0.00  0.00    +0.109 C 
ATOM     70  O   UNL     1       5.522  -4.876  30.395  0.00  0.00    -0.274 OA
BRANCH  66  71
ATOM     71  C   UNL     1       7.009  -5.070  27.318  0.00  0.00    +0.250 C 
ATOM     72  N   UNL     1       8.200  -5.721  27.041  0.00  0.00    -0.232 N 
ATOM     73  H   UNL     1       8.464  -6.629  27.420  0.00  0.00    +0.173 HD
ATOM     74  O   UNL     1       6.851  -3.879  27.031  0.00  0.00    -0.272 OA
BRANCH  72  75
ATOM     75  N   UNL     1       9.238  -4.948  26.483  0.00  0.00    -0.218 N 
ATOM     76  H   UNL     1       9.515  -4.138  27.031  0.00  0.00    +0.174 HD
ATOM     77  C   UNL     1       9.466  -4.987  25.132  0.00  0.00    +0.313 C 
ATOM     78  O   UNL     1       8.943  -5.778  24.357  0.00  0.00    -0.252 OA
ATOM     79  N   UNL     1      10.399  -4.084  24.722  0.00  0.00    -0.312 N 
ATOM     80  H   UNL     1      10.572  -4.030  23.726  0.00  0.00    +0.147 HD
ATOM     81  H   UNL     1      10.607  -3.262  25.269  0.00  0.00    +0.147 HD
ENDBRANCH  72  75
ENDBRANCH  66  71
ENDBRANCH  63  64
BRANCH  63  82
ATOM     82  C   UNL     1       2.393  -3.822  28.770  0.00  0.00    +0.035 C 
BRANCH  82  83
ATOM     83  C   UNL     1       0.936  -3.953  29.206  0.00  0.00    +0.043 C 
BRANCH  83  84
ATOM     84  C   UNL     1       0.447  -5.392  29.276  0.00  0.00    +0.243 C 
BRANCH  84  85
ATOM     85  N   UNL     1       1.476  -6.217  29.915  0.00  0.00    -0.114 NA
ATOM     86  C   UNL     1       1.884  -7.260  29.295  0.00  0.00    +0.376 C 
ATOM     87  N   UNL     1       2.843  -8.027  29.860  0.00  0.00    -0.289 N 
ATOM     88  H   UNL     1       3.554  -8.300  29.195  0.00  0.00    +0.255 HD
ATOM     89  H   UNL     1       3.250  -7.525  30.643  0.00  0.00    +0.255 HD
ATOM     90  N   UNL     1       1.533  -7.789  28.100  0.00  0.00    -0.289 N 
ATOM     91  H   UNL     1       1.493  -8.800  28.119  0.00  0.00    +0.255 HD
ATOM     92  H   UNL     1       0.685  -7.424  27.666  0.00  0.00    +0.255 HD
ENDBRANCH  84  85
ENDBRANCH  83  84
ENDBRANCH  82  83
ENDBRANCH  63  82
ENDBRANCH  60  63
ENDBRANCH  58  59
BRANCH  58  93
ATOM     93  C   UNL     1       4.002   0.730  30.485  0.00  0.00    +0.034 C 
BRANCH  93  95
ATOM     94  C   UNL     1       1.728   1.676  29.972  0.00  0.00    +0.007 C 
ATOM     95  C   UNL     1       3.234   1.861  29.779  0.00  0.00    -0.015 C 
ATOM     96  C   UNL     1       3.634   3.249  30.267  0.00  0.00    +0.007 C 
ENDBRANCH  93  95
ENDBRANCH  58  93
ENDBRANCH  54  58
ENDBRANCH  53  56
BRANCH  53  97
ATOM     97  C   UNL     1       8.512   1.831  26.148  0.00  0.00    +0.192 C 
BRANCH  97  98
ATOM     98  O   UNL     1       8.642   2.937  25.241  0.00  0.00    -0.372 OA
BRANCH  98  99
ATOM     99  C   UNL     1       9.815   2.927  24.375  0.00  0.00    +0.061 C 
ATOM    100  C   UNL     1      10.743   4.133  24.602  0.00  0.00    +0.041 C 
ATOM    101  C   UNL     1       9.299   3.015  22.925  0.00  0.00    +0.041 C 
ATOM    102  C   UNL     1      10.630   1.629  24.510  0.00  0.00    +0.041 C 
ENDBRANCH  98  99
ENDBRANCH  97  98
ENDBRANCH  53  97
ENDBRANCH  49  53
ENDBRANCH   1  51
BRANCH   1 103
ATOM    103  C   UNL     1       6.407  -3.101  24.330  0.00  0.00    +0.067 C 
BRANCH 103 104
ATOM    104  C   UNL     1       5.367  -3.999  23.698  0.00  0.00    -0.045 A 
ATOM    105  C   UNL     1       5.779  -5.140  22.994  0.00  0.00    +0.007 A 
ATOM    106  C   UNL     1       4.847  -6.072  22.549  0.00  0.00    +0.045 A 
ATOM    107  C   UNL     1       3.508  -5.899  22.858  0.00  0.00    +0.117 A 
ATOM    108  C   UNL     1       3.049  -4.745  23.489  0.00  0.00    +0.045 A 
ATOM    109  C   UNL     1       3.992  -3.781  23.885  0.00  0.00    +0.007 A 
BRANCH 107 110
ATOM    110  O   UNL     1       2.765  -7.023  22.695  0.00  0.00    -0.507 OA
ATOM    111  H   UNL     1       2.710  -7.258  21.731  0.00  0.00    +0.292 HD
ENDBRANCH 107 110
ENDBRANCH 103 104
ENDBRANCH   1 103
TORSDOF 35
ENDMDL
MODEL 2
REMARK VINA RESULT:      -3.8      2.326      7.502
REMARK  Name = 
REMARK  40 active torsions:
REMARK  status: ('A' for Active; 'I' for Inactive)
REMARK    1  A    between atoms: C_1  and  C_2
REMARK    2  A    between atoms: C_2  and  C_3
REMARK    3  A    between atoms: C_2  and  C_4
REMARK    4  A    between atoms: C_4  and  C_5
REMARK    5  A    between atoms: C_5  and  N_7
REMARK    6  A    between atoms: C_5  and  C_74
REMARK    7  A    between atoms: C_8  and  C_10
REMARK    8  A    between atoms: C_10  and  C_12
REMARK    9  A    between atoms: C_10  and  N_18
REMARK   10  A    between atoms: C_12  and  O_13
REMARK   11  A    between atoms: O_13  and  C_14
REMARK   12  A    between atoms: C_14  and  C_15
REMARK   13  A    between atoms: C_14  and  C_16
REMARK   14  A    between atoms: C_14  and  C_17
REMARK   15  A    between atoms: C_19  and  C_21
REMARK   16  A    between atoms: C_21  and  C_23
REMARK   17  A    between atoms: C_21  and  N_31
REMARK   18  A    between atoms: C_23  and  C_24
REMARK   19  A    between atoms: C_27  and  O_28
REMARK   20  A    between atoms: C_32  and  CA_34
REMARK   21  A    between atoms: CA_34  and  C_36
REMARK   22  A    between atoms: CA_34  and  N_38
REMARK   23  A    between atoms: C_36  and  O_37
REMARK   24  A    between atoms: C_39  and  CA_41
REMARK   25  A    between atoms: CA_41  and  CB_43
REMARK   26  A    between atoms: CA_41  and  N_53
REMARK   27  A    between atoms: CB_43  and  CG_44
REMARK   28  A    between atoms: C_54  and  CA_56
REMARK   29  A    between atoms: CA_56  and  CB_58
REMARK   30  A    between atoms: CA_56  and  N_64
REMARK   31  A    between atoms: CB_58  and  CG_59
REMARK   32  A    between atoms: C_65  and  CA_67
REMARK   33  A    between atoms: N_76  and  C_77
REMARK   34  A    between atoms: C_77  and  C_79
REMARK   35  A    between atoms: C_77  and  C_86
REMARK   36  A    between atoms: C_79  and  C_80
REMARK   37  A    between atoms: C_80  and  C_81
REMARK   38  A    between atoms: C_81  and  N_82
REMARK   39  A    between atoms: C_92  and  C_94
REMARK   40  A    between atoms: N_96  and  N_97
REMARK                            x       y       z     vdW  Elec       q    Type
REMARK                         _______ _______ _______ _____ _____    ______ ____
ROOT
ATOM      1  C   UNL     1       5.690   5.447  25.575  0.00  0.00    +0.163 C 
ENDROOT
BRANCH   1   2
ATOM      2  N   UNL     1       5.232   4.411  24.630  0.00  0.00    -0.302 N 
ATOM      3  H   UNL     1       5.084   3.497  25.031  0.00  0.00    +0.150 HD
ATOM      4  C   UNL     1       4.513   4.718  23.482  0.00  0.00    +0.236 C 
ATOM      5  O   UNL     1       4.256   5.871  23.176  0.00  0.00    -0.274 OA
BRANCH   4   6
ATOM      6  CA  UNL     1       4.057   3.532  22.608  0.00  0.00    +0.184 C 
BRANCH   6   7
ATOM      7  N   UNL     1       4.908   2.327  22.647  0.00  0.00    -0.301 N 
ATOM      8  H   UNL     1       4.627   1.537  23.204  0.00  0.00    +0.150 HD
ATOM      9  C   UNL     1       6.154   2.364  22.054  0.00  0.00    +0.234 C 
ATOM     10  O   UNL     1       6.458   3.346  21.370  0.00  0.00    -0.274 OA
BRANCH   9  11
ATOM     11  CA  UNL     1       7.149   1.165  22.268  0.00  0.00    +0.163 C 
BRANCH  11  12
ATOM     12  N   UNL     1       8.526   1.707  22.442  0.00  0.00    -0.302 N 
ATOM     13  H   UNL     1       9.232   1.334  21.821  0.00  0.00    +0.150 HD
ATOM     14  C   UNL     1       8.861   2.653  23.400  0.00  0.00    +0.234 C 
ATOM     15  O   UNL     1       8.023   3.114  24.177  0.00  0.00    -0.274 OA
BRANCH  14  16
ATOM     16  CA  UNL     1      10.349   3.123  23.520  0.00  0.00    +0.165 C 
BRANCH  16  17
ATOM     17  N   UNL     1      10.551   4.469  24.108  0.00  0.00    -0.302 N 
ATOM     18  H   UNL     1      10.139   4.652  25.016  0.00  0.00    +0.150 HD
ATOM     19  C   UNL     1      11.270   5.460  23.447  0.00  0.00    +0.234 C 
ATOM     20  O   UNL     1      11.723   5.295  22.316  0.00  0.00    -0.274 OA
BRANCH  19  21
ATOM     21  CA  UNL     1      11.401   6.811  24.189  0.00  0.00    +0.159 C 
ATOM     22  N   UNL     1      10.229   7.108  24.976  0.00  0.00    -0.304 N 
ATOM     23  H   UNL     1       9.336   7.434  24.626  0.00  0.00    +0.149 HD
ATOM     24  C   UNL     1      10.405   6.835  26.314  0.00  0.00    +0.214 C 
ATOM     25  O   UNL     1       9.511   6.845  27.141  0.00  0.00    -0.276 OA
ATOM     26  C   UNL     1      11.835   6.422  26.543  0.00  0.00    +0.098 C 
ATOM     27  C   UNL     1      12.519   6.832  25.236  0.00  0.00    +0.041 C 
ENDBRANCH  19  21
ENDBRANCH  16  17
BRANCH  16  28
ATOM     28  CB  UNL     1      11.302   2.066  24.090  0.00  0.00    +0.086 C 
BRANCH  28  29
ATOM     29  CG  UNL     1      10.723   0.702  24.208  0.00  0.00    +0.038 A 
ATOM     30  ND1 UNL     1       9.983   0.277  25.281  0.00  0.00    -0.348 N 
ATOM     31  HD1 UNL     1       9.645   0.838  26.045  0.00  0.00    +0.166 HD
ATOM     32  CE1 UNL     1       9.763  -1.048  25.136  0.00  0.00    +0.196 A 
ATOM     33  NE2 UNL     1      10.249  -1.475  23.990  0.00  0.00    -0.244 NA
ATOM     34  CD2 UNL     1      10.833  -0.398  23.395  0.00  0.00    +0.133 A 
ENDBRANCH  28  29
ENDBRANCH  16  28
ENDBRANCH  14  16
ENDBRANCH  11  12
BRANCH  11  35
ATOM     35  CB  UNL     1       6.785   0.126  23.380  0.00  0.00    +0.069 C 
BRANCH  35  36
ATOM     36  CG  UNL     1       6.948  -1.332  23.030  0.00  0.00    -0.020 A 
ATOM     37  CD2 UNL     1       6.126  -2.470  23.402  0.00  0.00    +0.003 A 
ATOM     38  CE2 UNL     1       6.629  -3.583  22.709  0.00  0.00    +0.047 A 
ATOM     39  CZ2 UNL     1       5.985  -4.813  22.612  0.00  0.00    +0.026 A 
ATOM     40  CH2 UNL     1       4.811  -4.975  23.331  0.00  0.00    +0.002 A 
ATOM     41  CZ3 UNL     1       4.353  -3.953  24.159  0.00  0.00    +0.001 A 
ATOM     42  NE1 UNL     1       7.817  -3.201  22.217  0.00  0.00    -0.360 N 
ATOM     43  HE1 UNL     1       8.494  -3.821  21.825  0.00  0.00    +0.165 HD
ATOM     44  CE3 UNL     1       4.996  -2.698  24.210  0.00  0.00    +0.010 A 
ATOM     45  CD1 UNL     1       7.940  -1.845  22.221  0.00  0.00    +0.087 A 
ENDBRANCH  35  36
ENDBRANCH  11  35
ENDBRANCH   9  11
ENDBRANCH   6   7
BRANCH   6  46
ATOM     46  C   UNL     1       2.578   3.217  22.879  0.00  0.00    +0.187 C 
BRANCH  46  47
ATOM     47  O   UNL     1       1.987   4.118  23.817  0.00  0.00    -0.393 OA
ATOM     48  H   UNL     1       2.527   4.111  24.626  0.00  0.00    +0.209 HD
ENDBRANCH  46  47
ENDBRANCH   6  46
ENDBRANCH   4   6
ENDBRANCH   1   2
BRANCH   1  51
ATOM     49  N   UNL     1       4.843   3.768  27.247  0.00  0.00    -0.301 N 
ATOM     50  H   UNL     1       4.120   3.521  26.578  0.00  0.00    +0.150 HD
ATOM     51  C   UNL     1       5.651   4.868  27.024  0.00  0.00    +0.234 C 
ATOM     52  O   UNL     1       6.249   5.414  27.953  0.00  0.00    -0.274 OA
BRANCH  49  53
ATOM     53  C   UNL     1       4.700   3.181  28.604  0.00  0.00    +0.185 C 
BRANCH  53  56
ATOM     54  N   UNL     1       3.026   1.780  29.913  0.00  0.00    -0.302 N 
ATOM     55  H   UNL     1       3.530   2.107  30.728  0.00  0.00    +0.150 HD
ATOM     56  C   UNL     1       3.441   2.225  28.670  0.00  0.00    +0.236 C 
ATOM     57  O   UNL     1       2.802   1.995  27.634  0.00  0.00    -0.274 OA
BRANCH  54  58
ATOM     58  C   UNL     1       1.774   1.025  30.255  0.00  0.00    +0.159 C 
BRANCH  58  59
ATOM     59  C   UNL     1       1.683  -0.269  29.339  0.00  0.00    +0.234 C 
ATOM     60  N   UNL     1       2.299  -1.438  29.748  0.00  0.00    -0.302 N 
ATOM     61  H   UNL     1       2.559  -1.568  30.721  0.00  0.00    +0.150 HD
ATOM     62  O   UNL     1       1.214  -0.178  28.200  0.00  0.00    -0.274 OA
BRANCH  60  63
ATOM     63  C   UNL     1       2.450  -2.644  28.884  0.00  0.00    +0.159 C 
BRANCH  63  64
ATOM     64  C   UNL     1       3.583  -3.601  29.384  0.00  0.00    +0.237 C 
ATOM     65  N   UNL     1       3.322  -4.963  29.434  0.00  0.00    -0.288 N 
ATOM     66  C   UNL     1       4.350  -5.955  29.786  0.00  0.00    +0.163 C 
ATOM     67  C   UNL     1       3.546  -7.203  30.216  0.00  0.00    +0.033 C 
ATOM     68  C   UNL     1       2.071  -6.838  30.030  0.00  0.00    +0.021 C 
ATOM     69  C   UNL     1       2.085  -5.646  29.098  0.00  0.00    +0.109 C 
ATOM     70  O   UNL     1       4.692  -3.156  29.697  0.00  0.00    -0.274 OA
BRANCH  66  71
ATOM     71  C   UNL     1       5.220  -6.343  28.566  0.00  0.00    +0.250 C 
ATOM     72  N   UNL     1       5.706  -5.284  27.817  0.00  0.00    -0.232 N 
ATOM     73  H   UNL     1       5.302  -4.348  27.809  0.00  0.00    +0.173 HD
ATOM     74  O   UNL     1       5.592  -7.501  28.350  0.00  0.00    -0.272 OA
BRANCH  72  75
ATOM     75  N   UNL     1       6.587  -5.596  26.763  0.00  0.00    -0.218 N 
ATOM     76  H   UNL     1       6.795  -6.585  26.651  0.00  0.00    +0.174 HD
ATOM     77  C   UNL     1       7.457  -4.645  26.297  0.00  0.00    +0.313 C 
ATOM     78  O   UNL     1       7.432  -3.461  26.610  0.00  0.00    -0.252 OA
ATOM     79  N   UNL     1       8.341  -5.130  25.382  0.00  0.00    -0.312 N 
ATOM     80  H   UNL     1       9.042  -4.485  25.041  0.00  0.00    +0.147 HD
ATOM     81  H   UNL     1       8.563  -6.114  25.340  0.00  0.00    +0.147 HD
ENDBRANCH  72  75
ENDBRANCH  66  71
ENDBRANCH  63  64
BRANCH  63  82
ATOM     82  C   UNL     1       2.772  -2.239  27.427  0.00  0.00    +0.035 C 
BRANCH  82  83
ATOM     83  C   UNL     1       1.652  -2.489  26.420  0.00  0.00    +0.043 C 
BRANCH  83  84
ATOM     84  C   UNL     1       1.133  -3.919  26.427  0.00  0.00    +0.243 C 
BRANCH  84  85
ATOM     85  N   UNL     1       0.941  -4.365  25.044  0.00  0.00    -0.114 NA
ATOM     86  C   UNL     1       1.286  -5.560  24.742  0.00  0.00    +0.376 C 
ATOM     87  N   UNL     1       1.105  -5.996  23.476  0.00  0.00    -0.289 N 
ATOM     88  H   UNL     1       0.712  -6.926  23.445  0.00  0.00    +0.255 HD
ATOM     89  H   UNL     1       0.516  -5.335  22.979  0.00  0.00    +0.255 HD
ATOM     90  N   UNL     1       1.826  -6.553  25.486  0.00  0.00    -0.289 N 
ATOM     91  H   UNL     1       2.523  -7.083  24.978  0.00  0.00    +0.255 HD
ATOM     92  H   UNL     1       2.196  -6.295  26.399  0.00  0.00    +0.255 HD
ENDBRANCH  84  85
ENDBRANCH  83  84
ENDBRANCH  82  83
ENDBRANCH  63  82
ENDBRANCH  60  63
ENDBRANCH  58  59
BRANCH  58  93
ATOM     93  C   UNL     1       0.463   1.828  30.264  0.00  0.00    +0.034 C 
BRANCH  93  95
ATOM     94  C   UNL     1       1.767   3.968  30.481  0.00  0.00    +0.007 C 
ATOM     95  C   UNL     1       0.586   3.286  29.789  0.00  0.00    -0.015 C 
ATOM     96  C   UNL     1       0.752   3.411  28.279  0.00  0.00    +0.007 C 
ENDBRANCH  93  95
ENDBRANCH  58  93
ENDBRANCH  54  58
ENDBRANCH  53  56
BRANCH  53  97
ATOM     97  C   UNL     1       6.072   2.697  29.168  0.00  0.00    +0.192 C 
BRANCH  97  98
ATOM     98  O   UNL     1       6.952   2.058  28.229  0.00  0.00    -0.372 OA
BRANCH  98  99
ATOM     99  C   UNL     1       6.929   0.601  28.213  0.00  0.00    +0.061 C 
ATOM    100  C   UNL     1       6.020   0.023  27.114  0.00  0.00    +0.041 C 
ATOM    101  C   UNL     1       6.349   0.150  29.569  0.00  0.00    +0.041 C 
ATOM    102  C   UNL     1       8.337  -0.004  28.075  0.00  0.00    +0.041 C 
ENDBRANCH  98  99
ENDBRANCH  97  98
ENDBRANCH  53  97
ENDBRANCH  49  53
ENDBRANCH   1  51
BRANCH   1 103
ATOM    103  C   UNL     1       4.989   6.820  25.435  0.00  0.00    +0.067 C 
BRANCH 103 104
ATOM    104  C   UNL     1       3.808   7.008  26.360  0.00  0.00    -0.045 A 
ATOM    105  C   UNL     1       2.508   6.985  25.830  0.00  0.00    +0.007 A 
ATOM    106  C   UNL     1       1.401   6.984  26.673  0.00  0.00    +0.045 A 
ATOM    107  C   UNL     1       1.586   6.947  28.045  0.00  0.00    +0.117 A 
ATOM    108  C   UNL     1       2.856   7.044  28.611  0.00  0.00    +0.045 A 
ATOM    109  C   UNL     1       3.967   7.101  27.753  0.00  0.00    +0.007 A 
BRANCH 107 110
ATOM    110  O   UNL     1       0.473   6.588  28.732  0.00  0.00    -0.507 OA
ATOM    111  H   UNL     1       0.690   5.863  29.377  0.00  0.00    +0.292 HD
ENDBRANCH 107 110
ENDBRANCH 103 104
ENDBRANCH   1 103
TORSDOF 35
ENDMDL
MODEL 3
REMARK VINA RESULT:      -2.7      2.366      8.878
REMARK  Name = 
REMARK  40 active torsions:
REMARK  status: ('A' for Active; 'I' for Inactive)
REMARK    1  A    between atoms: C_1  and  C_2
REMARK    2  A    between atoms: C_2  and  C_3
REMARK    3  A    between atoms: C_2  and  C_4
REMARK    4  A    between atoms: C_4  and  C_5
REMARK    5  A    between atoms: C_5  and  N_7
REMARK    6  A    between atoms: C_5  and  C_74
REMARK    7  A    between atoms: C_8  and  C_10
REMARK    8  A    between atoms: C_10  and  C_12
REMARK    9  A    between atoms: C_10  and  N_18
REMARK   10  A    between atoms: C_12  and  O_13
REMARK   11  A    between atoms: O_13  and  C_14
REMARK   12  A    between atoms: C_14  and  C_15
REMARK   13  A    between atoms: C_14  and  C_16
REMARK   14  A    between atoms: C_14  and  C_17
REMARK   15  A    between atoms: C_19  and  C_21
REMARK   16  A    between atoms: C_21  and  C_23
REMARK   17  A    between atoms: C_21  and  N_31
REMARK   18  A    between atoms: C_23  and  C_24
REMARK   19  A    between atoms: C_27  and  O_28
REMARK   20  A    between atoms: C_32  and  CA_34
REMARK   21  A    between atoms: CA_34  and  C_36
REMARK   22  A    between atoms: CA_34  and  N_38
REMARK   23  A    between atoms: C_36  and  O_37
REMARK   24  A    between atoms: C_39  and  CA_41
REMARK   25  A    between atoms: CA_41  and  CB_43
REMARK   26  A    between atoms: CA_41  and  N_53
REMARK   27  A    between atoms: CB_43  and  CG_44
REMARK   28  A    between atoms: C_54  and  CA_56
REMARK   29  A    between atoms: CA_56  and  CB_58
REMARK   30  A    between atoms: CA_56  and  N_64
REMARK   31  A    between atoms: CB_58  and  CG_59
REMARK   32  A    between atoms: C_65  and  CA_67
REMARK   33  A    between atoms: N_76  and  C_77
REMARK   34  A    between atoms: C_77  and  C_79
REMARK   35  A    between atoms: C_77  and  C_86
REMARK   36  A    between atoms: C_79  and  C_80
REMARK   37  A    between atoms: C_80  and  C_81
REMARK   38  A    between atoms: C_81  and  N_82
REMARK   39  A    between atoms: C_92  and  C_94
REMARK   40  A    between atoms: N_96  and  N_97
REMARK                            x       y       z     vdW  Elec       q    Type
REMARK                         _______ _______ _______ _____ _____    ______ ____
ROOT
ATOM      1  C   UNL     1       5.501  -3.198  27.240  0.00  0.00    +0.163 C 
ENDROOT
BRANCH   1   2
ATOM      2  N   UNL     1       6.648  -2.287  27.056  0.00  0.00    -0.302 N 
ATOM      3  H   UNL     1       7.133  -2.378  26.175  0.00  0.00    +0.150 HD
ATOM      4  C   UNL     1       6.731  -1.057  27.695  0.00  0.00    +0.236 C 
ATOM      5  O   UNL     1       5.872  -0.682  28.477  0.00  0.00    -0.274 OA
BRANCH   4   6
ATOM      6  CA  UNL     1       7.963  -0.187  27.374  0.00  0.00    +0.184 C 
BRANCH   6   7
ATOM      7  N   UNL     1       8.449  -0.232  25.981  0.00  0.00    -0.301 N 
ATOM      8  H   UNL     1       7.802  -0.431  25.236  0.00  0.00    +0.150 HD
ATOM      9  C   UNL     1       9.805  -0.162  25.739  0.00  0.00    +0.234 C 
ATOM     10  O   UNL     1      10.565   0.094  26.678  0.00  0.00    -0.274 OA
BRANCH   9  11
ATOM     11  CA  UNL     1      10.346  -0.418  24.285  0.00  0.00    +0.163 C 
BRANCH  11  12
ATOM     12  N   UNL     1       9.315  -1.164  23.510  0.00  0.00    -0.302 N 
ATOM     13  H   UNL     1       8.789  -1.857  24.024  0.00  0.00    +0.150 HD
ATOM     14  C   UNL     1       9.077  -0.959  22.159  0.00  0.00    +0.234 C 
ATOM     15  O   UNL     1       9.713  -0.129  21.506  0.00  0.00    -0.274 OA
BRANCH  14  16
ATOM     16  CA  UNL     1       7.994  -1.827  21.435  0.00  0.00    +0.165 C 
BRANCH  16  17
ATOM     17  N   UNL     1       8.034  -3.279  21.730  0.00  0.00    -0.302 N 
ATOM     18  H   UNL     1       8.426  -3.893  21.025  0.00  0.00    +0.150 HD
ATOM     19  C   UNL     1       7.545  -3.800  22.925  0.00  0.00    +0.234 C 
ATOM     20  O   UNL     1       7.000  -3.095  23.770  0.00  0.00    -0.274 OA
BRANCH  19  21
ATOM     21  CA  UNL     1       7.660  -5.334  23.092  0.00  0.00    +0.159 C 
ATOM     22  N   UNL     1       6.724  -5.840  24.066  0.00  0.00    -0.304 N 
ATOM     23  H   UNL     1       6.805  -5.766  25.073  0.00  0.00    +0.149 HD
ATOM     24  C   UNL     1       5.611  -6.409  23.488  0.00  0.00    +0.214 C 
ATOM     25  O   UNL     1       4.616  -6.750  24.101  0.00  0.00    -0.276 OA
ATOM     26  C   UNL     1       5.795  -6.427  21.994  0.00  0.00    +0.098 C 
ATOM     27  C   UNL     1       7.286  -6.120  21.831  0.00  0.00    +0.041 C 
ENDBRANCH  19  21
ENDBRANCH  16  17
BRANCH  16  28
ATOM     28  CB  UNL     1       6.579  -1.241  21.482  0.00  0.00    +0.086 C 
BRANCH  28  29
ATOM     29  CG  UNL     1       6.416  -0.073  22.387  0.00  0.00    +0.038 A 
ATOM     30  ND1 UNL     1       6.113  -0.177  23.720  0.00  0.00    -0.348 N 
ATOM     31  HD1 UNL     1       6.076  -1.019  24.271  0.00  0.00    +0.166 HD
ATOM     32  CE1 UNL     1       5.878   1.067  24.192  0.00  0.00    +0.196 A 
ATOM     33  NE2 UNL     1       6.096   1.966  23.256  0.00  0.00    -0.244 NA
ATOM     34  CD2 UNL     1       6.447   1.275  22.135  0.00  0.00    +0.133 A 
ENDBRANCH  28  29
ENDBRANCH  16  28
ENDBRANCH  14  16
ENDBRANCH  11  12
BRANCH  11  35
ATOM     35  CB  UNL     1      10.885   0.823  23.497  0.00  0.00    +0.069 C 
BRANCH  35  36
ATOM     36  CG  UNL     1      10.323   2.170  23.879  0.00  0.00    -0.020 A 
ATOM     37  CD2 UNL     1      10.924   3.487  23.769  0.00  0.00    +0.003 A 
ATOM     38  CE2 UNL     1       9.938   4.418  24.134  0.00  0.00    +0.047 A 
ATOM     39  CZ2 UNL     1      10.038   5.793  23.944  0.00  0.00    +0.026 A 
ATOM     40  CH2 UNL     1      11.236   6.281  23.446  0.00  0.00    +0.002 A 
ATOM     41  CZ3 UNL     1      12.301   5.414  23.215  0.00  0.00    +0.001 A 
ATOM     42  NE1 UNL     1       8.952   3.705  24.698  0.00  0.00    -0.360 N 
ATOM     43  HE1 UNL     1       8.192   4.097  25.212  0.00  0.00    +0.165 HD
ATOM     44  CE3 UNL     1      12.166   4.018  23.372  0.00  0.00    +0.010 A 
ATOM     45  CD1 UNL     1       9.060   2.383  24.389  0.00  0.00    +0.087 A 
ENDBRANCH  35  36
ENDBRANCH  11  35
ENDBRANCH   9  11
ENDBRANCH   6   7
BRANCH   6  46
ATOM     46  C   UNL     1       7.738   1.248  27.875  0.00  0.00    +0.187 C 
BRANCH  46  47
ATOM     47  O   UNL     1       7.509   1.310  29.283  0.00  0.00    -0.393 OA
ATOM     48  H   UNL     1       8.246   1.798  29.690  0.00  0.00    +0.209 HD
ENDBRANCH  46  47
ENDBRANCH   6  46
ENDBRANCH   4   6
ENDBRANCH   1   2
BRANCH   1  51
ATOM     49  N   UNL     1       3.393  -2.521  28.435  0.00  0.00    -0.301 N 
ATOM     50  H   UNL     1       3.516  -3.331  29.035  0.00  0.00    +0.150 HD
ATOM     51  C   UNL     1       4.189  -2.355  27.317  0.00  0.00    +0.234 C 
ATOM     52  O   UNL     1       3.832  -1.632  26.386  0.00  0.00    -0.274 OA
BRANCH  49  53
ATOM     53  C   UNL     1       2.100  -1.802  28.571  0.00  0.00    +0.185 C 
BRANCH  53  56
ATOM     54  N   UNL     1       1.248   0.558  29.003  0.00  0.00    -0.302 N 
ATOM     55  H   UNL     1       0.347   0.110  29.125  0.00  0.00    +0.150 HD
ATOM     56  C   UNL     1       2.340  -0.244  28.723  0.00  0.00    +0.236 C 
ATOM     57  O   UNL     1       3.498   0.193  28.699  0.00  0.00    -0.274 OA
BRANCH  54  58
ATOM     58  C   UNL     1       1.239   2.014  29.368  0.00  0.00    +0.159 C 
BRANCH  58  59
ATOM     59  C   UNL     1       1.177   2.880  28.037  0.00  0.00    +0.234 C 
ATOM     60  N   UNL     1       2.039   2.591  26.995  0.00  0.00    -0.302 N 
ATOM     61  H   UNL     1       2.504   1.689  26.948  0.00  0.00    +0.150 HD
ATOM     62  O   UNL     1       0.483   3.902  28.007  0.00  0.00    -0.274 OA
BRANCH  60  63
ATOM     63  C   UNL     1       2.207   3.456  25.792  0.00  0.00    +0.159 C 
BRANCH  63  64
ATOM     64  C   UNL     1       2.944   4.798  26.117  0.00  0.00    +0.237 C 
ATOM     65  N   UNL     1       4.319   4.767  26.299  0.00  0.00    -0.288 N 
ATOM     66  C   UNL     1       5.119   5.986  26.502  0.00  0.00    +0.163 C 
ATOM     67  C   UNL     1       6.425   5.482  27.156  0.00  0.00    +0.033 C 
ATOM     68  C   UNL     1       6.293   3.960  27.242  0.00  0.00    +0.021 C 
ATOM     69  C   UNL     1       5.199   3.613  26.255  0.00  0.00    +0.109 C 
ATOM     70  O   UNL     1       2.319   5.861  26.179  0.00  0.00    -0.274 OA
BRANCH  66  71
ATOM     71  C   UNL     1       5.487   6.665  25.160  0.00  0.00    +0.250 C 
ATOM     72  N   UNL     1       6.823   6.594  24.802  0.00  0.00    -0.232 N 
ATOM     73  H   UNL     1       7.588   6.429  25.454  0.00  0.00    +0.173 HD
ATOM     74  O   UNL     1       4.639   7.106  24.378  0.00  0.00    -0.272 OA
BRANCH  72  75
ATOM     75  N   UNL     1       7.175   7.108  23.538  0.00  0.00    -0.218 N 
ATOM     76  H   UNL     1       7.330   8.111  23.507  0.00  0.00    +0.174 HD
ATOM     77  C   UNL     1       6.830   6.421  22.403  0.00  0.00    +0.313 C 
ATOM     78  O   UNL     1       6.371   5.285  22.385  0.00  0.00    -0.252 OA
ATOM     79  N   UNL     1       7.106   7.105  21.259  0.00  0.00    -0.312 N 
ATOM     80  H   UNL     1       6.825   6.669  20.390  0.00  0.00    +0.147 HD
ATOM     81  H   UNL     1       7.198   8.111  21.260  0.00  0.00    +0.147 HD
ENDBRANCH  72  75
ENDBRANCH  66  71
ENDBRANCH  63  64
BRANCH  63  82
ATOM     82  C   UNL     1       0.836   3.800  25.166  0.00  0.00    +0.035 C 
BRANCH  82  83
ATOM     83  C   UNL     1       0.757   5.161  24.480  0.00  0.00    +0.043 C 
BRANCH  83  84
ATOM     84  C   UNL     1       1.115   5.120  23.001  0.00  0.00    +0.243 C 
BRANCH  84  85
ATOM     85  N   UNL     1       2.353   4.356  22.830  0.00  0.00    -0.114 NA
ATOM     86  C   UNL     1       2.887   4.325  21.666  0.00  0.00    +0.376 C 
ATOM     87  N   UNL     1       4.037   3.639  21.489  0.00  0.00    -0.289 N 
ATOM     88  H   UNL     1       4.707   4.153  20.935  0.00  0.00    +0.255 HD
ATOM     89  H   UNL     1       4.423   3.399  22.397  0.00  0.00    +0.255 HD
ATOM     90  N   UNL     1       2.513   4.886  20.493  0.00  0.00    -0.289 N 
ATOM     91  H   UNL     1       2.678   4.277  19.701  0.00  0.00    +0.255 HD
ATOM     92  H   UNL     1       1.567   5.260  20.441  0.00  0.00    +0.255 HD
ENDBRANCH  84  85
ENDBRANCH  83  84
ENDBRANCH  82  83
ENDBRANCH  63  82
ENDBRANCH  60  63
ENDBRANCH  58  59
BRANCH  58  93
ATOM     93  C   UNL     1       2.340   2.495  30.326  0.00  0.00    +0.034 C 
BRANCH  93  95
ATOM     94  C   UNL     1       3.195   4.857  30.453  0.00  0.00    +0.007 C 
ATOM     95  C   UNL     1       3.325   3.515  29.731  0.00  0.00    -0.015 C 
ATOM     96  C   UNL     1       4.776   3.052  29.796  0.00  0.00    +0.007 C 
ENDBRANCH  93  95
ENDBRANCH  58  93
ENDBRANCH  54  58
ENDBRANCH  53  56
BRANCH  53  97
ATOM     97  C   UNL     1       1.041  -2.327  27.554  0.00  0.00    +0.192 C 
BRANCH  97  98
ATOM     98  O   UNL     1       1.238  -3.665  27.068  0.00  0.00    -0.372 OA
BRANCH  98  99
ATOM     99  C   UNL     1       1.169  -3.843  25.623  0.00  0.00    +0.061 C 
ATOM    100  C   UNL     1       0.510  -5.170  25.210  0.00  0.00    +0.041 C 
ATOM    101  C   UNL     1       2.623  -3.877  25.109  0.00  0.00    +0.041 C 
ATOM    102  C   UNL     1       0.446  -2.679  24.924  0.00  0.00    +0.041 C 
ENDBRANCH  98  99
ENDBRANCH  97  98
ENDBRANCH  53  97
ENDBRANCH  49  53
ENDBRANCH   1  51
BRANCH   1 103
ATOM    103  C   UNL     1       5.652  -4.219  28.393  0.00  0.00    +0.067 C 
BRANCH 103 104
ATOM    104  C   UNL     1       4.477  -5.157  28.547  0.00  0.00    -0.045 A 
ATOM    105  C   UNL     1       4.100  -5.971  27.468  0.00  0.00    +0.007 A 
ATOM    106  C   UNL     1       3.136  -6.961  27.631  0.00  0.00    +0.045 A 
ATOM    107  C   UNL     1       2.589  -7.181  28.884  0.00  0.00    +0.117 A 
ATOM    108  C   UNL     1       2.880  -6.348  29.963  0.00  0.00    +0.045 A 
ATOM    109  C   UNL     1       3.813  -5.315  29.775  0.00  0.00    +0.007 A 
BRANCH 107 110
ATOM    110  O   UNL     1       1.954  -8.375  28.996  0.00  0.00    -0.507 OA
ATOM    111  H   UNL     1       1.790  -8.759  28.094  0.00  0.00    +0.292 HD
ENDBRANCH 107 110
ENDBRANCH 103 104
ENDBRANCH   1 103
TORSDOF 35
ENDMDL
MODEL 4
REMARK VINA RESULT:      -2.2      1.744      3.244
REMARK  Name = 
REMARK  40 active torsions:
REMARK  status: ('A' for Active; 'I' for Inactive)
REMARK    1  A    between atoms: C_1  and  C_2
REMARK    2  A    between atoms: C_2  and  C_3
REMARK    3  A    between atoms: C_2  and  C_4
REMARK    4  A    between atoms: C_4  and  C_5
REMARK    5  A    between atoms: C_5  and  N_7
REMARK    6  A    between atoms: C_5  and  C_74
REMARK    7  A    between atoms: C_8  and  C_10
REMARK    8  A    between atoms: C_10  and  C_12
REMARK    9  A    between atoms: C_10  and  N_18
REMARK   10  A    between atoms: C_12  and  O_13
REMARK   11  A    between atoms: O_13  and  C_14
REMARK   12  A    between atoms: C_14  and  C_15
REMARK   13  A    between atoms: C_14  and  C_16
REMARK   14  A    between atoms: C_14  and  C_17
REMARK   15  A    between atoms: C_19  and  C_21
REMARK   16  A    between atoms: C_21  and  C_23
REMARK   17  A    between atoms: C_21  and  N_31
REMARK   18  A    between atoms: C_23  and  C_24
REMARK   19  A    between atoms: C_27  and  O_28
REMARK   20  A    between atoms: C_32  and  CA_34
REMARK   21  A    between atoms: CA_34  and  C_36
REMARK   22  A    between atoms: CA_34  and  N_38
REMARK   23  A    between atoms: C_36  and  O_37
REMARK   24  A    between atoms: C_39  and  CA_41
REMARK   25  A    between atoms: CA_41  and  CB_43
REMARK   26  A    between atoms: CA_41  and  N_53
REMARK   27  A    between atoms: CB_43  and  CG_44
REMARK   28  A    between atoms: C_54  and  CA_56
REMARK   29  A    between atoms: CA_56  and  CB_58
REMARK   30  A    between atoms: CA_56  and  N_64
REMARK   31  A    between atoms: CB_58  and  CG_59
REMARK   32  A    between atoms: C_65  and  CA_67
REMARK   33  A    between atoms: N_76  and  C_77
REMARK   34  A    between atoms: C_77  and  C_79
REMARK   35  A    between atoms: C_77  and  C_86
REMARK   36  A    between atoms: C_79  and  C_80
REMARK   37  A    between atoms: C_80  and  C_81
REMARK   38  A    between atoms: C_81  and  N_82
REMARK   39  A    between atoms: C_92  and  C_94
REMARK   40  A    between atoms: N_96  and  N_97
REMARK                            x       y       z     vdW  Elec       q    Type
REMARK                         _______ _______ _______ _____ _____    ______ ____
ROOT
ATOM      1  C   UNL     1       6.489  -2.401  24.977  0.00  0.00    +0.163 C 
ENDROOT
BRANCH   1   2
ATOM      2  N   UNL     1       6.447  -1.851  23.608  0.00  0.00    -0.302 N 
ATOM      3  H   UNL     1       5.531  -1.586  23.278  0.00  0.00    +0.150 HD
ATOM      4  C   UNL     1       7.533  -1.203  23.033  0.00  0.00    +0.236 C 
ATOM      5  O   UNL     1       8.597  -1.091  23.622  0.00  0.00    -0.274 OA
BRANCH   4   6
ATOM      6  CA  UNL     1       7.335  -0.636  21.613  0.00  0.00    +0.184 C 
BRANCH   6   7
ATOM      7  N   UNL     1       7.112   0.819  21.517  0.00  0.00    -0.301 N 
ATOM      8  H   UNL     1       7.643   1.361  20.854  0.00  0.00    +0.150 HD
ATOM      9  C   UNL     1       6.303   1.439  22.447  0.00  0.00    +0.234 C 
ATOM     10  O   UNL     1       5.661   0.740  23.237  0.00  0.00    -0.274 OA
BRANCH   9  11
ATOM     11  CA  UNL     1       6.225   3.010  22.482  0.00  0.00    +0.163 C 
BRANCH  11  12
ATOM     12  N   UNL     1       4.906   3.416  23.042  0.00  0.00    -0.302 N 
ATOM     13  H   UNL     1       4.493   2.781  23.712  0.00  0.00    +0.150 HD
ATOM     14  C   UNL     1       4.244   4.579  22.675  0.00  0.00    +0.234 C 
ATOM     15  O   UNL     1       4.719   5.363  21.852  0.00  0.00    -0.274 OA
BRANCH  14  16
ATOM     16  CA  UNL     1       2.842   4.888  23.299  0.00  0.00    +0.165 C 
BRANCH  16  17
ATOM     17  N   UNL     1       2.811   5.983  24.298  0.00  0.00    -0.302 N 
ATOM     18  H   UNL     1       2.771   6.935  23.951  0.00  0.00    +0.150 HD
ATOM     19  C   UNL     1       2.845   5.731  25.666  0.00  0.00    +0.234 C 
ATOM     20  O   UNL     1       2.965   4.595  26.118  0.00  0.00    -0.274 OA
BRANCH  19  21
ATOM     21  CA  UNL     1       2.801   6.975  26.585  0.00  0.00    +0.159 C 
ATOM     22  N   UNL     1       1.649   6.961  27.453  0.00  0.00    -0.304 N 
ATOM     23  H   UNL     1       0.694   7.173  27.189  0.00  0.00    +0.149 HD
ATOM     24  C   UNL     1       1.952   6.549  28.731  0.00  0.00    +0.214 C 
ATOM     25  O   UNL     1       1.124   6.297  29.588  0.00  0.00    -0.276 OA
ATOM     26  C   UNL     1       3.442   6.359  28.840  0.00  0.00    +0.098 C 
ATOM     27  C   UNL     1       3.965   7.049  27.578  0.00  0.00    +0.041 C 
ENDBRANCH  19  21
ENDBRANCH  16  17
BRANCH  16  28
ATOM     28  CB  UNL     1       1.701   4.970  22.279  0.00  0.00    +0.086 C 
BRANCH  28  29
ATOM     29  CG  UNL     1       1.782   3.983  21.170  0.00  0.00    +0.038 A 
ATOM     30  ND1 UNL     1       2.275   4.274  19.924  0.00  0.00    -0.348 N 
ATOM     31  HD1 UNL     1       2.737   5.121  19.636  0.00  0.00    +0.166 HD
ATOM     32  CE1 UNL     1       2.048   3.207  19.126  0.00  0.00    +0.196 A 
ATOM     33  NE2 UNL     1       1.513   2.221  19.814  0.00  0.00    -0.244 NA
ATOM     34  CD2 UNL     1       1.357   2.681  21.088  0.00  0.00    +0.133 A 
ENDBRANCH  28  29
ENDBRANCH  16  28
ENDBRANCH  14  16
ENDBRANCH  11  12
BRANCH  11  35
ATOM     35  CB  UNL     1       7.410   3.767  23.170  0.00  0.00    +0.069 C 
BRANCH  35  36
ATOM     36  CG  UNL     1       7.190   4.230  24.589  0.00  0.00    -0.020 A 
ATOM     37  CD2 UNL     1       7.974   5.150  25.393  0.00  0.00    +0.003 A 
ATOM     38  CE2 UNL     1       7.270   5.347  26.593  0.00  0.00    +0.047 A 
ATOM     39  CZ2 UNL     1       7.566   6.331  27.532  0.00  0.00    +0.026 A 
ATOM     40  CH2 UNL     1       8.692   7.107  27.308  0.00  0.00    +0.002 A 
ATOM     41  CZ3 UNL     1       9.512   6.848  26.212  0.00  0.00    +0.001 A 
ATOM     42  NE1 UNL     1       6.323   4.398  26.621  0.00  0.00    -0.360 N 
ATOM     43  HE1 UNL     1       5.775   4.169  27.423  0.00  0.00    +0.165 HD
ATOM     44  CE3 UNL     1       9.172   5.876  25.248  0.00  0.00    +0.010 A 
ATOM     45  CD1 UNL     1       6.127   3.860  25.386  0.00  0.00    +0.087 A 
ENDBRANCH  35  36
ENDBRANCH  11  35
ENDBRANCH   9  11
ENDBRANCH   6   7
BRANCH   6  46
ATOM     46  C   UNL     1       8.463  -1.122  20.691  0.00  0.00    +0.187 C 
BRANCH  46  47
ATOM     47  O   UNL     1       9.759  -0.941  21.264  0.00  0.00    -0.393 OA
ATOM     48  H   UNL     1       9.669  -0.967  22.232  0.00  0.00    +0.209 HD
ENDBRANCH  46  47
ENDBRANCH   6  46
ENDBRANCH   4   6
ENDBRANCH   1   2
BRANCH   1  51
ATOM     49  N   UNL     1       6.913   0.012  25.548  0.00  0.00    -0.301 N 
ATOM     50  H   UNL     1       6.736   0.237  24.574  0.00  0.00    +0.150 HD
ATOM     51  C   UNL     1       7.028  -1.305  25.950  0.00  0.00    +0.234 C 
ATOM     52  O   UNL     1       7.607  -1.601  26.996  0.00  0.00    -0.274 OA
BRANCH  49  53
ATOM     53  C   UNL     1       7.445   1.120  26.384  0.00  0.00    +0.185 C 
BRANCH  53  56
ATOM     54  N   UNL     1       5.756   0.595  28.214  0.00  0.00    -0.302 N 
ATOM     55  H   UNL     1       5.098   0.497  27.449  0.00  0.00    +0.150 HD
ATOM     56  C   UNL     1       7.069   0.902  27.906  0.00  0.00    +0.236 C 
ATOM     57  O   UNL     1       7.969   0.900  28.757  0.00  0.00    -0.274 OA
BRANCH  54  58
ATOM     58  C   UNL     1       5.190   0.169  29.538  0.00  0.00    +0.159 C 
BRANCH  58  59
ATOM     59  C   UNL     1       4.079  -0.939  29.293  0.00  0.00    +0.234 C 
ATOM     60  N   UNL     1       3.149  -1.202  30.283  0.00  0.00    -0.302 N 
ATOM     61  H   UNL     1       2.986  -0.529  31.027  0.00  0.00    +0.150 HD
ATOM     62  O   UNL     1       4.155  -1.671  28.300  0.00  0.00    -0.274 OA
BRANCH  60  63
ATOM     63  C   UNL     1       2.196  -2.348  30.244  0.00  0.00    +0.159 C 
BRANCH  63  64
ATOM     64  C   UNL     1       2.889  -3.688  29.824  0.00  0.00    +0.237 C 
ATOM     65  N   UNL     1       2.092  -4.804  29.613  0.00  0.00    -0.288 N 
ATOM     66  C   UNL     1       2.631  -6.079  29.113  0.00  0.00    +0.163 C 
ATOM     67  C   UNL     1       1.569  -7.127  29.516  0.00  0.00    +0.033 C 
ATOM     68  C   UNL     1       0.443  -6.345  30.198  0.00  0.00    +0.021 C 
ATOM     69  C   UNL     1       0.652  -4.912  29.759  0.00  0.00    +0.109 C 
ATOM     70  O   UNL     1       4.111  -3.740  29.656  0.00  0.00    -0.274 OA
BRANCH  66  71
ATOM     71  C   UNL     1       2.753  -6.090  27.571  0.00  0.00    +0.250 C 
ATOM     72  N   UNL     1       1.633  -6.533  26.886  0.00  0.00    -0.232 N 
ATOM     73  H   UNL     1       0.903  -7.118  27.289  0.00  0.00    +0.173 HD
ATOM     74  O   UNL     1       3.714  -5.597  26.971  0.00  0.00    -0.272 OA
BRANCH  72  75
ATOM     75  N   UNL     1       1.671  -6.456  25.479  0.00  0.00    -0.218 N 
ATOM     76  H   UNL     1       0.841  -6.062  25.046  0.00  0.00    +0.174 HD
ATOM     77  C   UNL     1       2.496  -7.293  24.773  0.00  0.00    +0.313 C 
ATOM     78  O   UNL     1       3.351  -8.015  25.270  0.00  0.00    -0.252 OA
ATOM     79  N   UNL     1       2.319  -7.205  23.426  0.00  0.00    -0.312 N 
ATOM     80  H   UNL     1       2.865  -7.838  22.854  0.00  0.00    +0.147 HD
ATOM     81  H   UNL     1       1.457  -6.858  23.032  0.00  0.00    +0.147 HD
ENDBRANCH  72  75
ENDBRANCH  66  71
ENDBRANCH  63  64
BRANCH  63  82
ATOM     82  C   UNL     1       1.043  -2.072  29.252  0.00  0.00    +0.035 C 
BRANCH  82  83
ATOM     83  C   UNL     1       1.478  -1.668  27.846  0.00  0.00    +0.043 C 
BRANCH  83  84
ATOM     84  C   UNL     1       0.448  -0.825  27.107  0.00  0.00    +0.243 C 
BRANCH  84  85
ATOM     85  N   UNL     1       0.452   0.530  27.664  0.00  0.00    -0.114 NA
ATOM     86  C   UNL     1       1.271   1.382  27.171  0.00  0.00    +0.376 C 
ATOM     87  N   UNL     1       1.281   2.642  27.660  0.00  0.00    -0.289 N 
ATOM     88  H   UNL     1       1.322   3.336  26.927  0.00  0.00    +0.255 HD
ATOM     89  H   UNL     1       0.462   2.777  28.244  0.00  0.00    +0.255 HD
ATOM     90  N   UNL     1       2.190   1.277  26.184  0.00  0.00    -0.289 N 
ATOM     91  H   UNL     1       3.041   1.784  26.390  0.00  0.00    +0.255 HD
ATOM     92  H   UNL     1       2.423   0.335  25.870  0.00  0.00    +0.255 HD
ENDBRANCH  84  85
ENDBRANCH  83  84
ENDBRANCH  82  83
ENDBRANCH  63  82
ENDBRANCH  60  63
ENDBRANCH  58  59
BRANCH  58  93
ATOM     93  C   UNL     1       4.705   1.287  30.474  0.00  0.00    +0.034 C 
BRANCH  93  95
ATOM     94  C   UNL     1       2.867   2.998  30.318  0.00  0.00    +0.007 C 
ATOM     95  C   UNL     1       4.229   2.569  29.770  0.00  0.00    -0.015 C 
ATOM     96  C   UNL     1       5.211   3.727  29.911  0.00  0.00    +0.007 C 
ENDBRANCH  93  95
ENDBRANCH  58  93
ENDBRANCH  54  58
ENDBRANCH  53  56
BRANCH  53  97
ATOM     97  C   UNL     1       8.911   1.481  25.991  0.00  0.00    +0.192 C 
BRANCH  97  98
ATOM     98  O   UNL     1       9.410   0.883  24.785  0.00  0.00    -0.372 OA
BRANCH  98  99
ATOM     99  C   UNL     1      10.462   1.614  24.089  0.00  0.00    +0.061 C 
ATOM    100  C   UNL     1      10.189   1.777  22.583  0.00  0.00    +0.041 C 
ATOM    101  C   UNL     1      11.751   0.781  24.231  0.00  0.00    +0.041 C 
ATOM    102  C   UNL     1      10.720   2.998  24.709  0.00  0.00    +0.041 C 
ENDBRANCH  98  99
ENDBRANCH  97  98
ENDBRANCH  53  97
ENDBRANCH  49  53
ENDBRANCH   1  51
BRANCH   1 103
ATOM    103  C   UNL     1       7.211  -3.764  25.115  0.00  0.00    +0.067 C 
BRANCH 103 104
ATOM    104  C   UNL     1       6.940  -4.724  23.979  0.00  0.00    -0.045 A 
ATOM    105  C   UNL     1       5.614  -5.011  23.621  0.00  0.00    +0.007 A 
ATOM    106  C   UNL     1       5.335  -5.753  22.477  0.00  0.00    +0.045 A 
ATOM    107  C   UNL     1       6.374  -6.160  21.657  0.00  0.00    +0.117 A 
ATOM    108  C   UNL     1       7.706  -5.961  22.015  0.00  0.00    +0.045 A 
ATOM    109  C   UNL     1       7.981  -5.259  23.200  0.00  0.00    +0.007 A 
BRANCH 107 110
ATOM    110  O   UNL     1       5.969  -6.545  20.421  0.00  0.00    -0.507 OA
ATOM    111  H   UNL     1       6.629  -7.175  20.027  0.00  0.00    +0.292 HD
ENDBRANCH 107 110
ENDBRANCH 103 104
ENDBRANCH   1 103
TORSDOF 35
ENDMDL
MODEL 5
REMARK VINA RESULT:      -1.5      2.645     10.187
REMARK  Name = 
REMARK  40 active torsions:
REMARK  status: ('A' for Active; 'I' for Inactive)
REMARK    1  A    between atoms: C_1  and  C_2
REMARK    2  A    between atoms: C_2  and  C_3
REMARK    3  A    between atoms: C_2  and  C_4
REMARK    4  A    between atoms: C_4  and  C_5
REMARK    5  A    between atoms: C_5  and  N_7
REMARK    6  A    between atoms: C_5  and  C_74
REMARK    7  A    between atoms: C_8  and  C_10
REMARK    8  A    between atoms: C_10  and  C_12
REMARK    9  A    between atoms: C_10  and  N_18
REMARK   10  A    between atoms: C_12  and  O_13
REMARK   11  A    between atoms: O_13  and  C_14
REMARK   12  A    between atoms: C_14  and  C_15
REMARK   13  A    between atoms: C_14  and  C_16
REMARK   14  A    between atoms: C_14  and  C_17
REMARK   15  A    between atoms: C_19  and  C_21
REMARK   16  A    between atoms: C_21  and  C_23
REMARK   17  A    between atoms: C_21  and  N_31
REMARK   18  A    between atoms: C_23  and  C_24
REMARK   19  A    between atoms: C_27  and  O_28
REMARK   20  A    between atoms: C_32  and  CA_34
REMARK   21  A    between atoms: CA_34  and  C_36
REMARK   22  A    between atoms: CA_34  and  N_38
REMARK   23  A    between atoms: C_36  and  O_37
REMARK   24  A    between atoms: C_39  and  CA_41
REMARK   25  A    between atoms: CA_41  and  CB_43
REMARK   26  A    between atoms: CA_41  and  N_53
REMARK   27  A    between atoms: CB_43  and  CG_44
REMARK   28  A    between atoms: C_54  and  CA_56
REMARK   29  A    between atoms: CA_56  and  CB_58
REMARK   30  A    between atoms: CA_56  and  N_64
REMARK   31  A    between atoms: CB_58  and  CG_59
REMARK   32  A    between atoms: C_65  and  CA_67
REMARK   33  A    between atoms: N_76  and  C_77
REMARK   34  A    between atoms: C_77  and  C_79
REMARK   35  A    between atoms: C_77  and  C_86
REMARK   36  A    between atoms: C_79  and  C_80
REMARK   37  A    between atoms: C_80  and  C_81
REMARK   38  A    between atoms: C_81  and  N_82
REMARK   39  A    between atoms: C_92  and  C_94
REMARK   40  A    between atoms: N_96  and  N_97
REMARK                            x       y       z     vdW  Elec       q    Type
REMARK                         _______ _______ _______ _____ _____    ______ ____
ROOT
ATOM      1  C   UNL     1       7.169   1.476  23.733  0.00  0.00    +0.163 C 
ENDROOT
BRANCH   1   2
ATOM      2  N   UNL     1       6.886   0.745  24.984  0.00  0.00    -0.302 N 
ATOM      3  H   UNL     1       7.274  -0.184  25.037  0.00  0.00    +0.150 HD
ATOM      4  C   UNL     1       6.646   1.397  26.187  0.00  0.00    +0.236 C 
ATOM      5  O   UNL     1       6.619   2.615  26.262  0.00  0.00    -0.274 OA
BRANCH   4   6
ATOM      6  CA  UNL     1       6.410   0.508  27.425  0.00  0.00    +0.184 C 
BRANCH   6   7
ATOM      7  N   UNL     1       5.039  -0.006  27.607  0.00  0.00    -0.301 N 
ATOM      8  H   UNL     1       4.457  -0.169  26.801  0.00  0.00    +0.150 HD
ATOM      9  C   UNL     1       4.519  -0.098  28.882  0.00  0.00    +0.234 C 
ATOM     10  O   UNL     1       5.266   0.100  29.845  0.00  0.00    -0.274 OA
BRANCH   9  11
ATOM     11  CA  UNL     1       2.996  -0.443  29.074  0.00  0.00    +0.163 C 
BRANCH  11  12
ATOM     12  N   UNL     1       2.844  -1.923  29.162  0.00  0.00    -0.302 N 
ATOM     13  H   UNL     1       3.232  -2.362  29.986  0.00  0.00    +0.150 HD
ATOM     14  C   UNL     1       2.229  -2.687  28.181  0.00  0.00    +0.234 C 
ATOM     15  O   UNL     1       1.760  -2.179  27.161  0.00  0.00    -0.274 OA
BRANCH  14  16
ATOM     16  CA  UNL     1       2.159  -4.241  28.358  0.00  0.00    +0.165 C 
BRANCH  16  17
ATOM     17  N   UNL     1       2.974  -5.034  27.407  0.00  0.00    -0.302 N 
ATOM     18  H   UNL     1       3.912  -4.705  27.204  0.00  0.00    +0.150 HD
ATOM     19  C   UNL     1       2.483  -6.184  26.799  0.00  0.00    +0.234 C 
ATOM     20  O   UNL     1       1.329  -6.571  26.968  0.00  0.00    -0.274 OA
BRANCH  19  21
ATOM     21  CA  UNL     1       3.453  -6.907  25.834  0.00  0.00    +0.159 C 
ATOM     22  N   UNL     1       2.763  -7.468  24.698  0.00  0.00    -0.304 N 
ATOM     23  H   UNL     1       2.197  -8.308  24.692  0.00  0.00    +0.149 HD
ATOM     24  C   UNL     1       2.884  -6.692  23.567  0.00  0.00    +0.214 C 
ATOM     25  O   UNL     1       2.255  -6.871  22.539  0.00  0.00    -0.276 OA
ATOM     26  C   UNL     1       3.819  -5.549  23.859  0.00  0.00    +0.098 C 
ATOM     27  C   UNL     1       4.475  -5.975  25.175  0.00  0.00    +0.041 C 
ENDBRANCH  19  21
ENDBRANCH  16  17
BRANCH  16  28
ATOM     28  CB  UNL     1       2.291  -4.719  29.809  0.00  0.00    +0.086 C 
BRANCH  28  29
ATOM     29  CG  UNL     1       3.524  -5.496  30.100  0.00  0.00    +0.038 A 
ATOM     30  ND1 UNL     1       4.790  -4.971  30.041  0.00  0.00    -0.348 N 
ATOM     31  HD1 UNL     1       5.041  -4.005  29.914  0.00  0.00    +0.166 HD
ATOM     32  CE1 UNL     1       5.669  -5.985  30.198  0.00  0.00    +0.196 A 
ATOM     33  NE2 UNL     1       5.036  -7.113  30.438  0.00  0.00    -0.244 NA
ATOM     34  CD2 UNL     1       3.705  -6.823  30.397  0.00  0.00    +0.133 A 
ENDBRANCH  28  29
ENDBRANCH  16  28
ENDBRANCH  14  16
ENDBRANCH  11  12
BRANCH  11  35
ATOM     35  CB  UNL     1       2.240   0.291  30.231  0.00  0.00    +0.069 C 
BRANCH  35  36
ATOM     36  CG  UNL     1       1.695   1.665  29.924  0.00  0.00    -0.020 A 
ATOM     37  CD2 UNL     1       2.182   2.665  28.992  0.00  0.00    +0.003 A 
ATOM     38  CE2 UNL     1       1.244   3.710  28.985  0.00  0.00    +0.047 A 
ATOM     39  CZ2 UNL     1       1.222   4.749  28.060  0.00  0.00    +0.026 A 
ATOM     40  CH2 UNL     1       2.258   4.804  27.140  0.00  0.00    +0.002 A 
ATOM     41  CZ3 UNL     1       3.297   3.880  27.203  0.00  0.00    +0.001 A 
ATOM     42  NE1 UNL     1       0.443   3.488  30.038  0.00  0.00    -0.360 N 
ATOM     43  HE1 UNL     1      -0.212   4.149  30.400  0.00  0.00    +0.165 HD
ATOM     44  CE3 UNL     1       3.279   2.808  28.120  0.00  0.00    +0.010 A 
ATOM     45  CD1 UNL     1       0.558   2.208  30.485  0.00  0.00    +0.087 A 
ENDBRANCH  35  36
ENDBRANCH  11  35
ENDBRANCH   9  11
ENDBRANCH   6   7
BRANCH   6  46
ATOM     46  C   UNL     1       7.468  -0.604  27.483  0.00  0.00    +0.187 C 
BRANCH  46  47
ATOM     47  O   UNL     1       7.107  -1.748  26.707  0.00  0.00    -0.393 OA
ATOM     48  H   UNL     1       6.753  -2.424  27.311  0.00  0.00    +0.209 HD
ENDBRANCH  46  47
ENDBRANCH   6  46
ENDBRANCH   4   6
ENDBRANCH   1   2
BRANCH   1  51
ATOM     49  N   UNL     1       4.889   2.463  24.124  0.00  0.00    -0.301 N 
ATOM     50  H   UNL     1       4.565   1.531  24.364  0.00  0.00    +0.150 HD
ATOM     51  C   UNL     1       6.148   2.647  23.584  0.00  0.00    +0.234 C 
ATOM     52  O   UNL     1       6.420   3.662  22.941  0.00  0.00    -0.274 OA
BRANCH  49  53
ATOM     53  C   UNL     1       3.834   3.501  23.985  0.00  0.00    +0.185 C 
BRANCH  53  56
ATOM     54  N   UNL     1       4.887   5.462  25.221  0.00  0.00    -0.302 N 
ATOM     55  H   UNL     1       4.791   4.875  26.042  0.00  0.00    +0.150 HD
ATOM     56  C   UNL     1       4.470   4.950  24.004  0.00  0.00    +0.236 C 
ATOM     57  O   UNL     1       4.678   5.533  22.932  0.00  0.00    -0.274 OA
BRANCH  54  58
ATOM     58  C   UNL     1       5.674   6.714  25.478  0.00  0.00    +0.159 C 
BRANCH  58  59
ATOM     59  C   UNL     1       6.920   6.753  24.493  0.00  0.00    +0.234 C 
ATOM     60  N   UNL     1       8.197   6.619  25.005  0.00  0.00    -0.302 N 
ATOM     61  H   UNL     1       8.342   6.226  25.930  0.00  0.00    +0.150 HD
ATOM     62  O   UNL     1       6.752   7.069  23.310  0.00  0.00    -0.274 OA
BRANCH  60  63
ATOM     63  C   UNL     1       9.438   6.841  24.208  0.00  0.00    +0.159 C 
BRANCH  63  64
ATOM     64  C   UNL     1       9.737   5.661  23.223  0.00  0.00    +0.237 C 
ATOM     65  N   UNL     1      11.058   5.396  22.894  0.00  0.00    -0.288 N 
ATOM     66  C   UNL     1      11.451   4.245  22.065  0.00  0.00    +0.163 C 
ATOM     67  C   UNL     1      12.856   4.617  21.538  0.00  0.00    +0.033 C 
ATOM     68  C   UNL     1      13.193   5.974  22.159  0.00  0.00    +0.021 C 
ATOM     69  C   UNL     1      12.246   6.106  23.332  0.00  0.00    +0.109 C 
ATOM     70  O   UNL     1       8.819   4.966  22.777  0.00  0.00    -0.274 OA
BRANCH  66  71
ATOM     71  C   UNL     1      11.582   2.949  22.899  0.00  0.00    +0.250 C 
ATOM     72  N   UNL     1      10.501   2.085  22.833  0.00  0.00    -0.232 N 
ATOM     73  H   UNL     1       9.558   2.358  22.561  0.00  0.00    +0.173 HD
ATOM     74  O   UNL     1      12.629   2.618  23.465  0.00  0.00    -0.272 OA
BRANCH  72  75
ATOM     75  N   UNL     1      10.629   0.847  23.495  0.00  0.00    -0.218 N 
ATOM     76  H   UNL     1      10.618   0.030  22.891  0.00  0.00    +0.174 HD
ATOM     77  C   UNL     1      10.278   0.741  24.817  0.00  0.00    +0.313 C 
ATOM     78  O   UNL     1      10.006   1.687  25.546  0.00  0.00    -0.252 OA
ATOM     79  N   UNL     1      10.317  -0.538  25.279  0.00  0.00    -0.312 N 
ATOM     80  H   UNL     1      10.018  -0.685  26.235  0.00  0.00    +0.147 HD
ATOM     81  H   UNL     1      10.248  -1.325  24.650  0.00  0.00    +0.147 HD
ENDBRANCH  72  75
ENDBRANCH  66  71
ENDBRANCH  63  64
BRANCH  63  82
ATOM     82  C   UNL     1      10.663   7.015  25.135  0.00  0.00    +0.035 C 
BRANCH  82  83
ATOM     83  C   UNL     1      10.582   6.273  26.467  0.00  0.00    +0.043 C 
BRANCH  83  84
ATOM     84  C   UNL     1      11.071   7.091  27.652  0.00  0.00    +0.243 C 
BRANCH  84  85
ATOM     85  N   UNL     1      12.434   6.673  27.992  0.00  0.00    -0.114 NA
ATOM     86  C   UNL     1      12.695   6.406  29.217  0.00  0.00    +0.376 C 
ATOM     87  N   UNL     1      13.942   6.005  29.550  0.00  0.00    -0.289 N 
ATOM     88  H   UNL     1      13.933   5.220  30.186  0.00  0.00    +0.255 HD
ATOM     89  H   UNL     1      14.455   5.781  28.703  0.00  0.00    +0.255 HD
ATOM     90  N   UNL     1      11.922   6.438  30.327  0.00  0.00    -0.289 N 
ATOM     91  H   UNL     1      12.419   6.788  31.136  0.00  0.00    +0.255 HD
ATOM     92  H   UNL     1      11.024   6.913  30.249  0.00  0.00    +0.255 HD
ENDBRANCH  84  85
ENDBRANCH  83  84
ENDBRANCH  82  83
ENDBRANCH  63  82
ENDBRANCH  60  63
ENDBRANCH  58  59
BRANCH  58  93
ATOM     93  C   UNL     1       6.072   6.994  26.935  0.00  0.00    +0.034 C 
BRANCH  93  95
ATOM     94  C   UNL     1       7.765   6.227  28.631  0.00  0.00    +0.007 C 
ATOM     95  C   UNL     1       6.631   5.785  27.704  0.00  0.00    -0.015 C 
ATOM     96  C   UNL     1       5.571   5.057  28.523  0.00  0.00    +0.007 C 
ENDBRANCH  93  95
ENDBRANCH  58  93
ENDBRANCH  54  58
ENDBRANCH  53  56
BRANCH  53  97
ATOM     97  C   UNL     1       2.799   3.123  22.881  0.00  0.00    +0.192 C 
BRANCH  97  98
ATOM     98  O   UNL     1       2.745   3.993  21.739  0.00  0.00    -0.372 OA
BRANCH  98  99
ATOM     99  C   UNL     1       1.448   4.588  21.443  0.00  0.00    +0.061 C 
ATOM    100  C   UNL     1       0.713   3.888  20.286  0.00  0.00    +0.041 C 
ATOM    101  C   UNL     1       1.716   6.040  21.000  0.00  0.00    +0.041 C 
ATOM    102  C   UNL     1       0.528   4.630  22.675  0.00  0.00    +0.041 C 
ENDBRANCH  98  99
ENDBRANCH  97  98
ENDBRANCH  53  97
ENDBRANCH  49  53
ENDBRANCH   1  51
BRANCH   1 103
ATOM    103  C   UNL     1       7.289   0.591  22.468  0.00  0.00    +0.067 C 
BRANCH 103 104
ATOM    104  C   UNL     1       7.226  -0.893  22.744  0.00  0.00    -0.045 A 
ATOM    105  C   UNL     1       5.981  -1.498  22.975  0.00  0.00    +0.007 A 
ATOM    106  C   UNL     1       5.872  -2.883  23.062  0.00  0.00    +0.045 A 
ATOM    107  C   UNL     1       6.994  -3.670  22.861  0.00  0.00    +0.117 A 
ATOM    108  C   UNL     1       8.259  -3.108  22.703  0.00  0.00    +0.045 A 
ATOM    109  C   UNL     1       8.369  -1.708  22.672  0.00  0.00    +0.007 A 
BRANCH 107 110
ATOM    110  O   UNL     1       6.704  -4.972  22.613  0.00  0.00    -0.507 OA
ATOM    111  H   UNL     1       7.338  -5.561  23.102  0.00  0.00    +0.292 HD
ENDBRANCH 107 110
ENDBRANCH 103 104
ENDBRANCH   1 103
TORSDOF 35
ENDMDL
