MODEL 1
REMARK VINA RESULT:      -6.4      0.000      0.000
REMARK  Name = 
REMARK  15 active torsions:
REMARK  status: ('A' for Active; 'I' for Inactive)
REMARK    1  A    between atoms: C_2  and  O_3
REMARK    2  A    between atoms: C_2  and  C_4
REMARK    3  A    between atoms: C_2  and  C_8
REMARK    4  A    between atoms: C_4  and  C_5
REMARK    5  A    between atoms: C_5  and  O_6
REMARK    6  A    between atoms: N_10  and  C_11
REMARK    7  A    between atoms: C_11  and  C_13
REMARK    8  A    between atoms: C_11  and  C_21
REMARK    9  A    between atoms: C_13  and  C_14
REMARK   10  A    between atoms: C_14  and  C_15
REMARK   11  A    between atoms: N_23  and  C_24
REMARK   12  A    between atoms: C_24  and  C_25
REMARK   13  A    between atoms: C_25  and  C_26
REMARK   14  A    between atoms: C_26  and  C_27
REMARK   15  A    between atoms: C_26  and  C_28
REMARK                            x       y       z     vdW  Elec       q    Type
REMARK                         _______ _______ _______ _____ _____    ______ ____
ROOT
ATOM      1  C   UNL     1       8.657  -3.753  24.437  0.00  0.00    +0.159 C 
ENDROOT
BRANCH   1   3
ATOM      2  C   UNL     1       6.952  -3.796  26.324  0.00  0.00    +0.243 C 
ATOM      3  N   UNL     1       7.774  -3.160  25.442  0.00  0.00    -0.302 N 
ATOM      4  H   UNL     1       7.473  -2.205  25.283  0.00  0.00    +0.150 HD
ATOM      5  O   UNL     1       6.198  -3.112  27.017  0.00  0.00    -0.273 OA
BRANCH   2   6
ATOM      6  C   UNL     1       7.078  -5.313  26.537  0.00  0.00    +0.210 C 
BRANCH   6   7
ATOM      7  O   UNL     1       8.225  -5.587  27.360  0.00  0.00    -0.382 OA
ATOM      8  H   UNL     1       8.638  -6.398  26.993  0.00  0.00    +0.210 HD
ENDBRANCH   6   7
BRANCH   6   9
ATOM      9  C   UNL     1       5.837  -5.856  27.236  0.00  0.00    +0.161 C 
BRANCH   9  10
ATOM     10  C   UNL     1       6.082  -6.206  28.682  0.00  0.00    +0.308 C 
ATOM     11  O   UNL     1       6.113  -5.372  29.575  0.00  0.00    -0.251 OA
BRANCH  10  12
ATOM     12  O   UNL     1       6.362  -7.507  28.912  0.00  0.00    -0.481 OA
ATOM     13  H   UNL     1       7.329  -7.693  28.961  0.00  0.00    +0.295 HD
ENDBRANCH  10  12
ENDBRANCH   9  10
ENDBRANCH   6   9
ENDBRANCH   2   6
ENDBRANCH   1   3
BRANCH   1  14
ATOM     14  C   UNL     1       7.830  -4.091  23.171  0.00  0.00    +0.233 C 
ATOM     15  N   UNL     1       7.518  -5.426  23.022  0.00  0.00    -0.314 N 
ATOM     16  H   UNL     1       7.975  -6.118  23.604  0.00  0.00    +0.149 HD
ATOM     17  O   UNL     1       7.443  -3.227  22.388  0.00  0.00    -0.274 OA
BRANCH  15  18
ATOM     18  C   UNL     1       6.757  -5.912  21.887  0.00  0.00    +0.104 C 
BRANCH  18  19
ATOM     19  C   UNL     1       5.254  -5.891  22.163  0.00  0.00    +0.022 C 
BRANCH  19  20
ATOM     20  C   UNL     1       4.880  -5.706  23.648  0.00  0.00    -0.016 C 
ATOM     21  C   UNL     1       4.044  -6.896  24.125  0.00  0.00    +0.007 C 
ATOM     22  C   UNL     1       4.124  -4.401  23.904  0.00  0.00    +0.007 C 
ENDBRANCH  19  20
ENDBRANCH  18  19
ENDBRANCH  15  18
ENDBRANCH   1  14
BRANCH   1  23
ATOM     23  C   UNL     1       9.788  -2.778  24.077  0.00  0.00    +0.036 C 
BRANCH  23  24
ATOM     24  C   UNL     1       9.700  -1.455  24.843  0.00  0.00    +0.037 C 
BRANCH  24  25
ATOM     25  C   UNL     1       9.813  -0.284  23.899  0.00  0.00    -0.047 A 
ATOM     26  C   UNL     1      10.193   0.978  24.373  0.00  0.00    +0.003 A 
ATOM     27  C   UNL     1      10.329   2.053  23.493  0.00  0.00    +0.000 A 
ATOM     28  C   UNL     1      10.091   1.875  22.133  0.00  0.00    +0.000 A 
ATOM     29  C   UNL     1       9.715   0.624  21.650  0.00  0.00    +0.000 A 
ATOM     30  C   UNL     1       9.579  -0.452  22.528  0.00  0.00    +0.003 A 
ENDBRANCH  24  25
ENDBRANCH  23  24
ENDBRANCH   1  23
TORSDOF 13
ENDMDL
MODEL 2
REMARK VINA RESULT:      -6.3      3.182      7.118
REMARK  Name = 
REMARK  15 active torsions:
REMARK  status: ('A' for Active; 'I' for Inactive)
REMARK    1  A    between atoms: C_2  and  O_3
REMARK    2  A    between atoms: C_2  and  C_4
REMARK    3  A    between atoms: C_2  and  C_8
REMARK    4  A    between atoms: C_4  and  C_5
REMARK    5  A    between atoms: C_5  and  O_6
REMARK    6  A    between atoms: N_10  and  C_11
REMARK    7  A    between atoms: C_11  and  C_13
REMARK    8  A    between atoms: C_11  and  C_21
REMARK    9  A    between atoms: C_13  and  C_14
REMARK   10  A    between atoms: C_14  and  C_15
REMARK   11  A    between atoms: N_23  and  C_24
REMARK   12  A    between atoms: C_24  and  C_25
REMARK   13  A    between atoms: C_25  and  C_26
REMARK   14  A    between atoms: C_26  and  C_27
REMARK   15  A    between atoms: C_26  and  C_28
REMARK                            x       y       z     vdW  Elec       q    Type
REMARK                         _______ _______ _______ _____ _____    ______ ____
ROOT
ATOM      1  C   UNL     1       8.926  -1.325  23.748  0.00  0.00    +0.159 C 
ENDROOT
BRANCH   1   3
ATOM      2  C   UNL     1       8.587   1.169  23.383  0.00  0.00    +0.243 C 
ATOM      3  N   UNL     1       8.147  -0.089  23.671  0.00  0.00    -0.302 N 
ATOM      4  H   UNL     1       7.273  -0.064  24.185  0.00  0.00    +0.150 HD
ATOM      5  O   UNL     1       7.790   2.103  23.479  0.00  0.00    -0.273 OA
BRANCH   2   6
ATOM      6  C   UNL     1      10.000   1.380  22.816  0.00  0.00    +0.210 C 
BRANCH   6   7
ATOM      7  O   UNL     1       9.915   2.108  21.580  0.00  0.00    -0.382 OA
ATOM      8  H   UNL     1       9.025   2.521  21.565  0.00  0.00    +0.210 HD
ENDBRANCH   6   7
BRANCH   6   9
ATOM      9  C   UNL     1      10.850   2.181  23.795  0.00  0.00    +0.161 C 
BRANCH   9  10
ATOM     10  C   UNL     1      11.010   3.624  23.392  0.00  0.00    +0.308 C 
ATOM     11  O   UNL     1      12.099   4.166  23.266  0.00  0.00    -0.251 OA
BRANCH  10  12
ATOM     12  O   UNL     1       9.854   4.312  23.269  0.00  0.00    -0.481 OA
ATOM     13  H   UNL     1       9.963   5.282  23.409  0.00  0.00    +0.295 HD
ENDBRANCH  10  12
ENDBRANCH   9  10
ENDBRANCH   6   9
ENDBRANCH   2   6
ENDBRANCH   1   3
BRANCH   1  14
ATOM     14  C   UNL     1       8.638  -2.023  25.102  0.00  0.00    +0.233 C 
ATOM     15  N   UNL     1       8.928  -3.371  25.133  0.00  0.00    -0.314 N 
ATOM     16  H   UNL     1       9.122  -3.863  24.270  0.00  0.00    +0.149 HD
ATOM     17  O   UNL     1       8.229  -1.409  26.085  0.00  0.00    -0.274 OA
BRANCH  15  18
ATOM     18  C   UNL     1       8.708  -4.173  26.320  0.00  0.00    +0.104 C 
BRANCH  18  19
ATOM     19  C   UNL     1       7.691  -5.286  26.071  0.00  0.00    +0.022 C 
BRANCH  19  20
ATOM     20  C   UNL     1       6.375  -5.137  26.862  0.00  0.00    -0.016 C 
ATOM     21  C   UNL     1       5.442  -6.308  26.542  0.00  0.00    +0.007 C 
ATOM     22  C   UNL     1       5.667  -3.812  26.578  0.00  0.00    +0.007 C 
ENDBRANCH  19  20
ENDBRANCH  18  19
ENDBRANCH  15  18
ENDBRANCH   1  14
BRANCH   1  23
ATOM     23  C   UNL     1       8.557  -2.263  22.589  0.00  0.00    +0.036 C 
BRANCH  23  24
ATOM     24  C   UNL     1       7.066  -2.226  22.244  0.00  0.00    +0.037 C 
BRANCH  24  25
ATOM     25  C   UNL     1       6.426  -3.566  22.501  0.00  0.00    -0.047 A 
ATOM     26  C   UNL     1       5.100  -3.648  22.948  0.00  0.00    +0.003 A 
ATOM     27  C   UNL     1       4.499  -4.890  23.154  0.00  0.00    +0.000 A 
ATOM     28  C   UNL     1       5.212  -6.060  22.911  0.00  0.00    +0.000 A 
ATOM     29  C   UNL     1       6.530  -5.990  22.463  0.00  0.00    +0.000 A 
ATOM     30  C   UNL     1       7.133  -4.751  22.257  0.00  0.00    +0.003 A 
ENDBRANCH  24  25
ENDBRANCH  23  24
ENDBRANCH   1  23
TORSDOF 13
ENDMDL
MODEL 3
REMARK VINA RESULT:      -6.2      2.760      7.077
REMARK  Name = 
REMARK  15 active torsions:
REMARK  status: ('A' for Active; 'I' for Inactive)
REMARK    1  A    between atoms: C_2  and  O_3
REMARK    2  A    between atoms: C_2  and  C_4
REMARK    3  A    between atoms: C_2  and  C_8
REMARK    4  A    between atoms: C_4  and  C_5
REMARK    5  A    between atoms: C_5  and  O_6
REMARK    6  A    between atoms: N_10  and  C_11
REMARK    7  A    between atoms: C_11  and  C_13
REMARK    8  A    between atoms: C_11  and  C_21
REMARK    9  A    between atoms: C_13  and  C_14
REMARK   10  A    between atoms: C_14  and  C_15
REMARK   11  A    between atoms: N_23  and  C_24
REMARK   12  A    between atoms: C_24  and  C_25
REMARK   13  A    between atoms: C_25  and  C_26
REMARK   14  A    between atoms: C_26  and  C_27
REMARK   15  A    between atoms: C_26  and  C_28
REMARK                            x       y       z     vdW  Elec       q    Type
REMARK                         _______ _______ _______ _____ _____    ______ ____
ROOT
ATOM      1  C   UNL     1       8.050  -2.514  22.569  0.00  0.00    +0.159 C 
ENDROOT
BRANCH   1   3
ATOM      2  C   UNL     1       7.729   0.004  22.723  0.00  0.00    +0.243 C 
ATOM      3  N   UNL     1       7.351  -1.286  22.949  0.00  0.00    -0.302 N 
ATOM      4  H   UNL     1       6.702  -1.348  23.725  0.00  0.00    +0.150 HD
ATOM      5  O   UNL     1       7.057   0.906  23.224  0.00  0.00    -0.273 OA
BRANCH   2   6
ATOM      6  C   UNL     1       8.879   0.311  21.750  0.00  0.00    +0.210 C 
BRANCH   6   7
ATOM      7  O   UNL     1       8.565   1.495  20.997  0.00  0.00    -0.382 OA
ATOM      8  H   UNL     1       8.058   2.078  21.603  0.00  0.00    +0.210 HD
ENDBRANCH   6   7
BRANCH   6   9
ATOM      9  C   UNL     1      10.173   0.551  22.516  0.00  0.00    +0.161 C 
BRANCH   9  10
ATOM     10  C   UNL     1      10.264   1.939  23.098  0.00  0.00    +0.308 C 
ATOM     11  O   UNL     1       9.969   2.198  24.256  0.00  0.00    -0.251 OA
BRANCH  10  12
ATOM     12  O   UNL     1      10.607   2.903  22.217  0.00  0.00    -0.481 OA
ATOM     13  H   UNL     1      10.628   3.804  22.617  0.00  0.00    +0.295 HD
ENDBRANCH  10  12
ENDBRANCH   9  10
ENDBRANCH   6   9
ENDBRANCH   2   6
ENDBRANCH   1   3
BRANCH   1  14
ATOM     14  C   UNL     1       8.899  -3.007  23.768  0.00  0.00    +0.233 C 
ATOM     15  N   UNL     1       8.652  -4.307  24.158  0.00  0.00    -0.314 N 
ATOM     16  H   UNL     1       7.842  -4.796  23.796  0.00  0.00    +0.149 HD
ATOM     17  O   UNL     1       9.759  -2.307  24.297  0.00  0.00    -0.274 OA
BRANCH  15  18
ATOM     18  C   UNL     1       9.355  -4.919  25.269  0.00  0.00    +0.104 C 
BRANCH  18  19
ATOM     19  C   UNL     1       8.641  -4.669  26.596  0.00  0.00    +0.022 C 
BRANCH  19  20
ATOM     20  C   UNL     1       7.102  -4.631  26.496  0.00  0.00    -0.016 C 
ATOM     21  C   UNL     1       6.600  -3.208  26.756  0.00  0.00    +0.007 C 
ATOM     22  C   UNL     1       6.427  -5.606  27.462  0.00  0.00    +0.007 C 
ENDBRANCH  19  20
ENDBRANCH  18  19
ENDBRANCH  15  18
ENDBRANCH   1  14
BRANCH   1  23
ATOM     23  C   UNL     1       7.042  -3.599  22.162  0.00  0.00    +0.036 C 
BRANCH  23  24
ATOM     24  C   UNL     1       5.595  -3.224  22.495  0.00  0.00    +0.037 C 
BRANCH  24  25
ATOM     25  C   UNL     1       4.963  -4.269  23.379  0.00  0.00    -0.047 A 
ATOM     26  C   UNL     1       3.934  -3.924  24.264  0.00  0.00    +0.003 A 
ATOM     27  C   UNL     1       3.327  -4.899  25.058  0.00  0.00    +0.000 A 
ATOM     28  C   UNL     1       3.740  -6.226  24.971  0.00  0.00    +0.000 A 
ATOM     29  C   UNL     1       4.761  -6.580  24.092  0.00  0.00    +0.000 A 
ATOM     30  C   UNL     1       5.368  -5.608  23.298  0.00  0.00    +0.003 A 
ENDBRANCH  24  25
ENDBRANCH  23  24
ENDBRANCH   1  23
TORSDOF 13
ENDMDL
MODEL 4
REMARK VINA RESULT:      -6.2      2.754      5.339
REMARK  Name = 
REMARK  15 active torsions:
REMARK  status: ('A' for Active; 'I' for Inactive)
REMARK    1  A    between atoms: C_2  and  O_3
REMARK    2  A    between atoms: C_2  and  C_4
REMARK    3  A    between atoms: C_2  and  C_8
REMARK    4  A    between atoms: C_4  and  C_5
REMARK    5  A    between atoms: C_5  and  O_6
REMARK    6  A    between atoms: N_10  and  C_11
REMARK    7  A    between atoms: C_11  and  C_13
REMARK    8  A    between atoms: C_11  and  C_21
REMARK    9  A    between atoms: C_13  and  C_14
REMARK   10  A    between atoms: C_14  and  C_15
REMARK   11  A    between atoms: N_23  and  C_24
REMARK   12  A    between atoms: C_24  and  C_25
REMARK   13  A    between atoms: C_25  and  C_26
REMARK   14  A    between atoms: C_26  and  C_27
REMARK   15  A    between atoms: C_26  and  C_28
REMARK                            x       y       z     vdW  Elec       q    Type
REMARK                         _______ _______ _______ _____ _____    ______ ____
ROOT
ATOM      1  C   UNL     1       7.613  -2.493  23.222  0.00  0.00    +0.159 C 
ENDROOT
BRANCH   1   3
ATOM      2  C   UNL     1       8.412  -4.720  24.154  0.00  0.00    +0.243 C 
ATOM      3  N   UNL     1       8.568  -3.398  23.862  0.00  0.00    -0.302 N 
ATOM      4  H   UNL     1       9.282  -2.974  24.445  0.00  0.00    +0.150 HD
ATOM      5  O   UNL     1       9.295  -5.283  24.802  0.00  0.00    -0.273 OA
BRANCH   2   6
ATOM      6  C   UNL     1       7.232  -5.506  23.561  0.00  0.00    +0.210 C 
BRANCH   6   7
ATOM      7  O   UNL     1       6.001  -4.834  23.882  0.00  0.00    -0.382 OA
ATOM      8  H   UNL     1       5.979  -4.023  23.329  0.00  0.00    +0.210 HD
ENDBRANCH   6   7
BRANCH   6   9
ATOM      9  C   UNL     1       7.357  -5.589  22.044  0.00  0.00    +0.161 C 
BRANCH   9  10
ATOM     10  C   UNL     1       6.054  -5.335  21.330  0.00  0.00    +0.308 C 
ATOM     11  O   UNL     1       5.768  -4.258  20.825  0.00  0.00    -0.251 OA
BRANCH  10  12
ATOM     12  O   UNL     1       5.176  -6.360  21.369  0.00  0.00    -0.481 OA
ATOM     13  H   UNL     1       5.611  -7.241  21.444  0.00  0.00    +0.295 HD
ENDBRANCH  10  12
ENDBRANCH   9  10
ENDBRANCH   6   9
ENDBRANCH   2   6
ENDBRANCH   1   3
BRANCH   1  14
ATOM     14  C   UNL     1       7.172  -1.413  24.243  0.00  0.00    +0.233 C 
ATOM     15  N   UNL     1       6.379  -0.412  23.723  0.00  0.00    -0.314 N 
ATOM     16  H   UNL     1       6.281  -0.318  22.721  0.00  0.00    +0.149 HD
ATOM     17  O   UNL     1       7.469  -1.475  25.434  0.00  0.00    -0.274 OA
BRANCH  15  18
ATOM     18  C   UNL     1       5.889   0.679  24.543  0.00  0.00    +0.104 C 
BRANCH  18  19
ATOM     19  C   UNL     1       6.737   1.938  24.375  0.00  0.00    +0.022 C 
BRANCH  19  20
ATOM     20  C   UNL     1       7.581   2.311  25.611  0.00  0.00    -0.016 C 
ATOM     21  C   UNL     1       6.891   1.806  26.881  0.00  0.00    +0.007 C 
ATOM     22  C   UNL     1       7.834   3.815  25.717  0.00  0.00    +0.007 C 
ENDBRANCH  19  20
ENDBRANCH  18  19
ENDBRANCH  15  18
ENDBRANCH   1  14
BRANCH   1  23
ATOM     23  C   UNL     1       8.251  -1.822  21.996  0.00  0.00    +0.036 C 
BRANCH  23  24
ATOM     24  C   UNL     1       9.758  -1.603  22.154  0.00  0.00    +0.037 C 
BRANCH  24  25
ATOM     25  C   UNL     1      10.048  -0.195  22.607  0.00  0.00    -0.047 A 
ATOM     26  C   UNL     1       9.730   0.896  21.787  0.00  0.00    +0.003 A 
ATOM     27  C   UNL     1       9.969   2.200  22.221  0.00  0.00    +0.000 A 
ATOM     28  C   UNL     1      10.523   2.427  23.478  0.00  0.00    +0.000 A 
ATOM     29  C   UNL     1      10.840   1.350  24.303  0.00  0.00    +0.000 A 
ATOM     30  C   UNL     1      10.602   0.046  23.871  0.00  0.00    +0.003 A 
ENDBRANCH  24  25
ENDBRANCH  23  24
ENDBRANCH   1  23
TORSDOF 13
ENDMDL
MODEL 5
REMARK VINA RESULT:      -6.2      2.810      6.687
REMARK  Name = 
REMARK  15 active torsions:
REMARK  status: ('A' for Active; 'I' for Inactive)
REMARK    1  A    between atoms: C_2  and  O_3
REMARK    2  A    between atoms: C_2  and  C_4
REMARK    3  A    between atoms: C_2  and  C_8
REMARK    4  A    between atoms: C_4  and  C_5
REMARK    5  A    between atoms: C_5  and  O_6
REMARK    6  A    between atoms: N_10  and  C_11
REMARK    7  A    between atoms: C_11  and  C_13
REMARK    8  A    between atoms: C_11  and  C_21
REMARK    9  A    between atoms: C_13  and  C_14
REMARK   10  A    between atoms: C_14  and  C_15
REMARK   11  A    between atoms: N_23  and  C_24
REMARK   12  A    between atoms: C_24  and  C_25
REMARK   13  A    between atoms: C_25  and  C_26
REMARK   14  A    between atoms: C_26  and  C_27
REMARK   15  A    between atoms: C_26  and  C_28
REMARK                            x       y       z     vdW  Elec       q    Type
REMARK                         _______ _______ _______ _____ _____    ______ ____
ROOT
ATOM      1  C   UNL     1       8.767  -1.203  24.974  0.00  0.00    +0.159 C 
ENDROOT
BRANCH   1   3
ATOM      2  C   UNL     1      10.214   0.829  24.477  0.00  0.00    +0.243 C 
ATOM      3  N   UNL     1      10.019  -0.448  24.915  0.00  0.00    -0.302 N 
ATOM      4  H   UNL     1      10.878  -0.985  24.877  0.00  0.00    +0.150 HD
ATOM      5  O   UNL     1      11.369   1.249  24.399  0.00  0.00    -0.273 OA
BRANCH   2   6
ATOM      6  C   UNL     1       9.009   1.750  24.229  0.00  0.00    +0.210 C 
BRANCH   6   7
ATOM      7  O   UNL     1       9.450   3.119  24.215  0.00  0.00    -0.382 OA
ATOM      8  H   UNL     1      10.366   3.116  24.567  0.00  0.00    +0.210 HD
ENDBRANCH   6   7
BRANCH   6   9
ATOM      9  C   UNL     1       8.366   1.433  22.884  0.00  0.00    +0.161 C 
BRANCH   9  10
ATOM     10  C   UNL     1       9.375   1.183  21.793  0.00  0.00    +0.308 C 
ATOM     11  O   UNL     1       9.489   0.108  21.222  0.00  0.00    -0.251 OA
BRANCH  10  12
ATOM     12  O   UNL     1      10.218   2.211  21.551  0.00  0.00    -0.481 OA
ATOM     13  H   UNL     1       9.771   3.090  21.562  0.00  0.00    +0.295 HD
ENDBRANCH  10  12
ENDBRANCH   9  10
ENDBRANCH   6   9
ENDBRANCH   2   6
ENDBRANCH   1   3
BRANCH   1  14
ATOM     14  C   UNL     1       8.864  -2.421  24.020  0.00  0.00    +0.233 C 
ATOM     15  N   UNL     1       7.691  -2.740  23.367  0.00  0.00    -0.314 N 
ATOM     16  H   UNL     1       6.820  -2.317  23.661  0.00  0.00    +0.149 HD
ATOM     17  O   UNL     1       9.917  -3.023  23.826  0.00  0.00    -0.274 OA
BRANCH  15  18
ATOM     18  C   UNL     1       7.609  -3.856  22.445  0.00  0.00    +0.104 C 
BRANCH  18  19
ATOM     19  C   UNL     1       7.212  -5.149  23.157  0.00  0.00    +0.022 C 
BRANCH  19  20
ATOM     20  C   UNL     1       6.115  -5.962  22.440  0.00  0.00    -0.016 C 
ATOM     21  C   UNL     1       6.238  -5.778  20.926  0.00  0.00    +0.007 C 
ATOM     22  C   UNL     1       4.708  -5.581  22.900  0.00  0.00    +0.007 C 
ENDBRANCH  19  20
ENDBRANCH  18  19
ENDBRANCH  15  18
ENDBRANCH   1  14
BRANCH   1  23
ATOM     23  C   UNL     1       8.500  -1.684  26.409  0.00  0.00    +0.036 C 
BRANCH  23  24
ATOM     24  C   UNL     1       7.007  -1.789  26.733  0.00  0.00    +0.037 C 
BRANCH  24  25
ATOM     25  C   UNL     1       6.549  -3.224  26.677  0.00  0.00    -0.047 A 
ATOM     26  C   UNL     1       7.462  -4.270  26.863  0.00  0.00    +0.003 A 
ATOM     27  C   UNL     1       7.029  -5.597  26.843  0.00  0.00    +0.000 A 
ATOM     28  C   UNL     1       5.683  -5.890  26.643  0.00  0.00    +0.000 A 
ATOM     29  C   UNL     1       4.767  -4.857  26.460  0.00  0.00    +0.000 A 
ATOM     30  C   UNL     1       5.196  -3.531  26.480  0.00  0.00    +0.003 A 
ENDBRANCH  24  25
ENDBRANCH  23  24
ENDBRANCH   1  23
TORSDOF 13
ENDMDL
MODEL 6
REMARK VINA RESULT:      -6.1      1.378      2.123
REMARK  Name = 
REMARK  15 active torsions:
REMARK  status: ('A' for Active; 'I' for Inactive)
REMARK    1  A    between atoms: C_2  and  O_3
REMARK    2  A    between atoms: C_2  and  C_4
REMARK    3  A    between atoms: C_2  and  C_8
REMARK    4  A    between atoms: C_4  and  C_5
REMARK    5  A    between atoms: C_5  and  O_6
REMARK    6  A    between atoms: N_10  and  C_11
REMARK    7  A    between atoms: C_11  and  C_13
REMARK    8  A    between atoms: C_11  and  C_21
REMARK    9  A    between atoms: C_13  and  C_14
REMARK   10  A    between atoms: C_14  and  C_15
REMARK   11  A    between atoms: N_23  and  C_24
REMARK   12  A    between atoms: C_24  and  C_25
REMARK   13  A    between atoms: C_25  and  C_26
REMARK   14  A    between atoms: C_26  and  C_27
REMARK   15  A    between atoms: C_26  and  C_28
REMARK                            x       y       z     vdW  Elec       q    Type
REMARK                         _______ _______ _______ _____ _____    ______ ____
ROOT
ATOM      1  C   UNL     1       9.079  -2.614  23.321  0.00  0.00    +0.159 C 
ENDROOT
BRANCH   1   3
ATOM      2  C   UNL     1       8.649  -2.786  25.822  0.00  0.00    +0.243 C 
ATOM      3  N   UNL     1       8.928  -2.095  24.681  0.00  0.00    -0.302 N 
ATOM      4  H   UNL     1       8.680  -1.116  24.774  0.00  0.00    +0.150 HD
ATOM      5  O   UNL     1       8.449  -2.149  26.857  0.00  0.00    -0.273 OA
BRANCH   2   6
ATOM      6  C   UNL     1       8.727  -4.321  25.831  0.00  0.00    +0.210 C 
BRANCH   6   7
ATOM      7  O   UNL     1       9.434  -4.757  27.005  0.00  0.00    -0.382 OA
ATOM      8  H   UNL     1       8.800  -4.680  27.751  0.00  0.00    +0.210 HD
ENDBRANCH   6   7
BRANCH   6   9
ATOM      9  C   UNL     1       7.327  -4.924  25.856  0.00  0.00    +0.161 C 
BRANCH   9  10
ATOM     10  C   UNL     1       6.848  -5.243  27.248  0.00  0.00    +0.308 C 
ATOM     11  O   UNL     1       6.796  -6.381  27.692  0.00  0.00    -0.251 OA
BRANCH  10  12
ATOM     12  O   UNL     1       6.385  -4.184  27.947  0.00  0.00    -0.481 OA
ATOM     13  H   UNL     1       5.584  -3.773  27.545  0.00  0.00    +0.295 HD
ENDBRANCH  10  12
ENDBRANCH   9  10
ENDBRANCH   6   9
ENDBRANCH   2   6
ENDBRANCH   1   3
BRANCH   1  14
ATOM     14  C   UNL     1       7.675  -2.896  22.727  0.00  0.00    +0.233 C 
ATOM     15  N   UNL     1       7.501  -4.171  22.232  0.00  0.00    -0.314 N 
ATOM     16  H   UNL     1       8.303  -4.775  22.105  0.00  0.00    +0.149 HD
ATOM     17  O   UNL     1       6.775  -2.060  22.743  0.00  0.00    -0.274 OA
BRANCH  15  18
ATOM     18  C   UNL     1       6.250  -4.594  21.634  0.00  0.00    +0.104 C 
BRANCH  18  19
ATOM     19  C   UNL     1       5.777  -5.933  22.198  0.00  0.00    +0.022 C 
BRANCH  19  20
ATOM     20  C   UNL     1       4.455  -5.862  22.989  0.00  0.00    -0.016 C 
ATOM     21  C   UNL     1       4.148  -4.409  23.358  0.00  0.00    +0.007 C 
ATOM     22  C   UNL     1       4.478  -6.727  24.249  0.00  0.00    +0.007 C 
ENDBRANCH  19  20
ENDBRANCH  18  19
ENDBRANCH  15  18
ENDBRANCH   1  14
BRANCH   1  23
ATOM     23  C   UNL     1       9.825  -1.600  22.441  0.00  0.00    +0.036 C 
BRANCH  23  24
ATOM     24  C   UNL     1      10.520  -0.504  23.254  0.00  0.00    +0.037 C 
BRANCH  24  25
ATOM     25  C   UNL     1       9.807   0.815  23.090  0.00  0.00    -0.047 A 
ATOM     26  C   UNL     1       8.972   1.040  21.988  0.00  0.00    +0.003 A 
ATOM     27  C   UNL     1       8.288   2.249  21.855  0.00  0.00    +0.000 A 
ATOM     28  C   UNL     1       8.427   3.240  22.823  0.00  0.00    +0.000 A 
ATOM     29  C   UNL     1       9.253   3.025  23.924  0.00  0.00    +0.000 A 
ATOM     30  C   UNL     1       9.938   1.818  24.059  0.00  0.00    +0.003 A 
ENDBRANCH  24  25
ENDBRANCH  23  24
ENDBRANCH   1  23
TORSDOF 13
ENDMDL
MODEL 7
REMARK VINA RESULT:      -6.1      2.762      4.792
REMARK  Name = 
REMARK  15 active torsions:
REMARK  status: ('A' for Active; 'I' for Inactive)
REMARK    1  A    between atoms: C_2  and  O_3
REMARK    2  A    between atoms: C_2  and  C_4
REMARK    3  A    between atoms: C_2  and  C_8
REMARK    4  A    between atoms: C_4  and  C_5
REMARK    5  A    between atoms: C_5  and  O_6
REMARK    6  A    between atoms: N_10  and  C_11
REMARK    7  A    between atoms: C_11  and  C_13
REMARK    8  A    between atoms: C_11  and  C_21
REMARK    9  A    between atoms: C_13  and  C_14
REMARK   10  A    between atoms: C_14  and  C_15
REMARK   11  A    between atoms: N_23  and  C_24
REMARK   12  A    between atoms: C_24  and  C_25
REMARK   13  A    between atoms: C_25  and  C_26
REMARK   14  A    between atoms: C_26  and  C_27
REMARK   15  A    between atoms: C_26  and  C_28
REMARK                            x       y       z     vdW  Elec       q    Type
REMARK                         _______ _______ _______ _____ _____    ______ ____
ROOT
ATOM      1  C   UNL     1       9.145  -1.493  23.324  0.00  0.00    +0.159 C 
ENDROOT
BRANCH   1   3
ATOM      2  C   UNL     1       9.381  -3.785  24.400  0.00  0.00    +0.243 C 
ATOM      3  N   UNL     1       9.881  -2.630  23.877  0.00  0.00    -0.302 N 
ATOM      4  H   UNL     1      10.819  -2.448  24.218  0.00  0.00    +0.150 HD
ATOM      5  O   UNL     1      10.166  -4.578  24.922  0.00  0.00    -0.273 OA
BRANCH   2   6
ATOM      6  C   UNL     1       7.897  -4.139  24.207  0.00  0.00    +0.210 C 
BRANCH   6   7
ATOM      7  O   UNL     1       7.790  -5.454  23.635  0.00  0.00    -0.382 OA
ATOM      8  H   UNL     1       8.708  -5.792  23.551  0.00  0.00    +0.210 HD
ENDBRANCH   6   7
BRANCH   6   9
ATOM      9  C   UNL     1       7.171  -4.132  25.547  0.00  0.00    +0.161 C 
BRANCH   9  10
ATOM     10  C   UNL     1       7.090  -5.497  26.180  0.00  0.00    +0.308 C 
ATOM     11  O   UNL     1       6.070  -6.173  26.181  0.00  0.00    -0.251 OA
BRANCH  10  12
ATOM     12  O   UNL     1       8.204  -5.887  26.836  0.00  0.00    -0.481 OA
ATOM     13  H   UNL     1       8.446  -5.287  27.581  0.00  0.00    +0.295 HD
ENDBRANCH  10  12
ENDBRANCH   9  10
ENDBRANCH   6   9
ENDBRANCH   2   6
ENDBRANCH   1   3
BRANCH   1  14
ATOM     14  C   UNL     1       8.376  -0.782  24.466  0.00  0.00    +0.233 C 
ATOM     15  N   UNL     1       7.021  -0.638  24.250  0.00  0.00    -0.314 N 
ATOM     16  H   UNL     1       6.637  -0.814  23.331  0.00  0.00    +0.149 HD
ATOM     17  O   UNL     1       8.925  -0.420  25.504  0.00  0.00    -0.274 OA
BRANCH  15  18
ATOM     18  C   UNL     1       6.158   0.013  25.216  0.00  0.00    +0.104 C 
BRANCH  18  19
ATOM     19  C   UNL     1       5.747   1.411  24.756  0.00  0.00    +0.022 C 
BRANCH  19  20
ATOM     20  C   UNL     1       5.831   2.495  25.851  0.00  0.00    -0.016 C 
ATOM     21  C   UNL     1       5.316   3.828  25.302  0.00  0.00    +0.007 C 
ATOM     22  C   UNL     1       7.249   2.668  26.396  0.00  0.00    +0.007 C 
ENDBRANCH  19  20
ENDBRANCH  18  19
ENDBRANCH  15  18
ENDBRANCH   1  14
BRANCH   1  23
ATOM     23  C   UNL     1      10.112  -0.506  22.652  0.00  0.00    +0.036 C 
BRANCH  23  24
ATOM     24  C   UNL     1       9.437   0.349  21.576  0.00  0.00    +0.037 C 
BRANCH  24  25
ATOM     25  C   UNL     1       9.013   1.681  22.141  0.00  0.00    -0.047 A 
ATOM     26  C   UNL     1       9.830   2.358  23.055  0.00  0.00    +0.003 A 
ATOM     27  C   UNL     1       9.452   3.607  23.552  0.00  0.00    +0.000 A 
ATOM     28  C   UNL     1       8.258   4.190  23.138  0.00  0.00    +0.000 A 
ATOM     29  C   UNL     1       7.439   3.526  22.227  0.00  0.00    +0.000 A 
ATOM     30  C   UNL     1       7.815   2.279  21.729  0.00  0.00    +0.003 A 
ENDBRANCH  24  25
ENDBRANCH  23  24
ENDBRANCH   1  23
TORSDOF 13
ENDMDL
MODEL 8
REMARK VINA RESULT:      -6.0      2.784      5.235
REMARK  Name = 
REMARK  15 active torsions:
REMARK  status: ('A' for Active; 'I' for Inactive)
REMARK    1  A    between atoms: C_2  and  O_3
REMARK    2  A    between atoms: C_2  and  C_4
REMARK    3  A    between atoms: C_2  and  C_8
REMARK    4  A    between atoms: C_4  and  C_5
REMARK    5  A    between atoms: C_5  and  O_6
REMARK    6  A    between atoms: N_10  and  C_11
REMARK    7  A    between atoms: C_11  and  C_13
REMARK    8  A    between atoms: C_11  and  C_21
REMARK    9  A    between atoms: C_13  and  C_14
REMARK   10  A    between atoms: C_14  and  C_15
REMARK   11  A    between atoms: N_23  and  C_24
REMARK   12  A    between atoms: C_24  and  C_25
REMARK   13  A    between atoms: C_25  and  C_26
REMARK   14  A    between atoms: C_26  and  C_27
REMARK   15  A    between atoms: C_26  and  C_28
REMARK                            x       y       z     vdW  Elec       q    Type
REMARK                         _______ _______ _______ _____ _____    ______ ____
ROOT
ATOM      1  C   UNL     1       7.047  -2.495  23.039  0.00  0.00    +0.159 C 
ENDROOT
BRANCH   1   3
ATOM      2  C   UNL     1       6.507  -4.805  23.957  0.00  0.00    +0.243 C 
ATOM      3  N   UNL     1       7.298  -3.702  23.827  0.00  0.00    -0.302 N 
ATOM      4  H   UNL     1       7.941  -3.616  24.607  0.00  0.00    +0.150 HD
ATOM      5  O   UNL     1       6.845  -5.674  24.762  0.00  0.00    -0.273 OA
BRANCH   2   6
ATOM      6  C   UNL     1       5.309  -5.008  23.016  0.00  0.00    +0.210 C 
BRANCH   6   7
ATOM      7  O   UNL     1       5.552  -6.148  22.174  0.00  0.00    -0.382 OA
ATOM      8  H   UNL     1       5.894  -5.793  21.325  0.00  0.00    +0.210 HD
ENDBRANCH   6   7
BRANCH   6   9
ATOM      9  C   UNL     1       4.039  -5.260  23.820  0.00  0.00    +0.161 C 
BRANCH   9  10
ATOM     10  C   UNL     1       3.578  -6.693  23.760  0.00  0.00    +0.308 C 
ATOM     11  O   UNL     1       4.040  -7.574  24.472  0.00  0.00    -0.251 OA
BRANCH  10  12
ATOM     12  O   UNL     1       2.678  -6.961  22.789  0.00  0.00    -0.481 OA
ATOM     13  H   UNL     1       2.184  -6.163  22.487  0.00  0.00    +0.295 HD
ENDBRANCH  10  12
ENDBRANCH   9  10
ENDBRANCH   6   9
ENDBRANCH   2   6
ENDBRANCH   1   3
BRANCH   1  14
ATOM     14  C   UNL     1       6.690  -1.330  23.996  0.00  0.00    +0.233 C 
ATOM     15  N   UNL     1       6.279  -0.171  23.371  0.00  0.00    -0.314 N 
ATOM     16  H   UNL     1       6.403  -0.067  22.372  0.00  0.00    +0.149 HD
ATOM     17  O   UNL     1       6.725  -1.448  25.219  0.00  0.00    -0.274 OA
BRANCH  15  18
ATOM     18  C   UNL     1       5.916   1.015  24.122  0.00  0.00    +0.104 C 
BRANCH  18  19
ATOM     19  C   UNL     1       7.087   1.989  24.240  0.00  0.00    +0.022 C 
BRANCH  19  20
ATOM     20  C   UNL     1       6.810   3.395  23.668  0.00  0.00    -0.016 C 
ATOM     21  C   UNL     1       6.802   3.340  22.138  0.00  0.00    +0.007 C 
ATOM     22  C   UNL     1       7.824   4.434  24.148  0.00  0.00    +0.007 C 
ENDBRANCH  19  20
ENDBRANCH  18  19
ENDBRANCH  15  18
ENDBRANCH   1  14
BRANCH   1  23
ATOM     23  C   UNL     1       8.288  -2.129  22.211  0.00  0.00    +0.036 C 
BRANCH  23  24
ATOM     24  C   UNL     1       9.527  -1.875  23.074  0.00  0.00    +0.037 C 
BRANCH  24  25
ATOM     25  C   UNL     1       9.909  -0.417  23.043  0.00  0.00    -0.047 A 
ATOM     26  C   UNL     1       9.692   0.351  21.892  0.00  0.00    +0.003 A 
ATOM     27  C   UNL     1      10.016   1.708  21.876  0.00  0.00    +0.000 A 
ATOM     28  C   UNL     1      10.555   2.311  23.009  0.00  0.00    +0.000 A 
ATOM     29  C   UNL     1      10.772   1.557  24.161  0.00  0.00    +0.000 A 
ATOM     30  C   UNL     1      10.449   0.201  24.179  0.00  0.00    +0.003 A 
ENDBRANCH  24  25
ENDBRANCH  23  24
ENDBRANCH   1  23
TORSDOF 13
ENDMDL
MODEL 9
REMARK VINA RESULT:      -6.0      2.726      5.364
REMARK  Name = 
REMARK  15 active torsions:
REMARK  status: ('A' for Active; 'I' for Inactive)
REMARK    1  A    between atoms: C_2  and  O_3
REMARK    2  A    between atoms: C_2  and  C_4
REMARK    3  A    between atoms: C_2  and  C_8
REMARK    4  A    between atoms: C_4  and  C_5
REMARK    5  A    between atoms: C_5  and  O_6
REMARK    6  A    between atoms: N_10  and  C_11
REMARK    7  A    between atoms: C_11  and  C_13
REMARK    8  A    between atoms: C_11  and  C_21
REMARK    9  A    between atoms: C_13  and  C_14
REMARK   10  A    between atoms: C_14  and  C_15
REMARK   11  A    between atoms: N_23  and  C_24
REMARK   12  A    between atoms: C_24  and  C_25
REMARK   13  A    between atoms: C_25  and  C_26
REMARK   14  A    between atoms: C_26  and  C_27
REMARK   15  A    between atoms: C_26  and  C_28
REMARK                            x       y       z     vdW  Elec       q    Type
REMARK                         _______ _______ _______ _____ _____    ______ ____
ROOT
ATOM      1  C   UNL     1       7.083  -2.244  24.428  0.00  0.00    +0.159 C 
ENDROOT
BRANCH   1   3
ATOM      2  C   UNL     1       6.656  -4.752  24.404  0.00  0.00    +0.243 C 
ATOM      3  N   UNL     1       6.519  -3.500  24.925  0.00  0.00    -0.302 N 
ATOM      4  H   UNL     1       5.691  -3.432  25.507  0.00  0.00    +0.150 HD
ATOM      5  O   UNL     1       6.006  -5.668  24.907  0.00  0.00    -0.273 OA
BRANCH   2   6
ATOM      6  C   UNL     1       7.704  -5.020  23.311  0.00  0.00    +0.210 C 
BRANCH   6   7
ATOM      7  O   UNL     1       8.890  -5.567  23.912  0.00  0.00    -0.382 OA
ATOM      8  H   UNL     1       9.102  -4.987  24.676  0.00  0.00    +0.210 HD
ENDBRANCH   6   7
BRANCH   6   9
ATOM      9  C   UNL     1       7.168  -6.023  22.296  0.00  0.00    +0.161 C 
BRANCH   9  10
ATOM     10  C   UNL     1       5.910  -5.552  21.612  0.00  0.00    +0.308 C 
ATOM     11  O   UNL     1       5.895  -4.644  20.793  0.00  0.00    -0.251 OA
BRANCH  10  12
ATOM     12  O   UNL     1       4.774  -6.146  22.038  0.00  0.00    -0.481 OA
ATOM     13  H   UNL     1       4.140  -6.339  21.308  0.00  0.00    +0.295 HD
ENDBRANCH  10  12
ENDBRANCH   9  10
ENDBRANCH   6   9
ENDBRANCH   2   6
ENDBRANCH   1   3
BRANCH   1  14
ATOM     14  C   UNL     1       6.074  -1.097  24.687  0.00  0.00    +0.233 C 
ATOM     15  N   UNL     1       6.519   0.159  24.330  0.00  0.00    -0.314 N 
ATOM     16  H   UNL     1       7.496   0.301  24.107  0.00  0.00    +0.149 HD
ATOM     17  O   UNL     1       4.946  -1.300  25.132  0.00  0.00    -0.274 OA
BRANCH  15  18
ATOM     18  C   UNL     1       5.701   1.342  24.515  0.00  0.00    +0.104 C 
BRANCH  18  19
ATOM     19  C   UNL     1       6.518   2.624  24.364  0.00  0.00    +0.022 C 
BRANCH  19  20
ATOM     20  C   UNL     1       6.086   3.521  23.186  0.00  0.00    -0.016 C 
ATOM     21  C   UNL     1       4.598   3.311  22.891  0.00  0.00    +0.007 C 
ATOM     22  C   UNL     1       6.909   3.267  21.922  0.00  0.00    +0.007 C 
ENDBRANCH  19  20
ENDBRANCH  18  19
ENDBRANCH  15  18
ENDBRANCH   1  14
BRANCH   1  23
ATOM     23  C   UNL     1       8.413  -1.939  25.132  0.00  0.00    +0.036 C 
BRANCH  23  24
ATOM     24  C   UNL     1       9.604  -1.914  24.170  0.00  0.00    +0.037 C 
BRANCH  24  25
ATOM     25  C   UNL     1       9.855  -0.515  23.667  0.00  0.00    -0.047 A 
ATOM     26  C   UNL     1       9.701  -0.208  22.309  0.00  0.00    +0.003 A 
ATOM     27  C   UNL     1       9.902   1.095  21.851  0.00  0.00    +0.000 A 
ATOM     28  C   UNL     1      10.253   2.103  22.745  0.00  0.00    +0.000 A 
ATOM     29  C   UNL     1      10.406   1.809  24.099  0.00  0.00    +0.000 A 
ATOM     30  C   UNL     1      10.205   0.508  24.558  0.00  0.00    +0.003 A 
ENDBRANCH  24  25
ENDBRANCH  23  24
ENDBRANCH   1  23
TORSDOF 13
ENDMDL
