MODEL 1
REMARK VINA RESULT:      -6.9      0.000      0.000
REMARK  Name = 
REMARK  3 active torsions:
REMARK  status: ('A' for Active; 'I' for Inactive)
REMARK    1  A    between atoms: C_2  and  C_24
REMARK    2  A    between atoms: C_4  and  C_5
REMARK    3  A    between atoms: C_21  and  O_22
REMARK                            x       y       z     vdW  Elec       q    Type
REMARK                         _______ _______ _______ _____ _____    ______ ____
ROOT
ATOM      1  C   UNL     1       6.640  -1.675  26.515  0.00  0.00    +0.257 C 
ATOM      2  C   UNL     1       5.113  -1.664  26.211  0.00  0.00    +0.319 C 
ATOM      3  N   UNL     1       4.319  -1.268  27.290  0.00  0.00    -0.217 N 
ATOM      4  C   UNL     1       4.360   0.126  27.638  0.00  0.00    +0.260 C 
ATOM      5  C   UNL     1       2.834   0.184  27.524  0.00  0.00    +0.193 C 
ATOM      6  C   UNL     1       2.888  -1.309  27.185  0.00  0.00    +0.260 C 
ATOM      7  N   UNL     1       4.602  -2.050  25.068  0.00  0.00    -0.043 NA
ATOM      8  C   UNL     1       5.413  -2.647  24.080  0.00  0.00    +0.185 A 
ATOM      9  C   UNL     1       6.684  -2.214  23.678  0.00  0.00    +0.051 A 
ATOM     10  C   UNL     1       7.440  -2.962  22.752  0.00  0.00    +0.014 A 
ATOM     11  C   UNL     1       6.921  -4.125  22.192  0.00  0.00    +0.001 A 
ATOM     12  C   UNL     1       5.647  -4.547  22.553  0.00  0.00    +0.004 A 
ATOM     13  C   UNL     1       7.322  -1.023  24.295  0.00  0.00    +0.078 C 
ATOM     14  C   UNL     1       4.904  -3.811  23.482  0.00  0.00    +0.056 A 
ATOM     15  N   UNL     1       7.333  -0.778  25.565  0.00  0.00    -0.262 NA
ENDROOT
BRANCH  13  16
ATOM     16  C   UNL     1       8.049  -0.065  23.397  0.00  0.00    +0.001 A 
ATOM     17  C   UNL     1       7.355   0.807  22.545  0.00  0.00    +0.010 A 
ATOM     18  C   UNL     1       8.059   1.685  21.717  0.00  0.00    +0.001 A 
ATOM     19  C   UNL     1       9.454   1.699  21.738  0.00  0.00    +0.000 A 
ATOM     20  C   UNL     1      10.149   0.835  22.585  0.00  0.00    +0.001 A 
ATOM     21  C   UNL     1       9.449  -0.044  23.414  0.00  0.00    +0.010 A 
ENDBRANCH  13  16
BRANCH   1  22
ATOM     22  C   UNL     1       7.232  -3.064  26.617  0.00  0.00    +0.026 A 
ATOM     23  S   UNL     1       6.315  -4.390  27.221  0.00  0.00    -0.099 S 
ATOM     24  C   UNL     1       7.568  -5.497  26.882  0.00  0.00    +0.045 A 
ATOM     25  C   UNL     1       8.706  -4.863  26.444  0.00  0.00    +0.008 A 
ATOM     26  C   UNL     1       8.522  -3.459  26.318  0.00  0.00    +0.014 A 
ENDBRANCH   1  22
BRANCH   5  27
ATOM     27  O   UNL     1       2.286   1.064  26.519  0.00  0.00    -0.384 OA
ATOM     28  H   UNL     1       2.459   0.610  25.671  0.00  0.00    +0.210 HD
ENDBRANCH   5  27
TORSDOF 3
ENDMDL
MODEL 2
REMARK VINA RESULT:      -6.7      2.373      5.713
REMARK  Name = 
REMARK  3 active torsions:
REMARK  status: ('A' for Active; 'I' for Inactive)
REMARK    1  A    between atoms: C_2  and  C_24
REMARK    2  A    between atoms: C_4  and  C_5
REMARK    3  A    between atoms: C_21  and  O_22
REMARK                            x       y       z     vdW  Elec       q    Type
REMARK                         _______ _______ _______ _____ _____    ______ ____
ROOT
ATOM      1  C   UNL     1       6.763  -1.994  22.983  0.00  0.00    +0.257 C 
ATOM      2  C   UNL     1       8.278  -1.647  23.076  0.00  0.00    +0.319 C 
ATOM      3  N   UNL     1       8.760  -0.898  22.000  0.00  0.00    -0.217 N 
ATOM      4  C   UNL     1       8.348   0.478  21.943  0.00  0.00    +0.260 C 
ATOM      5  C   UNL     1       9.817   0.899  21.860  0.00  0.00    +0.193 C 
ATOM      6  C   UNL     1      10.158  -0.593  21.902  0.00  0.00    +0.260 C 
ATOM      7  N   UNL     1       9.057  -2.069  24.041  0.00  0.00    -0.043 NA
ATOM      8  C   UNL     1       8.588  -3.001  24.992  0.00  0.00    +0.185 A 
ATOM      9  C   UNL     1       7.346  -2.971  25.638  0.00  0.00    +0.051 A 
ATOM     10  C   UNL     1       6.952  -4.023  26.490  0.00  0.00    +0.014 A 
ATOM     11  C   UNL     1       7.808  -5.092  26.735  0.00  0.00    +0.001 A 
ATOM     12  C   UNL     1       9.060  -5.117  26.130  0.00  0.00    +0.004 A 
ATOM     13  C   UNL     1       6.358  -1.896  25.359  0.00  0.00    +0.078 C 
ATOM     14  C   UNL     1       9.442  -4.079  25.274  0.00  0.00    +0.056 A 
ATOM     15  N   UNL     1       6.068  -1.463  24.176  0.00  0.00    -0.262 NA
ENDROOT
BRANCH  13  16
ATOM     16  C   UNL     1       5.608  -1.307  26.517  0.00  0.00    +0.001 A 
ATOM     17  C   UNL     1       4.300  -1.710  26.821  0.00  0.00    +0.010 A 
ATOM     18  C   UNL     1       3.624  -1.140  27.903  0.00  0.00    +0.001 A 
ATOM     19  C   UNL     1       4.252  -0.172  28.687  0.00  0.00    +0.000 A 
ATOM     20  C   UNL     1       5.553   0.232  28.391  0.00  0.00    +0.001 A 
ATOM     21  C   UNL     1       6.232  -0.335  27.310  0.00  0.00    +0.010 A 
ENDBRANCH  13  16
BRANCH   1  22
ATOM     22  C   UNL     1       6.487  -3.452  22.689  0.00  0.00    +0.026 A 
ATOM     23  S   UNL     1       4.943  -4.152  22.985  0.00  0.00    -0.099 S 
ATOM     24  C   UNL     1       5.412  -5.642  22.298  0.00  0.00    +0.045 A 
ATOM     25  C   UNL     1       6.747  -5.656  21.971  0.00  0.00    +0.008 A 
ATOM     26  C   UNL     1       7.373  -4.404  22.221  0.00  0.00    +0.014 A 
ENDBRANCH   1  22
BRANCH   5  27
ATOM     27  O   UNL     1      10.324   1.718  22.936  0.00  0.00    -0.384 OA
ATOM     28  H   UNL     1       9.527   2.032  23.406  0.00  0.00    +0.210 HD
ENDBRANCH   5  27
TORSDOF 3
ENDMDL
MODEL 3
REMARK VINA RESULT:      -6.2      4.579      7.257
REMARK  Name = 
REMARK  3 active torsions:
REMARK  status: ('A' for Active; 'I' for Inactive)
REMARK    1  A    between atoms: C_2  and  C_24
REMARK    2  A    between atoms: C_4  and  C_5
REMARK    3  A    between atoms: C_21  and  O_22
REMARK                            x       y       z     vdW  Elec       q    Type
REMARK                         _______ _______ _______ _____ _____    ______ ____
ROOT
ATOM      1  C   UNL     1       7.678   2.397  22.438  0.00  0.00    +0.257 C 
ATOM      2  C   UNL     1       7.987   1.041  23.138  0.00  0.00    +0.319 C 
ATOM      3  N   UNL     1       7.996  -0.058  22.276  0.00  0.00    -0.217 N 
ATOM      4  C   UNL     1       9.112  -0.155  21.375  0.00  0.00    +0.260 C 
ATOM      5  C   UNL     1       9.386  -1.571  21.891  0.00  0.00    +0.193 C 
ATOM      6  C   UNL     1       8.167  -1.383  22.798  0.00  0.00    +0.260 C 
ATOM      7  N   UNL     1       8.164   0.920  24.431  0.00  0.00    -0.043 NA
ATOM      8  C   UNL     1       7.933   2.011  25.296  0.00  0.00    +0.185 A 
ATOM      9  C   UNL     1       8.343   3.334  25.088  0.00  0.00    +0.051 A 
ATOM     10  C   UNL     1       7.957   4.356  25.979  0.00  0.00    +0.014 A 
ATOM     11  C   UNL     1       7.192   4.062  27.103  0.00  0.00    +0.001 A 
ATOM     12  C   UNL     1       6.809   2.747  27.343  0.00  0.00    +0.004 A 
ATOM     13  C   UNL     1       9.097   3.724  23.868  0.00  0.00    +0.078 C 
ATOM     14  C   UNL     1       7.181   1.737  26.450  0.00  0.00    +0.056 A 
ATOM     15  N   UNL     1       8.798   3.333  22.672  0.00  0.00    -0.262 NA
ENDROOT
BRANCH  13  16
ATOM     16  C   UNL     1      10.248   4.675  24.021  0.00  0.00    +0.001 A 
ATOM     17  C   UNL     1      10.108   5.885  24.716  0.00  0.00    +0.010 A 
ATOM     18  C   UNL     1      11.197   6.752  24.838  0.00  0.00    +0.001 A 
ATOM     19  C   UNL     1      12.427   6.414  24.272  0.00  0.00    +0.000 A 
ATOM     20  C   UNL     1      12.571   5.212  23.581  0.00  0.00    +0.001 A 
ATOM     21  C   UNL     1      11.486   4.342  23.456  0.00  0.00    +0.010 A 
ENDBRANCH  13  16
BRANCH   1  22
ATOM     22  C   UNL     1       6.311   2.955  22.767  0.00  0.00    +0.026 A 
ATOM     23  S   UNL     1       5.955   4.630  22.583  0.00  0.00    -0.099 S 
ATOM     24  C   UNL     1       4.314   4.394  22.985  0.00  0.00    +0.045 A 
ATOM     25  C   UNL     1       4.065   3.102  23.379  0.00  0.00    +0.008 A 
ATOM     26  C   UNL     1       5.220   2.279  23.280  0.00  0.00    +0.014 A 
ENDBRANCH   1  22
BRANCH   5  27
ATOM     27  O   UNL     1      10.657  -1.795  22.539  0.00  0.00    -0.384 OA
ATOM     28  H   UNL     1      10.429  -1.993  23.469  0.00  0.00    +0.210 HD
ENDBRANCH   5  27
TORSDOF 3
ENDMDL
MODEL 4
REMARK VINA RESULT:      -6.1      2.118      5.800
REMARK  Name = 
REMARK  3 active torsions:
REMARK  status: ('A' for Active; 'I' for Inactive)
REMARK    1  A    between atoms: C_2  and  C_24
REMARK    2  A    between atoms: C_4  and  C_5
REMARK    3  A    between atoms: C_21  and  O_22
REMARK                            x       y       z     vdW  Elec       q    Type
REMARK                         _______ _______ _______ _____ _____    ______ ____
ROOT
ATOM      1  C   UNL     1       6.407  -1.839  23.711  0.00  0.00    +0.257 C 
ATOM      2  C   UNL     1       7.851  -1.512  24.191  0.00  0.00    +0.319 C 
ATOM      3  N   UNL     1       8.560  -0.664  23.336  0.00  0.00    -0.217 N 
ATOM      4  C   UNL     1       8.148   0.713  23.316  0.00  0.00    +0.260 C 
ATOM      5  C   UNL     1       9.589   1.132  23.623  0.00  0.00    +0.193 C 
ATOM      6  C   UNL     1       9.936  -0.359  23.601  0.00  0.00    +0.260 C 
ATOM      7  N   UNL     1       8.388  -2.031  25.268  0.00  0.00    -0.043 NA
ATOM      8  C   UNL     1       7.725  -3.048  25.987  0.00  0.00    +0.185 A 
ATOM      9  C   UNL     1       6.365  -3.074  26.321  0.00  0.00    +0.051 A 
ATOM     10  C   UNL     1       5.800  -4.201  26.952  0.00  0.00    +0.014 A 
ATOM     11  C   UNL     1       6.593  -5.294  27.288  0.00  0.00    +0.001 A 
ATOM     12  C   UNL     1       7.952  -5.267  26.996  0.00  0.00    +0.004 A 
ATOM     13  C   UNL     1       5.452  -1.971  25.923  0.00  0.00    +0.078 C 
ATOM     14  C   UNL     1       8.507  -4.153  26.358  0.00  0.00    +0.056 A 
ATOM     15  N   UNL     1       5.442  -1.423  24.751  0.00  0.00    -0.262 NA
ENDROOT
BRANCH  13  16
ATOM     16  C   UNL     1       4.440  -1.494  26.922  0.00  0.00    +0.001 A 
ATOM     17  C   UNL     1       4.815  -0.715  28.026  0.00  0.00    +0.010 A 
ATOM     18  C   UNL     1       3.851  -0.289  28.943  0.00  0.00    +0.001 A 
ATOM     19  C   UNL     1       2.512  -0.634  28.760  0.00  0.00    +0.000 A 
ATOM     20  C   UNL     1       2.133  -1.408  27.663  0.00  0.00    +0.001 A 
ATOM     21  C   UNL     1       3.093  -1.836  26.744  0.00  0.00    +0.010 A 
ENDBRANCH  13  16
BRANCH   1  22
ATOM     22  C   UNL     1       6.233  -3.260  23.221  0.00  0.00    +0.026 A 
ATOM     23  S   UNL     1       7.561  -4.168  22.608  0.00  0.00    -0.099 S 
ATOM     24  C   UNL     1       6.609  -5.574  22.442  0.00  0.00    +0.045 A 
ATOM     25  C   UNL     1       5.285  -5.331  22.718  0.00  0.00    +0.008 A 
ATOM     26  C   UNL     1       5.064  -3.991  23.140  0.00  0.00    +0.014 A 
ENDBRANCH   1  22
BRANCH   5  27
ATOM     27  O   UNL     1       9.814   1.838  24.862  0.00  0.00    -0.384 OA
ATOM     28  H   UNL     1      10.751   2.115  24.823  0.00  0.00    +0.210 HD
ENDBRANCH   5  27
TORSDOF 3
ENDMDL
MODEL 5
REMARK VINA RESULT:      -6.1      4.392      6.110
REMARK  Name = 
REMARK  3 active torsions:
REMARK  status: ('A' for Active; 'I' for Inactive)
REMARK    1  A    between atoms: C_2  and  C_24
REMARK    2  A    between atoms: C_4  and  C_5
REMARK    3  A    between atoms: C_21  and  O_22
REMARK                            x       y       z     vdW  Elec       q    Type
REMARK                         _______ _______ _______ _____ _____    ______ ____
ROOT
ATOM      1  C   UNL     1       6.524   3.371  24.849  0.00  0.00    +0.257 C 
ATOM      2  C   UNL     1       5.902   3.543  23.433  0.00  0.00    +0.319 C 
ATOM      3  N   UNL     1       4.558   3.924  23.442  0.00  0.00    -0.217 N 
ATOM      4  C   UNL     1       4.279   5.278  23.838  0.00  0.00    +0.260 C 
ATOM      5  C   UNL     1       3.499   5.481  22.535  0.00  0.00    +0.193 C 
ATOM      6  C   UNL     1       3.827   4.021  22.212  0.00  0.00    +0.260 C 
ATOM      7  N   UNL     1       6.552   3.295  22.323  0.00  0.00    -0.043 NA
ATOM      8  C   UNL     1       7.834   2.705  22.355  0.00  0.00    +0.185 A 
ATOM      9  C   UNL     1       8.884   3.052  23.214  0.00  0.00    +0.051 A 
ATOM     10  C   UNL     1      10.085   2.313  23.219  0.00  0.00    +0.014 A 
ATOM     11  C   UNL     1      10.263   1.248  22.341  0.00  0.00    +0.001 A 
ATOM     12  C   UNL     1       9.243   0.916  21.456  0.00  0.00    +0.004 A 
ATOM     13  C   UNL     1       8.729   4.129  24.225  0.00  0.00    +0.078 C 
ATOM     14  C   UNL     1       8.048   1.641  21.463  0.00  0.00    +0.056 A 
ATOM     15  N   UNL     1       7.689   4.273  24.982  0.00  0.00    -0.262 NA
ENDROOT
BRANCH  13  16
ATOM     16  C   UNL     1       9.868   5.085  24.423  0.00  0.00    +0.001 A 
ATOM     17  C   UNL     1      11.060   4.960  23.695  0.00  0.00    +0.010 A 
ATOM     18  C   UNL     1      12.106   5.863  23.904  0.00  0.00    +0.001 A 
ATOM     19  C   UNL     1      11.966   6.893  24.834  0.00  0.00    +0.000 A 
ATOM     20  C   UNL     1      10.782   7.022  25.560  0.00  0.00    +0.001 A 
ATOM     21  C   UNL     1       9.734   6.123  25.354  0.00  0.00    +0.010 A 
ENDBRANCH  13  16
BRANCH   1  22
ATOM     22  C   UNL     1       6.796   1.931  25.226  0.00  0.00    +0.026 A 
ATOM     23  S   UNL     1       5.769   0.655  24.698  0.00  0.00    -0.099 S 
ATOM     24  C   UNL     1       6.787  -0.535  25.375  0.00  0.00    +0.045 A 
ATOM     25  C   UNL     1       7.813   0.023  26.099  0.00  0.00    +0.008 A 
ATOM     26  C   UNL     1       7.802   1.443  26.037  0.00  0.00    +0.014 A 
ENDBRANCH   1  22
BRANCH   5  27
ATOM     27  O   UNL     1       4.000   6.483  21.624  0.00  0.00    -0.384 OA
ATOM     28  H   UNL     1       4.669   6.015  21.085  0.00  0.00    +0.210 HD
ENDBRANCH   5  27
TORSDOF 3
ENDMDL
MODEL 6
REMARK VINA RESULT:      -6.0      2.201      5.295
REMARK  Name = 
REMARK  3 active torsions:
REMARK  status: ('A' for Active; 'I' for Inactive)
REMARK    1  A    between atoms: C_2  and  C_24
REMARK    2  A    between atoms: C_4  and  C_5
REMARK    3  A    between atoms: C_21  and  O_22
REMARK                            x       y       z     vdW  Elec       q    Type
REMARK                         _______ _______ _______ _____ _____    ______ ____
ROOT
ATOM      1  C   UNL     1       6.237  -1.438  24.526  0.00  0.00    +0.257 C 
ATOM      2  C   UNL     1       6.523  -1.275  26.048  0.00  0.00    +0.319 C 
ATOM      3  N   UNL     1       6.151  -0.034  26.570  0.00  0.00    -0.217 N 
ATOM      4  C   UNL     1       4.740   0.204  26.709  0.00  0.00    +0.260 C 
ATOM      5  C   UNL     1       4.959   0.545  28.186  0.00  0.00    +0.193 C 
ATOM      6  C   UNL     1       6.448   0.293  27.934  0.00  0.00    +0.260 C 
ATOM      7  N   UNL     1       7.118  -2.191  26.772  0.00  0.00    -0.043 NA
ATOM      8  C   UNL     1       7.675  -3.338  26.169  0.00  0.00    +0.185 A 
ATOM      9  C   UNL     1       7.078  -4.124  25.175  0.00  0.00    +0.051 A 
ATOM     10  C   UNL     1       7.785  -5.187  24.576  0.00  0.00    +0.014 A 
ATOM     11  C   UNL     1       9.076  -5.499  24.990  0.00  0.00    +0.001 A 
ATOM     12  C   UNL     1       9.667  -4.752  26.002  0.00  0.00    +0.004 A 
ATOM     13  C   UNL     1       5.733  -3.795  24.637  0.00  0.00    +0.078 C 
ATOM     14  C   UNL     1       8.970  -3.689  26.585  0.00  0.00    +0.056 A 
ATOM     15  N   UNL     1       5.348  -2.602  24.320  0.00  0.00    -0.262 NA
ENDROOT
BRANCH  13  16
ATOM     16  C   UNL     1       4.772  -4.922  24.397  0.00  0.00    +0.001 A 
ATOM     17  C   UNL     1       3.942  -4.946  23.267  0.00  0.00    +0.010 A 
ATOM     18  C   UNL     1       3.054  -6.007  23.072  0.00  0.00    +0.001 A 
ATOM     19  C   UNL     1       2.993  -7.047  24.000  0.00  0.00    +0.000 A 
ATOM     20  C   UNL     1       3.817  -7.029  25.125  0.00  0.00    +0.001 A 
ATOM     21  C   UNL     1       4.706  -5.971  25.324  0.00  0.00    +0.010 A 
ENDBRANCH  13  16
BRANCH   1  22
ATOM     22  C   UNL     1       7.481  -1.436  23.667  0.00  0.00    +0.026 A 
ATOM     23  S   UNL     1       8.881  -0.539  24.114  0.00  0.00    -0.099 S 
ATOM     24  C   UNL     1       9.778  -1.156  22.801  0.00  0.00    +0.045 A 
ATOM     25  C   UNL     1       9.001  -1.921  21.965  0.00  0.00    +0.008 A 
ATOM     26  C   UNL     1       7.671  -2.060  22.449  0.00  0.00    +0.014 A 
ENDBRANCH   1  22
BRANCH   5  27
ATOM     27  O   UNL     1       4.306  -0.301  29.156  0.00  0.00    -0.384 OA
ATOM     28  H   UNL     1       3.367  -0.311  28.884  0.00  0.00    +0.210 HD
ENDBRANCH   5  27
TORSDOF 3
ENDMDL
MODEL 7
REMARK VINA RESULT:      -5.9      2.635      5.483
REMARK  Name = 
REMARK  3 active torsions:
REMARK  status: ('A' for Active; 'I' for Inactive)
REMARK    1  A    between atoms: C_2  and  C_24
REMARK    2  A    between atoms: C_4  and  C_5
REMARK    3  A    between atoms: C_21  and  O_22
REMARK                            x       y       z     vdW  Elec       q    Type
REMARK                         _______ _______ _______ _____ _____    ______ ____
ROOT
ATOM      1  C   UNL     1       5.960   1.048  24.768  0.00  0.00    +0.257 C 
ATOM      2  C   UNL     1       6.706   1.171  26.129  0.00  0.00    +0.319 C 
ATOM      3  N   UNL     1       6.047   1.961  27.073  0.00  0.00    -0.217 N 
ATOM      4  C   UNL     1       4.861   1.399  27.662  0.00  0.00    +0.260 C 
ATOM      5  C   UNL     1       5.456   1.641  29.052  0.00  0.00    +0.193 C 
ATOM      6  C   UNL     1       6.667   2.245  28.336  0.00  0.00    +0.260 C 
ATOM      7  N   UNL     1       7.881   0.637  26.359  0.00  0.00    -0.043 NA
ATOM      8  C   UNL     1       8.614   0.031  25.316  0.00  0.00    +0.185 A 
ATOM      9  C   UNL     1       8.106  -0.837  24.342  0.00  0.00    +0.051 A 
ATOM     10  C   UNL     1       8.923  -1.292  23.287  0.00  0.00    +0.014 A 
ATOM     11  C   UNL     1      10.261  -0.917  23.216  0.00  0.00    +0.001 A 
ATOM     12  C   UNL     1      10.789  -0.085  24.197  0.00  0.00    +0.004 A 
ATOM     13  C   UNL     1       6.669  -1.214  24.319  0.00  0.00    +0.078 C 
ATOM     14  C   UNL     1       9.973   0.376  25.235  0.00  0.00    +0.056 A 
ATOM     15  N   UNL     1       5.695  -0.379  24.485  0.00  0.00    -0.262 NA
ENDROOT
BRANCH  13  16
ATOM     16  C   UNL     1       6.317  -2.645  24.035  0.00  0.00    +0.001 A 
ATOM     17  C   UNL     1       5.678  -3.017  22.844  0.00  0.00    +0.010 A 
ATOM     18  C   UNL     1       5.358  -4.357  22.610  0.00  0.00    +0.001 A 
ATOM     19  C   UNL     1       5.678  -5.328  23.559  0.00  0.00    +0.000 A 
ATOM     20  C   UNL     1       6.315  -4.964  24.745  0.00  0.00    +0.001 A 
ATOM     21  C   UNL     1       6.637  -3.626  24.983  0.00  0.00    +0.010 A 
ENDBRANCH  13  16
BRANCH   1  22
ATOM     22  C   UNL     1       6.623   1.803  23.638  0.00  0.00    +0.026 A 
ATOM     23  S   UNL     1       7.366   3.335  23.893  0.00  0.00    -0.099 S 
ATOM     24  C   UNL     1       7.943   3.397  22.289  0.00  0.00    +0.045 A 
ATOM     25  C   UNL     1       7.475   2.347  21.536  0.00  0.00    +0.008 A 
ATOM     26  C   UNL     1       6.692   1.444  22.305  0.00  0.00    +0.014 A 
ENDBRANCH   1  22
BRANCH   5  27
ATOM     27  O   UNL     1       5.693   0.478  29.874  0.00  0.00    -0.384 OA
ATOM     28  H   UNL     1       4.834   0.300  30.306  0.00  0.00    +0.210 HD
ENDBRANCH   5  27
TORSDOF 3
ENDMDL
MODEL 8
REMARK VINA RESULT:      -5.8      1.617      2.236
REMARK  Name = 
REMARK  3 active torsions:
REMARK  status: ('A' for Active; 'I' for Inactive)
REMARK    1  A    between atoms: C_2  and  C_24
REMARK    2  A    between atoms: C_4  and  C_5
REMARK    3  A    between atoms: C_21  and  O_22
REMARK                            x       y       z     vdW  Elec       q    Type
REMARK                         _______ _______ _______ _____ _____    ______ ____
ROOT
ATOM      1  C   UNL     1       5.745  -2.591  27.093  0.00  0.00    +0.257 C 
ATOM      2  C   UNL     1       4.383  -2.040  26.577  0.00  0.00    +0.319 C 
ATOM      3  N   UNL     1       3.734  -1.190  27.476  0.00  0.00    -0.217 N 
ATOM      4  C   UNL     1       4.309   0.116  27.651  0.00  0.00    +0.260 C 
ATOM      5  C   UNL     1       2.952   0.741  27.318  0.00  0.00    +0.193 C 
ATOM      6  C   UNL     1       2.424  -0.689  27.177  0.00  0.00    +0.260 C 
ATOM      7  N   UNL     1       3.853  -2.385  25.430  0.00  0.00    -0.043 NA
ATOM      8  C   UNL     1       4.428  -3.409  24.648  0.00  0.00    +0.185 A 
ATOM      9  C   UNL     1       5.792  -3.577  24.378  0.00  0.00    +0.051 A 
ATOM     10  C   UNL     1       6.252  -4.705  23.668  0.00  0.00    +0.014 A 
ATOM     11  C   UNL     1       5.352  -5.653  23.189  0.00  0.00    +0.001 A 
ATOM     12  C   UNL     1       3.992  -5.479  23.416  0.00  0.00    +0.004 A 
ATOM     13  C   UNL     1       6.808  -2.642  24.927  0.00  0.00    +0.078 C 
ATOM     14  C   UNL     1       3.540  -4.366  24.133  0.00  0.00    +0.056 A 
ATOM     15  N   UNL     1       6.815  -2.209  26.146  0.00  0.00    -0.262 NA
ENDROOT
BRANCH  13  16
ATOM     16  C   UNL     1       7.929  -2.208  24.029  0.00  0.00    +0.001 A 
ATOM     17  C   UNL     1       9.243  -2.649  24.237  0.00  0.00    +0.010 A 
ATOM     18  C   UNL     1      10.268  -2.224  23.387  0.00  0.00    +0.001 A 
ATOM     19  C   UNL     1       9.984  -1.364  22.326  0.00  0.00    +0.000 A 
ATOM     20  C   UNL     1       8.678  -0.923  22.114  0.00  0.00    +0.001 A 
ATOM     21  C   UNL     1       7.651  -1.345  22.961  0.00  0.00    +0.010 A 
ENDBRANCH  13  16
BRANCH   1  22
ATOM     22  C   UNL     1       5.714  -4.061  27.448  0.00  0.00    +0.026 A 
ATOM     23  S   UNL     1       4.281  -4.813  28.037  0.00  0.00    -0.099 S 
ATOM     24  C   UNL     1       5.011  -6.355  28.038  0.00  0.00    +0.045 A 
ATOM     25  C   UNL     1       6.348  -6.289  27.726  0.00  0.00    +0.008 A 
ATOM     26  C   UNL     1       6.759  -4.964  27.414  0.00  0.00    +0.014 A 
ENDBRANCH   1  22
BRANCH   5  27
ATOM     27  O   UNL     1       2.890   1.581  26.145  0.00  0.00    -0.384 OA
ATOM     28  H   UNL     1       1.974   1.922  26.132  0.00  0.00    +0.210 HD
ENDBRANCH   5  27
TORSDOF 3
ENDMDL
MODEL 9
REMARK VINA RESULT:      -5.8      5.038      7.464
REMARK  Name = 
REMARK  3 active torsions:
REMARK  status: ('A' for Active; 'I' for Inactive)
REMARK    1  A    between atoms: C_2  and  C_24
REMARK    2  A    between atoms: C_4  and  C_5
REMARK    3  A    between atoms: C_21  and  O_22
REMARK                            x       y       z     vdW  Elec       q    Type
REMARK                         _______ _______ _______ _____ _____    ______ ____
ROOT
ATOM      1  C   UNL     1       5.932   3.467  25.892  0.00  0.00    +0.257 C 
ATOM      2  C   UNL     1       6.796   3.943  27.097  0.00  0.00    +0.319 C 
ATOM      3  N   UNL     1       6.260   3.621  28.346  0.00  0.00    -0.217 N 
ATOM      4  C   UNL     1       6.313   2.236  28.728  0.00  0.00    +0.260 C 
ATOM      5  C   UNL     1       7.021   2.636  30.025  0.00  0.00    +0.193 C 
ATOM      6  C   UNL     1       6.896   4.085  29.545  0.00  0.00    +0.260 C 
ATOM      7  N   UNL     1       7.898   4.639  26.965  0.00  0.00    -0.043 NA
ATOM      8  C   UNL     1       8.293   5.132  25.703  0.00  0.00    +0.185 A 
ATOM      9  C   UNL     1       8.271   4.425  24.494  0.00  0.00    +0.051 A 
ATOM     10  C   UNL     1       8.592   5.065  23.279  0.00  0.00    +0.014 A 
ATOM     11  C   UNL     1       8.973   6.403  23.265  0.00  0.00    +0.001 A 
ATOM     12  C   UNL     1       9.036   7.108  24.462  0.00  0.00    +0.004 A 
ATOM     13  C   UNL     1       7.800   3.017  24.433  0.00  0.00    +0.078 C 
ATOM     14  C   UNL     1       8.704   6.474  25.664  0.00  0.00    +0.056 A 
ATOM     15  N   UNL     1       6.743   2.577  25.033  0.00  0.00    -0.262 NA
ENDROOT
BRANCH  13  16
ATOM     16  C   UNL     1       8.568   2.050  23.579  0.00  0.00    +0.001 A 
ATOM     17  C   UNL     1       9.698   1.382  24.069  0.00  0.00    +0.010 A 
ATOM     18  C   UNL     1      10.395   0.491  23.249  0.00  0.00    +0.001 A 
ATOM     19  C   UNL     1       9.966   0.261  21.942  0.00  0.00    +0.000 A 
ATOM     20  C   UNL     1       8.841   0.923  21.450  0.00  0.00    +0.001 A 
ATOM     21  C   UNL     1       8.141   1.814  22.266  0.00  0.00    +0.010 A 
ENDBRANCH  13  16
BRANCH   1  22
ATOM     22  C   UNL     1       5.238   4.592  25.156  0.00  0.00    +0.026 A 
ATOM     23  S   UNL     1       4.722   6.017  25.973  0.00  0.00    -0.099 S 
ATOM     24  C   UNL     1       4.227   6.753  24.516  0.00  0.00    +0.045 A 
ATOM     25  C   UNL     1       4.326   5.894  23.449  0.00  0.00    +0.008 A 
ATOM     26  C   UNL     1       4.882   4.639  23.822  0.00  0.00    +0.014 A 
ENDBRANCH   1  22
BRANCH   5  27
ATOM     27  O   UNL     1       8.356   2.125  30.226  0.00  0.00    -0.384 OA
ATOM     28  H   UNL     1       8.618   1.766  29.355  0.00  0.00    +0.210 HD
ENDBRANCH   5  27
TORSDOF 3
ENDMDL
