MODEL 1
REMARK VINA RESULT:      -4.9      0.000      0.000
REMARK  Name = 
REMARK  21 active torsions:
REMARK  status: ('A' for Active; 'I' for Inactive)
REMARK    1  A    between atoms: C_2  and  N_3
REMARK    2  A    between atoms: C_2  and  C_4
REMARK    3  A    between atoms: C_2  and  C_23
REMARK    4  A    between atoms: C_4  and  S_5
REMARK    5  A    between atoms: S_5  and  C_6
REMARK    6  A    between atoms: C_6  and  C_8
REMARK    7  A    between atoms: C_8  and  C_9
REMARK    8  A    between atoms: C_9  and  C_10
REMARK    9  A    between atoms: C_10  and  C_11
REMARK   10  A    between atoms: C_11  and  C_12
REMARK   11  A    between atoms: C_12  and  C_13
REMARK   12  A    between atoms: C_13  and  C_14
REMARK   13  A    between atoms: C_14  and  C_15
REMARK   14  A    between atoms: C_15  and  C_16
REMARK   15  A    between atoms: C_16  and  C_17
REMARK   16  A    between atoms: C_17  and  C_18
REMARK   17  A    between atoms: C_18  and  C_19
REMARK   18  A    between atoms: C_19  and  C_20
REMARK   19  A    between atoms: C_20  and  C_21
REMARK   20  A    between atoms: C_21  and  C_22
REMARK   21  A    between atoms: C_23  and  O_24
REMARK                            x       y       z     vdW  Elec       q    Type
REMARK                         _______ _______ _______ _____ _____    ______ ____
ROOT
ATOM      1  C   UNK     1       7.208  -1.678  23.024  0.00  0.00    +0.008 C 
ENDROOT
BRANCH   1   2
ATOM      2  C   UNK     1       8.484  -2.360  22.538  0.00  0.00    +0.000 C 
BRANCH   2   3
ATOM      3  C   UNK     1       9.681  -1.956  23.396  0.00  0.00    +0.000 C 
BRANCH   3   4
ATOM      4  C   UNK     1       9.239  -1.522  24.791  0.00  0.00    +0.000 C 
BRANCH   4   5
ATOM      5  C   UNK     1       9.785  -0.136  25.125  0.00  0.00    +0.000 C 
BRANCH   5   6
ATOM      6  C   UNK     1      10.721   0.367  24.029  0.00  0.00    -0.000 C 
BRANCH   6   7
ATOM      7  C   UNK     1      10.335   1.776  23.588  0.00  0.00    -0.000 C 
BRANCH   7   8
ATOM      8  C   UNK     1      10.126   1.839  22.078  0.00  0.00    -0.000 C 
BRANCH   8   9
ATOM      9  C   UNK     1       8.760   1.278  21.690  0.00  0.00    -0.000 C 
BRANCH   9  10
ATOM     10  C   UNK     1       7.647   1.948  22.492  0.00  0.00    -0.000 C 
BRANCH  10  11
ATOM     11  C   UNK     1       7.410   3.379  22.017  0.00  0.00    -0.000 C 
BRANCH  11  12
ATOM     12  C   UNK     1       6.978   4.276  23.177  0.00  0.00    -0.000 C 
BRANCH  12  13
ATOM     13  C   UNK     1       8.180   4.750  23.988  0.00  0.00    -0.003 C 
ATOM     14  C   UNK     1       8.162   4.167  25.392  0.00  0.00    +0.004 C 
ENDBRANCH  12  13
ENDBRANCH  11  12
ENDBRANCH  10  11
ENDBRANCH   9  10
ENDBRANCH   8   9
ENDBRANCH   7   8
ENDBRANCH   6   7
ENDBRANCH   5   6
ENDBRANCH   4   5
ENDBRANCH   3   4
ENDBRANCH   2   3
ENDBRANCH   1   2
BRANCH   1  15
ATOM     15  C   UNK     1       5.989  -2.568  22.802  0.00  0.00    +0.086 C 
BRANCH  15  16
ATOM     16  C   UNK     1       5.295  -2.911  24.101  0.00  0.00    +0.189 C 
ATOM     17  O   UNK     1       4.599  -2.140  24.747  0.00  0.00    -0.285 OA
BRANCH  16  18
ATOM     18  S   UNK     1       5.554  -4.575  24.617  0.00  0.00    -0.086 S 
BRANCH  18  19
ATOM     19  C   UNK     1       6.785  -4.271  25.934  0.00  0.00    +0.107 C 
BRANCH  19  20
ATOM     20  C   UNK     1       7.637  -5.519  26.225  0.00  0.00    +0.171 C 
BRANCH  20  21
ATOM     21  N   UNK     1       7.627  -5.907  27.653  0.00  0.00    -0.318 NA
ATOM     22  H   UNK     1       6.856  -6.505  27.932  0.00  0.00    +0.119 HD
ATOM     23  H   UNK     1       8.533  -6.118  28.058  0.00  0.00    +0.119 HD
ENDBRANCH  20  21
BRANCH  20  24
ATOM     24  C   UNK     1       9.064  -5.245  25.721  0.00  0.00    +0.323 C 
ATOM     25  O   UNK     1       9.412  -5.343  24.555  0.00  0.00    -0.249 OA
BRANCH  24  26
ATOM     26  O   UNK     1       9.922  -4.868  26.699  0.00  0.00    -0.480 OA
ATOM     27  H   UNK     1      10.796  -4.671  26.314  0.00  0.00    +0.295 HD
ENDBRANCH  24  26
ENDBRANCH  20  24
ENDBRANCH  19  20
ENDBRANCH  18  19
ENDBRANCH  16  18
ENDBRANCH  15  16
ENDBRANCH   1  15
TORSDOF 20
ENDMDL
MODEL 2
REMARK VINA RESULT:      -4.8      1.826      2.191
REMARK  Name = 
REMARK  21 active torsions:
REMARK  status: ('A' for Active; 'I' for Inactive)
REMARK    1  A    between atoms: C_2  and  N_3
REMARK    2  A    between atoms: C_2  and  C_4
REMARK    3  A    between atoms: C_2  and  C_23
REMARK    4  A    between atoms: C_4  and  S_5
REMARK    5  A    between atoms: S_5  and  C_6
REMARK    6  A    between atoms: C_6  and  C_8
REMARK    7  A    between atoms: C_8  and  C_9
REMARK    8  A    between atoms: C_9  and  C_10
REMARK    9  A    between atoms: C_10  and  C_11
REMARK   10  A    between atoms: C_11  and  C_12
REMARK   11  A    between atoms: C_12  and  C_13
REMARK   12  A    between atoms: C_13  and  C_14
REMARK   13  A    between atoms: C_14  and  C_15
REMARK   14  A    between atoms: C_15  and  C_16
REMARK   15  A    between atoms: C_16  and  C_17
REMARK   16  A    between atoms: C_17  and  C_18
REMARK   17  A    between atoms: C_18  and  C_19
REMARK   18  A    between atoms: C_19  and  C_20
REMARK   19  A    between atoms: C_20  and  C_21
REMARK   20  A    between atoms: C_21  and  C_22
REMARK   21  A    between atoms: C_23  and  O_24
REMARK                            x       y       z     vdW  Elec       q    Type
REMARK                         _______ _______ _______ _____ _____    ______ ____
ROOT
ATOM      1  C   UNK     1       7.623  -1.974  22.715  0.00  0.00    +0.008 C 
ENDROOT
BRANCH   1   2
ATOM      2  C   UNK     1       9.078  -1.977  22.251  0.00  0.00    +0.000 C 
BRANCH   2   3
ATOM      3  C   UNK     1      10.028  -1.784  23.430  0.00  0.00    +0.000 C 
BRANCH   3   4
ATOM      4  C   UNK     1       9.287  -1.257  24.657  0.00  0.00    +0.000 C 
BRANCH   4   5
ATOM      5  C   UNK     1       9.951   0.011  25.188  0.00  0.00    +0.000 C 
BRANCH   5   6
ATOM      6  C   UNK     1      10.878   0.627  24.143  0.00  0.00    -0.000 C 
BRANCH   6   7
ATOM      7  C   UNK     1      10.246   1.869  23.520  0.00  0.00    -0.000 C 
BRANCH   7   8
ATOM      8  C   UNK     1       9.938   1.644  22.042  0.00  0.00    -0.000 C 
BRANCH   8   9
ATOM      9  C   UNK     1       8.438   1.734  21.776  0.00  0.00    -0.000 C 
BRANCH   9  10
ATOM     10  C   UNK     1       7.877   3.071  22.256  0.00  0.00    -0.000 C 
BRANCH  10  11
ATOM     11  C   UNK     1       6.736   2.865  23.250  0.00  0.00    -0.000 C 
BRANCH  11  12
ATOM     12  C   UNK     1       6.463   1.377  23.468  0.00  0.00    -0.000 C 
BRANCH  12  13
ATOM     13  C   UNK     1       6.372   1.043  24.955  0.00  0.00    -0.003 C 
ATOM     14  C   UNK     1       6.973   2.150  25.806  0.00  0.00    +0.004 C 
ENDBRANCH  12  13
ENDBRANCH  11  12
ENDBRANCH  10  11
ENDBRANCH   9  10
ENDBRANCH   8   9
ENDBRANCH   7   8
ENDBRANCH   6   7
ENDBRANCH   5   6
ENDBRANCH   4   5
ENDBRANCH   3   4
ENDBRANCH   2   3
ENDBRANCH   1   2
BRANCH   1  15
ATOM     15  C   UNK     1       6.840  -3.117  22.077  0.00  0.00    +0.086 C 
BRANCH  15  16
ATOM     16  C   UNK     1       6.165  -3.989  23.114  0.00  0.00    +0.189 C 
ATOM     17  O   UNK     1       4.955  -4.108  23.248  0.00  0.00    -0.285 OA
BRANCH  16  18
ATOM     18  S   UNK     1       7.299  -4.871  24.133  0.00  0.00    -0.086 S 
BRANCH  18  19
ATOM     19  C   UNK     1       6.836  -4.157  25.750  0.00  0.00    +0.107 C 
BRANCH  19  20
ATOM     20  C   UNK     1       7.551  -4.862  26.917  0.00  0.00    +0.171 C 
BRANCH  20  21
ATOM     21  N   UNK     1       8.605  -5.797  26.469  0.00  0.00    -0.318 NA
ATOM     22  H   UNK     1       9.506  -5.372  26.276  0.00  0.00    +0.119 HD
ATOM     23  H   UNK     1       8.621  -6.699  26.935  0.00  0.00    +0.119 HD
ENDBRANCH  20  21
BRANCH  20  24
ATOM     24  C   UNK     1       6.482  -5.574  27.763  0.00  0.00    +0.323 C 
ATOM     25  O   UNK     1       6.285  -5.354  28.948  0.00  0.00    -0.249 OA
BRANCH  24  26
ATOM     26  O   UNK     1       5.754  -6.481  27.069  0.00  0.00    -0.480 OA
ATOM     27  H   UNK     1       6.070  -7.381  27.269  0.00  0.00    +0.295 HD
ENDBRANCH  24  26
ENDBRANCH  20  24
ENDBRANCH  19  20
ENDBRANCH  18  19
ENDBRANCH  16  18
ENDBRANCH  15  16
ENDBRANCH   1  15
TORSDOF 20
ENDMDL
MODEL 3
REMARK VINA RESULT:      -4.7      1.462      2.296
REMARK  Name = 
REMARK  21 active torsions:
REMARK  status: ('A' for Active; 'I' for Inactive)
REMARK    1  A    between atoms: C_2  and  N_3
REMARK    2  A    between atoms: C_2  and  C_4
REMARK    3  A    between atoms: C_2  and  C_23
REMARK    4  A    between atoms: C_4  and  S_5
REMARK    5  A    between atoms: S_5  and  C_6
REMARK    6  A    between atoms: C_6  and  C_8
REMARK    7  A    between atoms: C_8  and  C_9
REMARK    8  A    between atoms: C_9  and  C_10
REMARK    9  A    between atoms: C_10  and  C_11
REMARK   10  A    between atoms: C_11  and  C_12
REMARK   11  A    between atoms: C_12  and  C_13
REMARK   12  A    between atoms: C_13  and  C_14
REMARK   13  A    between atoms: C_14  and  C_15
REMARK   14  A    between atoms: C_15  and  C_16
REMARK   15  A    between atoms: C_16  and  C_17
REMARK   16  A    between atoms: C_17  and  C_18
REMARK   17  A    between atoms: C_18  and  C_19
REMARK   18  A    between atoms: C_19  and  C_20
REMARK   19  A    between atoms: C_20  and  C_21
REMARK   20  A    between atoms: C_21  and  C_22
REMARK   21  A    between atoms: C_23  and  O_24
REMARK                            x       y       z     vdW  Elec       q    Type
REMARK                         _______ _______ _______ _____ _____    ______ ____
ROOT
ATOM      1  C   UNK     1       8.150  -1.968  22.626  0.00  0.00    +0.008 C 
ENDROOT
BRANCH   1   2
ATOM      2  C   UNK     1       9.556  -2.034  23.219  0.00  0.00    +0.000 C 
BRANCH   2   3
ATOM      3  C   UNK     1      10.291  -0.708  23.032  0.00  0.00    +0.000 C 
BRANCH   3   4
ATOM      4  C   UNK     1       9.776   0.041  21.806  0.00  0.00    +0.000 C 
BRANCH   4   5
ATOM      5  C   UNK     1      10.005   1.543  21.954  0.00  0.00    +0.000 C 
BRANCH   5   6
ATOM      6  C   UNK     1      10.283   1.918  23.408  0.00  0.00    -0.000 C 
BRANCH   6   7
ATOM      7  C   UNK     1       9.634   3.254  23.758  0.00  0.00    -0.000 C 
BRANCH   7   8
ATOM      8  C   UNK     1       8.667   3.104  24.929  0.00  0.00    -0.000 C 
BRANCH   8   9
ATOM      9  C   UNK     1       8.022   1.721  24.932  0.00  0.00    -0.000 C 
BRANCH   9  10
ATOM     10  C   UNK     1       6.593   1.783  24.398  0.00  0.00    -0.000 C 
BRANCH  10  11
ATOM     11  C   UNK     1       6.558   1.561  22.888  0.00  0.00    -0.000 C 
BRANCH  11  12
ATOM     12  C   UNK     1       6.262   2.866  22.150  0.00  0.00    -0.000 C 
BRANCH  12  13
ATOM     13  C   UNK     1       5.219   3.698  22.891  0.00  0.00    -0.003 C 
ATOM     14  C   UNK     1       3.837   3.516  22.286  0.00  0.00    +0.004 C 
ENDBRANCH  12  13
ENDBRANCH  11  12
ENDBRANCH  10  11
ENDBRANCH   9  10
ENDBRANCH   8   9
ENDBRANCH   7   8
ENDBRANCH   6   7
ENDBRANCH   5   6
ENDBRANCH   4   5
ENDBRANCH   3   4
ENDBRANCH   2   3
ENDBRANCH   1   2
BRANCH   1  15
ATOM     15  C   UNK     1       7.094  -1.891  23.724  0.00  0.00    +0.086 C 
BRANCH  15  16
ATOM     16  C   UNK     1       6.003  -2.922  23.531  0.00  0.00    +0.189 C 
ATOM     17  O   UNK     1       5.501  -3.218  22.456  0.00  0.00    -0.285 OA
BRANCH  16  18
ATOM     18  S   UNK     1       5.512  -3.710  25.027  0.00  0.00    -0.086 S 
BRANCH  18  19
ATOM     19  C   UNK     1       7.146  -3.813  25.840  0.00  0.00    +0.107 C 
BRANCH  19  20
ATOM     20  C   UNK     1       7.635  -5.266  25.968  0.00  0.00    +0.171 C 
BRANCH  20  21
ATOM     21  N   UNK     1       7.955  -5.649  27.361  0.00  0.00    -0.318 NA
ATOM     22  H   UNK     1       8.944  -5.742  27.567  0.00  0.00    +0.119 HD
ATOM     23  H   UNK     1       7.381  -5.218  28.078  0.00  0.00    +0.119 HD
ENDBRANCH  20  21
BRANCH  20  24
ATOM     24  C   UNK     1       8.849  -5.439  25.039  0.00  0.00    +0.323 C 
ATOM     25  O   UNK     1       8.789  -5.424  23.820  0.00  0.00    -0.249 OA
BRANCH  24  26
ATOM     26  O   UNK     1      10.020  -5.604  25.700  0.00  0.00    -0.480 OA
ATOM     27  H   UNK     1       9.952  -6.364  26.307  0.00  0.00    +0.295 HD
ENDBRANCH  24  26
ENDBRANCH  20  24
ENDBRANCH  19  20
ENDBRANCH  18  19
ENDBRANCH  16  18
ENDBRANCH  15  16
ENDBRANCH   1  15
TORSDOF 20
ENDMDL
MODEL 4
REMARK VINA RESULT:      -4.7      2.373      4.312
REMARK  Name = 
REMARK  21 active torsions:
REMARK  status: ('A' for Active; 'I' for Inactive)
REMARK    1  A    between atoms: C_2  and  N_3
REMARK    2  A    between atoms: C_2  and  C_4
REMARK    3  A    between atoms: C_2  and  C_23
REMARK    4  A    between atoms: C_4  and  S_5
REMARK    5  A    between atoms: S_5  and  C_6
REMARK    6  A    between atoms: C_6  and  C_8
REMARK    7  A    between atoms: C_8  and  C_9
REMARK    8  A    between atoms: C_9  and  C_10
REMARK    9  A    between atoms: C_10  and  C_11
REMARK   10  A    between atoms: C_11  and  C_12
REMARK   11  A    between atoms: C_12  and  C_13
REMARK   12  A    between atoms: C_13  and  C_14
REMARK   13  A    between atoms: C_14  and  C_15
REMARK   14  A    between atoms: C_15  and  C_16
REMARK   15  A    between atoms: C_16  and  C_17
REMARK   16  A    between atoms: C_17  and  C_18
REMARK   17  A    between atoms: C_18  and  C_19
REMARK   18  A    between atoms: C_19  and  C_20
REMARK   19  A    between atoms: C_20  and  C_21
REMARK   20  A    between atoms: C_21  and  C_22
REMARK   21  A    between atoms: C_23  and  O_24
REMARK                            x       y       z     vdW  Elec       q    Type
REMARK                         _______ _______ _______ _____ _____    ______ ____
ROOT
ATOM      1  C   UNK     1       7.182  -2.683  26.659  0.00  0.00    +0.008 C 
ENDROOT
BRANCH   1   2
ATOM      2  C   UNK     1       7.276  -1.182  26.393  0.00  0.00    +0.000 C 
BRANCH   2   3
ATOM      3  C   UNK     1       8.693  -0.789  25.980  0.00  0.00    +0.000 C 
BRANCH   3   4
ATOM      4  C   UNK     1       8.732   0.632  25.422  0.00  0.00    +0.000 C 
BRANCH   4   5
ATOM      5  C   UNK     1       7.320   1.148  25.158  0.00  0.00    +0.000 C 
BRANCH   5   6
ATOM      6  C   UNK     1       7.340   2.358  24.226  0.00  0.00    -0.000 C 
BRANCH   6   7
ATOM      7  C   UNK     1       6.589   2.060  22.932  0.00  0.00    -0.000 C 
BRANCH   7   8
ATOM      8  C   UNK     1       7.555   1.897  21.763  0.00  0.00    -0.000 C 
BRANCH   8   9
ATOM      9  C   UNK     1       8.952   2.389  22.134  0.00  0.00    -0.000 C 
BRANCH   9  10
ATOM     10  C   UNK     1       9.981   1.271  21.988  0.00  0.00    -0.000 C 
BRANCH  10  11
ATOM     11  C   UNK     1       9.326  -0.023  21.512  0.00  0.00    -0.000 C 
BRANCH  11  12
ATOM     12  C   UNK     1       9.841  -1.221  22.308  0.00  0.00    -0.000 C 
BRANCH  12  13
ATOM     13  C   UNK     1       8.746  -2.265  22.508  0.00  0.00    -0.003 C 
ATOM     14  C   UNK     1       7.379  -1.613  22.635  0.00  0.00    +0.004 C 
ENDBRANCH  12  13
ENDBRANCH  11  12
ENDBRANCH  10  11
ENDBRANCH   9  10
ENDBRANCH   8   9
ENDBRANCH   7   8
ENDBRANCH   6   7
ENDBRANCH   5   6
ENDBRANCH   4   5
ENDBRANCH   3   4
ENDBRANCH   2   3
ENDBRANCH   1   2
BRANCH   1  15
ATOM     15  C   UNK     1       8.372  -3.424  26.060  0.00  0.00    +0.086 C 
BRANCH  15  16
ATOM     16  C   UNK     1       7.943  -4.652  25.288  0.00  0.00    +0.189 C 
ATOM     17  O   UNK     1       8.644  -5.257  24.488  0.00  0.00    -0.285 OA
BRANCH  16  18
ATOM     18  S   UNK     1       6.306  -5.180  25.664  0.00  0.00    -0.086 S 
BRANCH  18  19
ATOM     19  C   UNK     1       5.853  -5.872  24.034  0.00  0.00    +0.107 C 
BRANCH  19  20
ATOM     20  C   UNK     1       5.542  -4.769  23.007  0.00  0.00    +0.171 C 
BRANCH  20  21
ATOM     21  N   UNK     1       4.092  -4.567  22.794  0.00  0.00    -0.318 NA
ATOM     22  H   UNK     1       3.492  -5.272  23.212  0.00  0.00    +0.119 HD
ATOM     23  H   UNK     1       3.768  -3.607  22.848  0.00  0.00    +0.119 HD
ENDBRANCH  20  21
BRANCH  20  24
ATOM     24  C   UNK     1       6.264  -5.128  21.697  0.00  0.00    +0.323 C 
ATOM     25  O   UNK     1       5.865  -4.819  20.585  0.00  0.00    -0.249 OA
BRANCH  24  26
ATOM     26  O   UNK     1       7.410  -5.826  21.882  0.00  0.00    -0.480 OA
ATOM     27  H   UNK     1       8.129  -5.219  22.137  0.00  0.00    +0.295 HD
ENDBRANCH  24  26
ENDBRANCH  20  24
ENDBRANCH  19  20
ENDBRANCH  18  19
ENDBRANCH  16  18
ENDBRANCH  15  16
ENDBRANCH   1  15
TORSDOF 20
ENDMDL
MODEL 5
REMARK VINA RESULT:      -4.7      5.176      8.204
REMARK  Name = 
REMARK  21 active torsions:
REMARK  status: ('A' for Active; 'I' for Inactive)
REMARK    1  A    between atoms: C_2  and  N_3
REMARK    2  A    between atoms: C_2  and  C_4
REMARK    3  A    between atoms: C_2  and  C_23
REMARK    4  A    between atoms: C_4  and  S_5
REMARK    5  A    between atoms: S_5  and  C_6
REMARK    6  A    between atoms: C_6  and  C_8
REMARK    7  A    between atoms: C_8  and  C_9
REMARK    8  A    between atoms: C_9  and  C_10
REMARK    9  A    between atoms: C_10  and  C_11
REMARK   10  A    between atoms: C_11  and  C_12
REMARK   11  A    between atoms: C_12  and  C_13
REMARK   12  A    between atoms: C_13  and  C_14
REMARK   13  A    between atoms: C_14  and  C_15
REMARK   14  A    between atoms: C_15  and  C_16
REMARK   15  A    between atoms: C_16  and  C_17
REMARK   16  A    between atoms: C_17  and  C_18
REMARK   17  A    between atoms: C_18  and  C_19
REMARK   18  A    between atoms: C_19  and  C_20
REMARK   19  A    between atoms: C_20  and  C_21
REMARK   20  A    between atoms: C_21  and  C_22
REMARK   21  A    between atoms: C_23  and  O_24
REMARK                            x       y       z     vdW  Elec       q    Type
REMARK                         _______ _______ _______ _____ _____    ______ ____
ROOT
ATOM      1  C   UNK     1       7.929   2.511  22.905  0.00  0.00    +0.008 C 
ENDROOT
BRANCH   1   2
ATOM      2  C   UNK     1       8.028   1.431  21.830  0.00  0.00    +0.000 C 
BRANCH   2   3
ATOM      3  C   UNK     1       9.480   1.011  21.610  0.00  0.00    +0.000 C 
BRANCH   3   4
ATOM      4  C   UNK     1       9.999   0.180  22.782  0.00  0.00    +0.000 C 
BRANCH   4   5
ATOM      5  C   UNK     1      10.263  -1.259  22.349  0.00  0.00    +0.000 C 
BRANCH   5   6
ATOM      6  C   UNK     1       9.934  -2.243  23.469  0.00  0.00    -0.000 C 
BRANCH   6   7
ATOM      7  C   UNK     1       9.275  -1.527  24.644  0.00  0.00    -0.000 C 
BRANCH   7   8
ATOM      8  C   UNK     1       8.599  -2.523  25.583  0.00  0.00    -0.000 C 
BRANCH   8   9
ATOM      9  C   UNK     1       8.962  -3.958  25.212  0.00  0.00    -0.000 C 
BRANCH   9  10
ATOM     10  C   UNK     1       7.809  -4.910  25.519  0.00  0.00    -0.000 C 
BRANCH  10  11
ATOM     11  C   UNK     1       6.759  -4.879  24.412  0.00  0.00    -0.000 C 
BRANCH  11  12
ATOM     12  C   UNK     1       7.412  -4.990  23.035  0.00  0.00    -0.000 C 
BRANCH  12  13
ATOM     13  C   UNK     1       6.697  -4.114  22.010  0.00  0.00    -0.003 C 
ATOM     14  C   UNK     1       6.341  -2.758  22.596  0.00  0.00    +0.004 C 
ENDBRANCH  12  13
ENDBRANCH  11  12
ENDBRANCH  10  11
ENDBRANCH   9  10
ENDBRANCH   8   9
ENDBRANCH   7   8
ENDBRANCH   6   7
ENDBRANCH   5   6
ENDBRANCH   4   5
ENDBRANCH   3   4
ENDBRANCH   2   3
ENDBRANCH   1   2
BRANCH   1  15
ATOM     15  C   UNK     1       7.204   3.745  22.378  0.00  0.00    +0.086 C 
BRANCH  15  16
ATOM     16  C   UNK     1       7.895   5.026  22.791  0.00  0.00    +0.189 C 
ATOM     17  O   UNK     1       7.755   6.108  22.236  0.00  0.00    -0.285 OA
BRANCH  16  18
ATOM     18  S   UNK     1       8.935   4.839  24.200  0.00  0.00    -0.086 S 
BRANCH  18  19
ATOM     19  C   UNK     1      10.281   5.973  23.707  0.00  0.00    +0.107 C 
BRANCH  19  20
ATOM     20  C   UNK     1      11.465   5.221  23.074  0.00  0.00    +0.171 C 
BRANCH  20  21
ATOM     21  N   UNK     1      11.289   3.752  23.080  0.00  0.00    -0.318 NA
ATOM     22  H   UNK     1      10.577   3.400  22.448  0.00  0.00    +0.119 HD
ATOM     23  H   UNK     1      12.142   3.207  23.151  0.00  0.00    +0.119 HD
ENDBRANCH  20  21
BRANCH  20  24
ATOM     24  C   UNK     1      12.743   5.643  23.818  0.00  0.00    +0.323 C 
ATOM     25  O   UNK     1      12.759   6.354  24.810  0.00  0.00    -0.249 OA
BRANCH  24  26
ATOM     26  O   UNK     1      13.879   5.143  23.274  0.00  0.00    -0.480 OA
ATOM     27  H   UNK     1      14.230   4.431  23.839  0.00  0.00    +0.295 HD
ENDBRANCH  24  26
ENDBRANCH  20  24
ENDBRANCH  19  20
ENDBRANCH  18  19
ENDBRANCH  16  18
ENDBRANCH  15  16
ENDBRANCH   1  15
TORSDOF 20
ENDMDL
MODEL 6
REMARK VINA RESULT:      -4.7      2.070      3.327
REMARK  Name = 
REMARK  21 active torsions:
REMARK  status: ('A' for Active; 'I' for Inactive)
REMARK    1  A    between atoms: C_2  and  N_3
REMARK    2  A    between atoms: C_2  and  C_4
REMARK    3  A    between atoms: C_2  and  C_23
REMARK    4  A    between atoms: C_4  and  S_5
REMARK    5  A    between atoms: S_5  and  C_6
REMARK    6  A    between atoms: C_6  and  C_8
REMARK    7  A    between atoms: C_8  and  C_9
REMARK    8  A    between atoms: C_9  and  C_10
REMARK    9  A    between atoms: C_10  and  C_11
REMARK   10  A    between atoms: C_11  and  C_12
REMARK   11  A    between atoms: C_12  and  C_13
REMARK   12  A    between atoms: C_13  and  C_14
REMARK   13  A    between atoms: C_14  and  C_15
REMARK   14  A    between atoms: C_15  and  C_16
REMARK   15  A    between atoms: C_16  and  C_17
REMARK   16  A    between atoms: C_17  and  C_18
REMARK   17  A    between atoms: C_18  and  C_19
REMARK   18  A    between atoms: C_19  and  C_20
REMARK   19  A    between atoms: C_20  and  C_21
REMARK   20  A    between atoms: C_21  and  C_22
REMARK   21  A    between atoms: C_23  and  O_24
REMARK                            x       y       z     vdW  Elec       q    Type
REMARK                         _______ _______ _______ _____ _____    ______ ____
ROOT
ATOM      1  C   UNK     1       7.363  -1.208  24.930  0.00  0.00    +0.008 C 
ENDROOT
BRANCH   1   2
ATOM      2  C   UNK     1       7.031   0.214  25.376  0.00  0.00    +0.000 C 
BRANCH   2   3
ATOM      3  C   UNK     1       6.303   0.977  24.271  0.00  0.00    +0.000 C 
BRANCH   3   4
ATOM      4  C   UNK     1       6.785   0.543  22.889  0.00  0.00    +0.000 C 
BRANCH   4   5
ATOM      5  C   UNK     1       7.132   1.758  22.032  0.00  0.00    +0.000 C 
BRANCH   5   6
ATOM      6  C   UNK     1       8.330   1.473  21.129  0.00  0.00    -0.000 C 
BRANCH   6   7
ATOM      7  C   UNK     1       9.461   0.820  21.917  0.00  0.00    -0.000 C 
BRANCH   7   8
ATOM      8  C   UNK     1      10.338   1.872  22.592  0.00  0.00    -0.000 C 
BRANCH   8   9
ATOM      9  C   UNK     1      10.175   1.829  24.108  0.00  0.00    -0.000 C 
BRANCH   9  10
ATOM     10  C   UNK     1       9.314   2.991  24.598  0.00  0.00    -0.000 C 
BRANCH  10  11
ATOM     11  C   UNK     1       9.424   4.192  23.662  0.00  0.00    -0.000 C 
BRANCH  11  12
ATOM     12  C   UNK     1       9.844   5.445  24.427  0.00  0.00    -0.000 C 
BRANCH  12  13
ATOM     13  C   UNK     1      11.078   6.089  23.802  0.00  0.00    -0.003 C 
ATOM     14  C   UNK     1      12.118   5.044  23.434  0.00  0.00    +0.004 C 
ENDBRANCH  12  13
ENDBRANCH  11  12
ENDBRANCH  10  11
ENDBRANCH   9  10
ENDBRANCH   8   9
ENDBRANCH   7   8
ENDBRANCH   6   7
ENDBRANCH   5   6
ENDBRANCH   4   5
ENDBRANCH   3   4
ENDBRANCH   2   3
ENDBRANCH   1   2
BRANCH   1  15
ATOM     15  C   UNK     1       8.871  -1.439  24.909  0.00  0.00    +0.086 C 
BRANCH  15  16
ATOM     16  C   UNK     1       9.262  -2.535  23.942  0.00  0.00    +0.189 C 
ATOM     17  O   UNK     1      10.406  -2.778  23.585  0.00  0.00    -0.285 OA
BRANCH  16  18
ATOM     18  S   UNK     1       7.894  -3.486  23.370  0.00  0.00    -0.086 S 
BRANCH  18  19
ATOM     19  C   UNK     1       8.304  -5.076  24.171  0.00  0.00    +0.107 C 
BRANCH  19  20
ATOM     20  C   UNK     1       7.362  -5.388  25.347  0.00  0.00    +0.171 C 
BRANCH  20  21
ATOM     21  N   UNK     1       6.127  -4.575  25.332  0.00  0.00    -0.318 NA
ATOM     22  H   UNK     1       5.266  -5.095  25.469  0.00  0.00    +0.119 HD
ATOM     23  H   UNK     1       6.188  -3.672  25.792  0.00  0.00    +0.119 HD
ENDBRANCH  20  21
BRANCH  20  24
ATOM     24  C   UNK     1       8.156  -5.192  26.650  0.00  0.00    +0.323 C 
ATOM     25  O   UNK     1       9.143  -4.481  26.754  0.00  0.00    -0.249 OA
BRANCH  24  26
ATOM     26  O   UNK     1       7.653  -5.883  27.702  0.00  0.00    -0.480 OA
ATOM     27  H   UNK     1       7.837  -6.834  27.590  0.00  0.00    +0.295 HD
ENDBRANCH  24  26
ENDBRANCH  20  24
ENDBRANCH  19  20
ENDBRANCH  18  19
ENDBRANCH  16  18
ENDBRANCH  15  16
ENDBRANCH   1  15
TORSDOF 20
ENDMDL
MODEL 7
REMARK VINA RESULT:      -4.7      2.589      3.115
REMARK  Name = 
REMARK  21 active torsions:
REMARK  status: ('A' for Active; 'I' for Inactive)
REMARK    1  A    between atoms: C_2  and  N_3
REMARK    2  A    between atoms: C_2  and  C_4
REMARK    3  A    between atoms: C_2  and  C_23
REMARK    4  A    between atoms: C_4  and  S_5
REMARK    5  A    between atoms: S_5  and  C_6
REMARK    6  A    between atoms: C_6  and  C_8
REMARK    7  A    between atoms: C_8  and  C_9
REMARK    8  A    between atoms: C_9  and  C_10
REMARK    9  A    between atoms: C_10  and  C_11
REMARK   10  A    between atoms: C_11  and  C_12
REMARK   11  A    between atoms: C_12  and  C_13
REMARK   12  A    between atoms: C_13  and  C_14
REMARK   13  A    between atoms: C_14  and  C_15
REMARK   14  A    between atoms: C_15  and  C_16
REMARK   15  A    between atoms: C_16  and  C_17
REMARK   16  A    between atoms: C_17  and  C_18
REMARK   17  A    between atoms: C_18  and  C_19
REMARK   18  A    between atoms: C_19  and  C_20
REMARK   19  A    between atoms: C_20  and  C_21
REMARK   20  A    between atoms: C_21  and  C_22
REMARK   21  A    between atoms: C_23  and  O_24
REMARK                            x       y       z     vdW  Elec       q    Type
REMARK                         _______ _______ _______ _____ _____    ______ ____
ROOT
ATOM      1  C   UNK     1       7.848  -1.659  23.636  0.00  0.00    +0.008 C 
ENDROOT
BRANCH   1   2
ATOM      2  C   UNK     1       7.770  -0.941  24.982  0.00  0.00    +0.000 C 
BRANCH   2   3
ATOM      3  C   UNK     1       9.162  -0.559  25.480  0.00  0.00    +0.000 C 
BRANCH   3   4
ATOM      4  C   UNK     1      10.075  -0.167  24.320  0.00  0.00    +0.000 C 
BRANCH   4   5
ATOM      5  C   UNK     1      10.441   1.313  24.398  0.00  0.00    +0.000 C 
BRANCH   5   6
ATOM      6  C   UNK     1      10.265   1.997  23.044  0.00  0.00    -0.000 C 
BRANCH   6   7
ATOM      7  C   UNK     1       9.886   0.984  21.968  0.00  0.00    -0.000 C 
BRANCH   7   8
ATOM      8  C   UNK     1       8.580   1.376  21.282  0.00  0.00    -0.000 C 
BRANCH   8   9
ATOM      9  C   UNK     1       7.914   2.547  22.000  0.00  0.00    -0.000 C 
BRANCH   9  10
ATOM     10  C   UNK     1       6.599   2.116  22.645  0.00  0.00    -0.000 C 
BRANCH  10  11
ATOM     11  C   UNK     1       6.607   2.390  24.147  0.00  0.00    -0.000 C 
BRANCH  11  12
ATOM     12  C   UNK     1       6.895   3.863  24.433  0.00  0.00    -0.000 C 
BRANCH  12  13
ATOM     13  C   UNK     1       8.083   4.022  25.378  0.00  0.00    -0.003 C 
ATOM     14  C   UNK     1       9.067   5.057  24.857  0.00  0.00    +0.004 C 
ENDBRANCH  12  13
ENDBRANCH  11  12
ENDBRANCH  10  11
ENDBRANCH   9  10
ENDBRANCH   8   9
ENDBRANCH   7   8
ENDBRANCH   6   7
ENDBRANCH   5   6
ENDBRANCH   4   5
ENDBRANCH   3   4
ENDBRANCH   2   3
ENDBRANCH   1   2
BRANCH   1  15
ATOM     15  C   UNK     1       6.539  -1.523  22.864  0.00  0.00    +0.086 C 
BRANCH  15  16
ATOM     16  C   UNK     1       5.932  -2.870  22.541  0.00  0.00    +0.189 C 
ATOM     17  O   UNK     1       6.123  -3.495  21.506  0.00  0.00    -0.285 OA
BRANCH  16  18
ATOM     18  S   UNK     1       4.910  -3.505  23.827  0.00  0.00    -0.086 S 
BRANCH  18  19
ATOM     19  C   UNK     1       5.858  -5.019  24.216  0.00  0.00    +0.107 C 
BRANCH  19  20
ATOM     20  C   UNK     1       5.234  -6.270  23.571  0.00  0.00    +0.171 C 
BRANCH  20  21
ATOM     21  N   UNK     1       4.358  -5.954  22.423  0.00  0.00    -0.318 NA
ATOM     22  H   UNK     1       4.102  -6.748  21.844  0.00  0.00    +0.119 HD
ATOM     23  H   UNK     1       3.630  -5.270  22.599  0.00  0.00    +0.119 HD
ENDBRANCH  20  21
BRANCH  20  24
ATOM     24  C   UNK     1       4.478  -7.038  24.668  0.00  0.00    +0.323 C 
ATOM     25  O   UNK     1       4.634  -6.859  25.866  0.00  0.00    -0.249 OA
BRANCH  24  26
ATOM     26  O   UNK     1       3.597  -7.948  24.186  0.00  0.00    -0.480 OA
ATOM     27  H   UNK     1       4.073  -8.637  23.689  0.00  0.00    +0.295 HD
ENDBRANCH  24  26
ENDBRANCH  20  24
ENDBRANCH  19  20
ENDBRANCH  18  19
ENDBRANCH  16  18
ENDBRANCH  15  16
ENDBRANCH   1  15
TORSDOF 20
ENDMDL
MODEL 8
REMARK VINA RESULT:      -4.7      3.710      7.455
REMARK  Name = 
REMARK  21 active torsions:
REMARK  status: ('A' for Active; 'I' for Inactive)
REMARK    1  A    between atoms: C_2  and  N_3
REMARK    2  A    between atoms: C_2  and  C_4
REMARK    3  A    between atoms: C_2  and  C_23
REMARK    4  A    between atoms: C_4  and  S_5
REMARK    5  A    between atoms: S_5  and  C_6
REMARK    6  A    between atoms: C_6  and  C_8
REMARK    7  A    between atoms: C_8  and  C_9
REMARK    8  A    between atoms: C_9  and  C_10
REMARK    9  A    between atoms: C_10  and  C_11
REMARK   10  A    between atoms: C_11  and  C_12
REMARK   11  A    between atoms: C_12  and  C_13
REMARK   12  A    between atoms: C_13  and  C_14
REMARK   13  A    between atoms: C_14  and  C_15
REMARK   14  A    between atoms: C_15  and  C_16
REMARK   15  A    between atoms: C_16  and  C_17
REMARK   16  A    between atoms: C_17  and  C_18
REMARK   17  A    between atoms: C_18  and  C_19
REMARK   18  A    between atoms: C_19  and  C_20
REMARK   19  A    between atoms: C_20  and  C_21
REMARK   20  A    between atoms: C_21  and  C_22
REMARK   21  A    between atoms: C_23  and  O_24
REMARK                            x       y       z     vdW  Elec       q    Type
REMARK                         _______ _______ _______ _____ _____    ______ ____
ROOT
ATOM      1  C   UNK     1       8.668  -1.740  26.296  0.00  0.00    +0.008 C 
ENDROOT
BRANCH   1   2
ATOM      2  C   UNK     1       7.933  -3.073  26.175  0.00  0.00    +0.000 C 
BRANCH   2   3
ATOM      3  C   UNK     1       8.860  -4.240  26.509  0.00  0.00    +0.000 C 
BRANCH   3   4
ATOM      4  C   UNK     1       8.998  -5.193  25.324  0.00  0.00    +0.000 C 
BRANCH   4   5
ATOM      5  C   UNK     1       8.390  -4.582  24.064  0.00  0.00    +0.000 C 
BRANCH   5   6
ATOM      6  C   UNK     1       7.757  -5.654  23.180  0.00  0.00    -0.000 C 
BRANCH   6   7
ATOM      7  C   UNK     1       7.000  -5.022  22.016  0.00  0.00    -0.000 C 
BRANCH   7   8
ATOM      8  C   UNK     1       6.553  -3.603  22.359  0.00  0.00    -0.000 C 
BRANCH   8   9
ATOM      9  C   UNK     1       5.100  -3.584  22.824  0.00  0.00    -0.000 C 
BRANCH   9  10
ATOM     10  C   UNK     1       4.981  -2.977  24.220  0.00  0.00    -0.000 C 
BRANCH  10  11
ATOM     11  C   UNK     1       4.482  -4.008  25.229  0.00  0.00    -0.000 C 
BRANCH  11  12
ATOM     12  C   UNK     1       4.116  -5.319  24.535  0.00  0.00    -0.000 C 
BRANCH  12  13
ATOM     13  C   UNK     1       4.786  -6.511  25.212  0.00  0.00    -0.003 C 
ATOM     14  C   UNK     1       5.554  -6.080  26.451  0.00  0.00    +0.004 C 
ENDBRANCH  12  13
ENDBRANCH  11  12
ENDBRANCH  10  11
ENDBRANCH   9  10
ENDBRANCH   8   9
ENDBRANCH   7   8
ENDBRANCH   6   7
ENDBRANCH   5   6
ENDBRANCH   4   5
ENDBRANCH   3   4
ENDBRANCH   2   3
ENDBRANCH   1   2
BRANCH   1  15
ATOM     15  C   UNK     1       8.477  -0.891  25.043  0.00  0.00    +0.086 C 
BRANCH  15  16
ATOM     16  C   UNK     1       9.745  -0.799  24.223  0.00  0.00    +0.189 C 
ATOM     17  O   UNK     1      10.107  -1.627  23.398  0.00  0.00    -0.285 OA
BRANCH  16  18
ATOM     18  S   UNK     1      10.681   0.658  24.540  0.00  0.00    -0.086 S 
BRANCH  18  19
ATOM     19  C   UNK     1       9.407   1.904  24.134  0.00  0.00    +0.107 C 
BRANCH  19  20
ATOM     20  C   UNK     1       9.050   1.896  22.637  0.00  0.00    +0.171 C 
BRANCH  20  21
ATOM     21  N   UNK     1      10.224   2.101  21.761  0.00  0.00    -0.318 NA
ATOM     22  H   UNK     1      10.403   3.064  21.496  0.00  0.00    +0.119 HD
ATOM     23  H   UNK     1      11.037   1.531  21.973  0.00  0.00    +0.119 HD
ENDBRANCH  20  21
BRANCH  20  24
ATOM     24  C   UNK     1       7.973   2.969  22.404  0.00  0.00    +0.323 C 
ATOM     25  O   UNK     1       6.936   2.780  21.788  0.00  0.00    -0.249 OA
BRANCH  24  26
ATOM     26  O   UNK     1       8.273   4.169  22.957  0.00  0.00    -0.480 OA
ATOM     27  H   UNK     1       8.757   4.035  23.793  0.00  0.00    +0.295 HD
ENDBRANCH  24  26
ENDBRANCH  20  24
ENDBRANCH  19  20
ENDBRANCH  18  19
ENDBRANCH  16  18
ENDBRANCH  15  16
ENDBRANCH   1  15
TORSDOF 20
ENDMDL
MODEL 9
REMARK VINA RESULT:      -4.6      3.731      7.163
REMARK  Name = 
REMARK  21 active torsions:
REMARK  status: ('A' for Active; 'I' for Inactive)
REMARK    1  A    between atoms: C_2  and  N_3
REMARK    2  A    between atoms: C_2  and  C_4
REMARK    3  A    between atoms: C_2  and  C_23
REMARK    4  A    between atoms: C_4  and  S_5
REMARK    5  A    between atoms: S_5  and  C_6
REMARK    6  A    between atoms: C_6  and  C_8
REMARK    7  A    between atoms: C_8  and  C_9
REMARK    8  A    between atoms: C_9  and  C_10
REMARK    9  A    between atoms: C_10  and  C_11
REMARK   10  A    between atoms: C_11  and  C_12
REMARK   11  A    between atoms: C_12  and  C_13
REMARK   12  A    between atoms: C_13  and  C_14
REMARK   13  A    between atoms: C_14  and  C_15
REMARK   14  A    between atoms: C_15  and  C_16
REMARK   15  A    between atoms: C_16  and  C_17
REMARK   16  A    between atoms: C_17  and  C_18
REMARK   17  A    between atoms: C_18  and  C_19
REMARK   18  A    between atoms: C_19  and  C_20
REMARK   19  A    between atoms: C_20  and  C_21
REMARK   20  A    between atoms: C_21  and  C_22
REMARK   21  A    between atoms: C_23  and  O_24
REMARK                            x       y       z     vdW  Elec       q    Type
REMARK                         _______ _______ _______ _____ _____    ______ ____
ROOT
ATOM      1  C   UNK     1       5.434  -1.851  25.025  0.00  0.00    +0.008 C 
ENDROOT
BRANCH   1   2
ATOM      2  C   UNK     1       4.878  -3.044  24.251  0.00  0.00    +0.000 C 
BRANCH   2   3
ATOM      3  C   UNK     1       4.203  -4.040  25.191  0.00  0.00    +0.000 C 
BRANCH   3   4
ATOM      4  C   UNK     1       4.481  -5.479  24.764  0.00  0.00    +0.000 C 
BRANCH   4   5
ATOM      5  C   UNK     1       5.308  -6.207  25.820  0.00  0.00    +0.000 C 
BRANCH   5   6
ATOM      6  C   UNK     1       5.812  -5.240  26.889  0.00  0.00    -0.000 C 
BRANCH   6   7
ATOM      7  C   UNK     1       7.294  -5.467  27.172  0.00  0.00    -0.000 C 
BRANCH   7   8
ATOM      8  C   UNK     1       8.139  -4.325  26.613  0.00  0.00    -0.000 C 
BRANCH   8   9
ATOM      9  C   UNK     1       8.848  -4.747  25.329  0.00  0.00    -0.000 C 
BRANCH   9  10
ATOM     10  C   UNK     1       8.723  -3.668  24.256  0.00  0.00    -0.000 C 
BRANCH  10  11
ATOM     11  C   UNK     1       7.900  -4.164  23.069  0.00  0.00    -0.000 C 
BRANCH  11  12
ATOM     12  C   UNK     1       7.767  -5.686  23.094  0.00  0.00    -0.000 C 
BRANCH  12  13
ATOM     13  C   UNK     1       6.851  -6.180  21.978  0.00  0.00    -0.003 C 
ATOM     14  C   UNK     1       6.132  -5.024  21.302  0.00  0.00    +0.004 C 
ENDBRANCH  12  13
ENDBRANCH  11  12
ENDBRANCH  10  11
ENDBRANCH   9  10
ENDBRANCH   8   9
ENDBRANCH   7   8
ENDBRANCH   6   7
ENDBRANCH   5   6
ENDBRANCH   4   5
ENDBRANCH   3   4
ENDBRANCH   2   3
ENDBRANCH   1   2
BRANCH   1  15
ATOM     15  C   UNK     1       6.269  -0.949  24.122  0.00  0.00    +0.086 C 
BRANCH  15  16
ATOM     16  C   UNK     1       6.140   0.509  24.504  0.00  0.00    +0.189 C 
ATOM     17  O   UNK     1       5.084   1.083  24.730  0.00  0.00    -0.285 OA
BRANCH  16  18
ATOM     18  S   UNK     1       7.688   1.340  24.627  0.00  0.00    -0.086 S 
BRANCH  18  19
ATOM     19  C   UNK     1       8.765   0.030  23.948  0.00  0.00    +0.107 C 
BRANCH  19  20
ATOM     20  C   UNK     1      10.065   0.602  23.355  0.00  0.00    +0.171 C 
BRANCH  20  21
ATOM     21  N   UNK     1      10.613   1.729  24.140  0.00  0.00    -0.318 NA
ATOM     22  H   UNK     1      10.405   1.705  25.133  0.00  0.00    +0.119 HD
ATOM     23  H   UNK     1      11.546   2.034  23.881  0.00  0.00    +0.119 HD
ENDBRANCH  20  21
BRANCH  20  24
ATOM     24  C   UNK     1       9.778   1.010  21.900  0.00  0.00    +0.323 C 
ATOM     25  O   UNK     1       9.191   0.309  21.092  0.00  0.00    -0.249 OA
BRANCH  24  26
ATOM     26  O   UNK     1      10.236   2.245  21.582  0.00  0.00    -0.480 OA
ATOM     27  H   UNK     1       9.886   2.900  22.213  0.00  0.00    +0.295 HD
ENDBRANCH  24  26
ENDBRANCH  20  24
ENDBRANCH  19  20
ENDBRANCH  18  19
ENDBRANCH  16  18
ENDBRANCH  15  16
ENDBRANCH   1  15
TORSDOF 20
ENDMDL
