MODEL 1
REMARK VINA RESULT:      -7.7      0.000      0.000
REMARK  Name = 
REMARK  5 active torsions:
REMARK  status: ('A' for Active; 'I' for Inactive)
REMARK    1  A    between atoms: C_2  and  C_3
REMARK    2  A    between atoms: C_2  and  N_5
REMARK    3  A    between atoms: C_2  and  C_15
REMARK    4  A    between atoms: C_3  and  C_4
REMARK    5  A    between atoms: N_26  and  C_27
REMARK                            x       y       z     vdW  Elec       q    Type
REMARK                         _______ _______ _______ _____ _____    ______ ____
ROOT
ATOM      1  C   UNL     1       7.490  -3.148  23.448  0.00  0.00    +0.138 A 
ATOM      2  N   UNL     1       7.819  -2.823  24.760  0.00  0.00    -0.263 N 
ATOM      3  C   UNL     1       8.648  -1.711  25.040  0.00  0.00    +0.269 A 
ATOM      4  O   UNL     1       9.093  -1.431  26.152  0.00  0.00    -0.266 OA
ATOM      5  C   UNL     1       9.055  -0.874  23.903  0.00  0.00    +0.100 A 
ATOM      6  C   UNL     1       8.656  -1.286  22.646  0.00  0.00    +0.081 A 
ATOM      7  C   UNL     1       9.048  -0.559  21.515  0.00  0.00    +0.029 A 
ATOM      8  C   UNL     1       9.817   0.595  21.643  0.00  0.00    +0.005 A 
ATOM      9  C   UNL     1      10.200   1.019  22.910  0.00  0.00    +0.039 A 
ATOM     10  C   UNL     1       9.825   0.282  24.035  0.00  0.00    +0.138 A 
ATOM     11  F   UNL     1      10.222   0.727  25.235  0.00  0.00    -0.205 F 
ATOM     12  N   UNL     1       7.882  -2.416  22.450  0.00  0.00    -0.231 NA
ENDROOT
BRANCH   2  13
ATOM     13  C   UNL     1       7.397  -3.559  25.915  0.00  0.00    +0.051 A 
ATOM     14  C   UNL     1       6.278  -3.189  26.664  0.00  0.00    +0.026 A 
ATOM     15  C   UNL     1       5.774  -4.054  27.643  0.00  0.00    +0.002 A 
ATOM     16  C   UNL     1       6.390  -5.283  27.893  0.00  0.00    +0.000 A 
ATOM     17  C   UNL     1       7.529  -5.642  27.183  0.00  0.00    +0.002 A 
ATOM     18  C   UNL     1       8.026  -4.787  26.197  0.00  0.00    +0.026 A 
ENDBRANCH   2  13
BRANCH   1  19
ATOM     19  C   UNL     1       6.646  -4.412  23.060  0.00  0.00    +0.138 C 
BRANCH  19  20
ATOM     20  N   UNL     1       5.215  -4.168  23.302  0.00  0.00    -0.317 N 
ATOM     21  H   UNL     1       4.901  -3.206  23.403  0.00  0.00    +0.148 HD
ATOM     22  C   UNL     1       4.565  -5.000  24.218  0.00  0.00    +0.150 A 
ATOM     23  C   UNL     1       3.380  -4.610  24.875  0.00  0.00    +0.147 A 
ATOM     24  N   UNL     1       2.637  -3.444  24.859  0.00  0.00    -0.231 NA
ATOM     25  C   UNL     1       1.632  -3.673  25.680  0.00  0.00    +0.198 A 
ATOM     26  N   UNL     1       1.684  -4.930  26.215  0.00  0.00    -0.329 N 
ATOM     27  H   UNL     1       1.030  -5.349  26.859  0.00  0.00    +0.168 HD
ATOM     28  C   UNL     1       2.801  -5.543  25.718  0.00  0.00    +0.163 A 
ATOM     29  N   UNL     1       3.220  -6.783  25.994  0.00  0.00    -0.216 NA
ATOM     30  C   UNL     1       4.358  -7.051  25.329  0.00  0.00    +0.225 A 
ATOM     31  N   UNL     1       5.046  -6.244  24.492  0.00  0.00    -0.219 NA
ENDBRANCH  19  20
BRANCH  19  32
ATOM     32  C   UNL     1       6.808  -4.780  21.543  0.00  0.00    +0.027 C 
ATOM     33  C   UNL     1       6.068  -6.020  21.041  0.00  0.00    +0.006 C 
ENDBRANCH  19  32
ENDBRANCH   1  19
TORSDOF 4
ENDMDL
MODEL 2
REMARK VINA RESULT:      -7.3      3.749      6.418
REMARK  Name = 
REMARK  5 active torsions:
REMARK  status: ('A' for Active; 'I' for Inactive)
REMARK    1  A    between atoms: C_2  and  C_3
REMARK    2  A    between atoms: C_2  and  N_5
REMARK    3  A    between atoms: C_2  and  C_15
REMARK    4  A    between atoms: C_3  and  C_4
REMARK    5  A    between atoms: N_26  and  C_27
REMARK                            x       y       z     vdW  Elec       q    Type
REMARK                         _______ _______ _______ _____ _____    ______ ____
ROOT
ATOM      1  C   UNL     1       7.895   2.675  23.953  0.00  0.00    +0.138 A 
ATOM      2  N   UNL     1       9.187   2.402  23.514  0.00  0.00    -0.263 N 
ATOM      3  C   UNL     1      10.188   3.400  23.559  0.00  0.00    +0.269 A 
ATOM      4  O   UNL     1      11.313   3.286  23.075  0.00  0.00    -0.266 OA
ATOM      5  C   UNL     1       9.829   4.686  24.175  0.00  0.00    +0.100 A 
ATOM      6  C   UNL     1       8.519   4.838  24.589  0.00  0.00    +0.081 A 
ATOM      7  C   UNL     1       8.098   6.053  25.142  0.00  0.00    +0.029 A 
ATOM      8  C   UNL     1       8.993   7.108  25.305  0.00  0.00    +0.005 A 
ATOM      9  C   UNL     1      10.314   6.946  24.906  0.00  0.00    +0.039 A 
ATOM     10  C   UNL     1      10.728   5.739  24.336  0.00  0.00    +0.138 A 
ATOM     11  F   UNL     1      12.010   5.631  23.963  0.00  0.00    -0.205 F 
ATOM     12  N   UNL     1       7.583   3.826  24.467  0.00  0.00    -0.231 NA
ENDROOT
BRANCH   2  13
ATOM     13  C   UNL     1       9.616   1.149  22.968  0.00  0.00    +0.051 A 
ATOM     14  C   UNL     1      10.304   0.203  23.731  0.00  0.00    +0.026 A 
ATOM     15  C   UNL     1      10.508  -1.088  23.229  0.00  0.00    +0.002 A 
ATOM     16  C   UNL     1      10.045  -1.439  21.958  0.00  0.00    +0.000 A 
ATOM     17  C   UNL     1       9.397  -0.493  21.173  0.00  0.00    +0.002 A 
ATOM     18  C   UNL     1       9.181   0.791  21.678  0.00  0.00    +0.026 A 
ENDBRANCH   2  13
BRANCH   1  19
ATOM     19  C   UNL     1       6.716   1.645  23.854  0.00  0.00    +0.138 C 
BRANCH  19  20
ATOM     20  N   UNL     1       6.887   0.573  24.848  0.00  0.00    -0.317 N 
ATOM     21  H   UNL     1       7.560   0.714  25.597  0.00  0.00    +0.148 HD
ATOM     22  C   UNL     1       6.939  -0.741  24.376  0.00  0.00    +0.150 A 
ATOM     23  C   UNL     1       7.543  -1.780  25.115  0.00  0.00    +0.147 A 
ATOM     24  N   UNL     1       8.213  -1.806  26.324  0.00  0.00    -0.231 NA
ATOM     25  C   UNL     1       8.551  -3.068  26.495  0.00  0.00    +0.198 A 
ATOM     26  N   UNL     1       8.123  -3.858  25.465  0.00  0.00    -0.329 N 
ATOM     27  H   UNL     1       8.246  -4.854  25.364  0.00  0.00    +0.168 HD
ATOM     28  C   UNL     1       7.482  -3.049  24.566  0.00  0.00    +0.163 A 
ATOM     29  N   UNL     1       6.917  -3.428  23.414  0.00  0.00    -0.216 NA
ATOM     30  C   UNL     1       6.382  -2.367  22.785  0.00  0.00    +0.225 A 
ATOM     31  N   UNL     1       6.377  -1.076  23.182  0.00  0.00    -0.219 NA
ENDBRANCH  19  20
BRANCH  19  32
ATOM     32  C   UNL     1       5.326   2.320  24.127  0.00  0.00    +0.027 C 
ATOM     33  C   UNL     1       4.617   1.956  25.433  0.00  0.00    +0.006 C 
ENDBRANCH  19  32
ENDBRANCH   1  19
TORSDOF 4
ENDMDL
MODEL 3
REMARK VINA RESULT:      -7.3      2.139      2.673
REMARK  Name = 
REMARK  5 active torsions:
REMARK  status: ('A' for Active; 'I' for Inactive)
REMARK    1  A    between atoms: C_2  and  C_3
REMARK    2  A    between atoms: C_2  and  N_5
REMARK    3  A    between atoms: C_2  and  C_15
REMARK    4  A    between atoms: C_3  and  C_4
REMARK    5  A    between atoms: N_26  and  C_27
REMARK                            x       y       z     vdW  Elec       q    Type
REMARK                         _______ _______ _______ _____ _____    ______ ____
ROOT
ATOM      1  C   UNL     1       7.283  -2.994  24.163  0.00  0.00    +0.138 A 
ATOM      2  N   UNL     1       6.390  -2.057  24.672  0.00  0.00    -0.263 N 
ATOM      3  C   UNL     1       6.469  -0.700  24.279  0.00  0.00    +0.269 A 
ATOM      4  O   UNL     1       5.809   0.213  24.774  0.00  0.00    -0.266 OA
ATOM      5  C   UNL     1       7.459  -0.356  23.248  0.00  0.00    +0.100 A 
ATOM      6  C   UNL     1       8.282  -1.373  22.805  0.00  0.00    +0.081 A 
ATOM      7  C   UNL     1       9.277  -1.104  21.857  0.00  0.00    +0.029 A 
ATOM      8  C   UNL     1       9.432   0.178  21.334  0.00  0.00    +0.005 A 
ATOM      9  C   UNL     1       8.590   1.195  21.766  0.00  0.00    +0.039 A 
ATOM     10  C   UNL     1       7.611   0.929  22.726  0.00  0.00    +0.138 A 
ATOM     11  F   UNL     1       6.825   1.942  23.116  0.00  0.00    -0.205 F 
ATOM     12  N   UNL     1       8.173  -2.670  23.275  0.00  0.00    -0.231 NA
ENDROOT
BRANCH   2  13
ATOM     13  C   UNL     1       5.360  -2.344  25.626  0.00  0.00    +0.051 A 
ATOM     14  C   UNL     1       4.062  -2.683  25.239  0.00  0.00    +0.026 A 
ATOM     15  C   UNL     1       3.153  -3.168  26.186  0.00  0.00    +0.002 A 
ATOM     16  C   UNL     1       3.525  -3.302  27.527  0.00  0.00    +0.000 A 
ATOM     17  C   UNL     1       4.800  -2.928  27.930  0.00  0.00    +0.002 A 
ATOM     18  C   UNL     1       5.713  -2.455  26.985  0.00  0.00    +0.026 A 
ENDBRANCH   2  13
BRANCH   1  19
ATOM     19  C   UNL     1       7.307  -4.496  24.617  0.00  0.00    +0.138 C 
BRANCH  19  20
ATOM     20  N   UNL     1       6.295  -5.271  23.882  0.00  0.00    -0.317 N 
ATOM     21  H   UNL     1       5.930  -4.885  23.015  0.00  0.00    +0.148 HD
ATOM     22  C   UNL     1       5.275  -5.868  24.627  0.00  0.00    +0.150 A 
ATOM     23  C   UNL     1       4.036  -6.223  24.052  0.00  0.00    +0.147 A 
ATOM     24  N   UNL     1       3.509  -6.066  22.784  0.00  0.00    -0.231 NA
ATOM     25  C   UNL     1       2.304  -6.595  22.851  0.00  0.00    +0.198 A 
ATOM     26  N   UNL     1       2.033  -7.095  24.094  0.00  0.00    -0.329 N 
ATOM     27  H   UNL     1       1.189  -7.556  24.398  0.00  0.00    +0.168 HD
ATOM     28  C   UNL     1       3.127  -6.858  24.880  0.00  0.00    +0.163 A 
ATOM     29  N   UNL     1       3.269  -7.189  26.169  0.00  0.00    -0.216 NA
ATOM     30  C   UNL     1       4.474  -6.799  26.621  0.00  0.00    +0.225 A 
ATOM     31  N   UNL     1       5.453  -6.158  25.945  0.00  0.00    -0.219 NA
ENDBRANCH  19  20
BRANCH  19  32
ATOM     32  C   UNL     1       8.700  -5.166  24.344  0.00  0.00    +0.027 C 
ATOM     33  C   UNL     1       9.749  -5.076  25.453  0.00  0.00    +0.006 C 
ENDBRANCH  19  32
ENDBRANCH   1  19
TORSDOF 4
ENDMDL
MODEL 4
REMARK VINA RESULT:      -7.2      3.279      7.420
REMARK  Name = 
REMARK  5 active torsions:
REMARK  status: ('A' for Active; 'I' for Inactive)
REMARK    1  A    between atoms: C_2  and  C_3
REMARK    2  A    between atoms: C_2  and  N_5
REMARK    3  A    between atoms: C_2  and  C_15
REMARK    4  A    between atoms: C_3  and  C_4
REMARK    5  A    between atoms: N_26  and  C_27
REMARK                            x       y       z     vdW  Elec       q    Type
REMARK                         _______ _______ _______ _____ _____    ______ ____
ROOT
ATOM      1  C   UNL     1       5.882  -2.114  25.002  0.00  0.00    +0.138 A 
ATOM      2  N   UNL     1       6.470  -2.814  23.954  0.00  0.00    -0.263 N 
ATOM      3  C   UNL     1       5.804  -3.912  23.359  0.00  0.00    +0.269 A 
ATOM      4  O   UNL     1       6.302  -4.664  22.522  0.00  0.00    -0.266 OA
ATOM      5  C   UNL     1       4.443  -4.207  23.829  0.00  0.00    +0.100 A 
ATOM      6  C   UNL     1       3.957  -3.434  24.867  0.00  0.00    +0.081 A 
ATOM      7  C   UNL     1       2.685  -3.692  25.393  0.00  0.00    +0.029 A 
ATOM      8  C   UNL     1       1.890  -4.706  24.865  0.00  0.00    +0.005 A 
ATOM      9  C   UNL     1       2.372  -5.468  23.809  0.00  0.00    +0.039 A 
ATOM     10  C   UNL     1       3.649  -5.223  23.298  0.00  0.00    +0.138 A 
ATOM     11  F   UNL     1       4.074  -5.987  22.282  0.00  0.00    -0.205 F 
ATOM     12  N   UNL     1       4.691  -2.404  25.428  0.00  0.00    -0.231 NA
ENDROOT
BRANCH   2  13
ATOM     13  C   UNL     1       7.763  -2.532  23.405  0.00  0.00    +0.051 A 
ATOM     14  C   UNL     1       7.931  -1.745  22.264  0.00  0.00    +0.026 A 
ATOM     15  C   UNL     1       9.210  -1.313  21.893  0.00  0.00    +0.002 A 
ATOM     16  C   UNL     1      10.330  -1.676  22.645  0.00  0.00    +0.000 A 
ATOM     17  C   UNL     1      10.180  -2.493  23.759  0.00  0.00    +0.002 A 
ATOM     18  C   UNL     1       8.903  -2.915  24.138  0.00  0.00    +0.026 A 
ENDBRANCH   2  13
BRANCH   1  19
ATOM     19  C   UNL     1       6.597  -0.942  25.762  0.00  0.00    +0.138 C 
BRANCH  19  20
ATOM     20  N   UNL     1       6.392   0.331  25.052  0.00  0.00    -0.317 N 
ATOM     21  H   UNL     1       5.612   0.399  24.403  0.00  0.00    +0.148 HD
ATOM     22  C   UNL     1       7.523   0.971  24.538  0.00  0.00    +0.150 A 
ATOM     23  C   UNL     1       7.441   1.901  23.481  0.00  0.00    +0.147 A 
ATOM     24  N   UNL     1       6.389   2.357  22.709  0.00  0.00    -0.231 NA
ATOM     25  C   UNL     1       6.931   3.221  21.875  0.00  0.00    +0.198 A 
ATOM     26  N   UNL     1       8.276   3.354  22.077  0.00  0.00    -0.329 N 
ATOM     27  H   UNL     1       8.915   3.956  21.580  0.00  0.00    +0.168 HD
ATOM     28  C   UNL     1       8.624   2.510  23.096  0.00  0.00    +0.163 A 
ATOM     29  N   UNL     1       9.850   2.334  23.604  0.00  0.00    -0.216 NA
ATOM     30  C   UNL     1       9.820   1.424  24.594  0.00  0.00    +0.225 A 
ATOM     31  N   UNL     1       8.756   0.738  25.065  0.00  0.00    -0.219 NA
ENDBRANCH  19  20
BRANCH  19  32
ATOM     32  C   UNL     1       6.038  -0.762  27.217  0.00  0.00    +0.027 C 
ATOM     33  C   UNL     1       5.320   0.551  27.532  0.00  0.00    +0.006 C 
ENDBRANCH  19  32
ENDBRANCH   1  19
TORSDOF 4
ENDMDL
MODEL 5
REMARK VINA RESULT:      -7.2      2.180      4.072
REMARK  Name = 
REMARK  5 active torsions:
REMARK  status: ('A' for Active; 'I' for Inactive)
REMARK    1  A    between atoms: C_2  and  C_3
REMARK    2  A    between atoms: C_2  and  N_5
REMARK    3  A    between atoms: C_2  and  C_15
REMARK    4  A    between atoms: C_3  and  C_4
REMARK    5  A    between atoms: N_26  and  C_27
REMARK                            x       y       z     vdW  Elec       q    Type
REMARK                         _______ _______ _______ _____ _____    ______ ____
ROOT
ATOM      1  C   UNL     1       6.466  -1.811  25.244  0.00  0.00    +0.138 A 
ATOM      2  N   UNL     1       6.823  -2.667  24.207  0.00  0.00    -0.263 N 
ATOM      3  C   UNL     1       7.928  -2.367  23.375  0.00  0.00    +0.269 A 
ATOM      4  O   UNL     1       8.233  -2.995  22.363  0.00  0.00    -0.266 OA
ATOM      5  C   UNL     1       8.725  -1.181  23.718  0.00  0.00    +0.100 A 
ATOM      6  C   UNL     1       8.283  -0.414  24.779  0.00  0.00    +0.081 A 
ATOM      7  C   UNL     1       8.969   0.755  25.131  0.00  0.00    +0.029 A 
ATOM      8  C   UNL     1      10.113   1.143  24.437  0.00  0.00    +0.005 A 
ATOM      9  C   UNL     1      10.568   0.359  23.384  0.00  0.00    +0.039 A 
ATOM     10  C   UNL     1       9.870  -0.796  23.022  0.00  0.00    +0.138 A 
ATOM     11  F   UNL     1      10.344  -1.517  21.997  0.00  0.00    -0.205 F 
ATOM     12  N   UNL     1       7.161  -0.749  25.517  0.00  0.00    -0.231 NA
ENDROOT
BRANCH   2  13
ATOM     13  C   UNL     1       6.129  -3.873  23.866  0.00  0.00    +0.051 A 
ATOM     14  C   UNL     1       6.528  -5.121  24.347  0.00  0.00    +0.026 A 
ATOM     15  C   UNL     1       5.699  -6.236  24.174  0.00  0.00    +0.002 A 
ATOM     16  C   UNL     1       4.477  -6.118  23.505  0.00  0.00    +0.000 A 
ATOM     17  C   UNL     1       4.090  -4.889  22.985  0.00  0.00    +0.002 A 
ATOM     18  C   UNL     1       4.910  -3.773  23.168  0.00  0.00    +0.026 A 
ENDBRANCH   2  13
BRANCH   1  19
ATOM     19  C   UNL     1       5.205  -2.036  26.150  0.00  0.00    +0.138 C 
BRANCH  19  20
ATOM     20  N   UNL     1       5.518  -2.975  27.240  0.00  0.00    -0.317 N 
ATOM     21  H   UNL     1       6.492  -3.097  27.505  0.00  0.00    +0.148 HD
ATOM     22  C   UNL     1       4.845  -4.200  27.249  0.00  0.00    +0.150 A 
ATOM     23  C   UNL     1       5.356  -5.331  27.918  0.00  0.00    +0.147 A 
ATOM     24  N   UNL     1       6.525  -5.560  28.619  0.00  0.00    -0.231 NA
ATOM     25  C   UNL     1       6.443  -6.815  29.012  0.00  0.00    +0.198 A 
ATOM     26  N   UNL     1       5.276  -7.403  28.610  0.00  0.00    -0.329 N 
ATOM     27  H   UNL     1       4.972  -8.347  28.791  0.00  0.00    +0.168 HD
ATOM     28  C   UNL     1       4.570  -6.471  27.900  0.00  0.00    +0.163 A 
ATOM     29  N   UNL     1       3.372  -6.643  27.328  0.00  0.00    -0.216 NA
ATOM     30  C   UNL     1       2.982  -5.514  26.711  0.00  0.00    +0.225 A 
ATOM     31  N   UNL     1       3.641  -4.338  26.626  0.00  0.00    -0.219 NA
ENDBRANCH  19  20
BRANCH  19  32
ATOM     32  C   UNL     1       4.713  -0.700  26.810  0.00  0.00    +0.027 C 
ATOM     33  C   UNL     1       4.599  -0.674  28.335  0.00  0.00    +0.006 C 
ENDBRANCH  19  32
ENDBRANCH   1  19
TORSDOF 4
ENDMDL
MODEL 6
REMARK VINA RESULT:      -7.1      2.937      6.946
REMARK  Name = 
REMARK  5 active torsions:
REMARK  status: ('A' for Active; 'I' for Inactive)
REMARK    1  A    between atoms: C_2  and  C_3
REMARK    2  A    between atoms: C_2  and  N_5
REMARK    3  A    between atoms: C_2  and  C_15
REMARK    4  A    between atoms: C_3  and  C_4
REMARK    5  A    between atoms: N_26  and  C_27
REMARK                            x       y       z     vdW  Elec       q    Type
REMARK                         _______ _______ _______ _____ _____    ______ ____
ROOT
ATOM      1  C   UNL     1       6.497  -2.854  25.592  0.00  0.00    +0.138 A 
ATOM      2  N   UNL     1       5.463  -3.346  24.802  0.00  0.00    -0.263 N 
ATOM      3  C   UNL     1       4.113  -3.143  25.175  0.00  0.00    +0.269 A 
ATOM      4  O   UNL     1       3.146  -3.651  24.609  0.00  0.00    -0.266 OA
ATOM      5  C   UNL     1       3.861  -2.315  26.363  0.00  0.00    +0.100 A 
ATOM      6  C   UNL     1       4.967  -1.868  27.061  0.00  0.00    +0.081 A 
ATOM      7  C   UNL     1       4.798  -1.113  28.228  0.00  0.00    +0.029 A 
ATOM      8  C   UNL     1       3.524  -0.784  28.683  0.00  0.00    +0.005 A 
ATOM      9  C   UNL     1       2.414  -1.217  27.969  0.00  0.00    +0.039 A 
ATOM     10  C   UNL     1       2.584  -1.987  26.815  0.00  0.00    +0.138 A 
ATOM     11  F   UNL     1       1.484  -2.386  26.162  0.00  0.00    -0.205 F 
ATOM     12  N   UNL     1       6.260  -2.150  26.657  0.00  0.00    -0.231 NA
ENDROOT
BRANCH   2  13
ATOM     13  C   UNL     1       5.643  -4.100  23.597  0.00  0.00    +0.051 A 
ATOM     14  C   UNL     1       5.770  -3.486  22.349  0.00  0.00    +0.026 A 
ATOM     15  C   UNL     1       6.164  -4.239  21.235  0.00  0.00    +0.002 A 
ATOM     16  C   UNL     1       6.416  -5.608  21.355  0.00  0.00    +0.000 A 
ATOM     17  C   UNL     1       6.252  -6.237  22.583  0.00  0.00    +0.002 A 
ATOM     18  C   UNL     1       5.871  -5.486  23.697  0.00  0.00    +0.026 A 
ENDBRANCH   2  13
BRANCH   1  19
ATOM     19  C   UNL     1       8.013  -3.113  25.285  0.00  0.00    +0.138 C 
BRANCH  19  20
ATOM     20  N   UNL     1       8.762  -1.846  25.290  0.00  0.00    -0.317 N 
ATOM     21  H   UNL     1       8.522  -1.148  25.989  0.00  0.00    +0.148 HD
ATOM     22  C   UNL     1       9.018  -1.243  24.056  0.00  0.00    +0.150 A 
ATOM     23  C   UNL     1       9.291   0.135  23.937  0.00  0.00    +0.147 A 
ATOM     24  N   UNL     1       9.333   1.168  24.855  0.00  0.00    -0.231 NA
ATOM     25  C   UNL     1       9.641   2.236  24.148  0.00  0.00    +0.198 A 
ATOM     26  N   UNL     1       9.811   1.943  22.824  0.00  0.00    -0.329 N 
ATOM     27  H   UNL     1      10.058   2.580  22.082  0.00  0.00    +0.168 HD
ATOM     28  C   UNL     1       9.583   0.603  22.667  0.00  0.00    +0.163 A 
ATOM     29  N   UNL     1       9.643  -0.088  21.522  0.00  0.00    -0.216 NA
ATOM     30  C   UNL     1       9.357  -1.383  21.743  0.00  0.00    +0.225 A 
ATOM     31  N   UNL     1       9.039  -1.981  22.911  0.00  0.00    -0.219 NA
ENDBRANCH  19  20
BRANCH  19  32
ATOM     32  C   UNL     1       8.674  -4.052  26.355  0.00  0.00    +0.027 C 
ATOM     33  C   UNL     1       7.837  -5.223  26.870  0.00  0.00    +0.006 C 
ENDBRANCH  19  32
ENDBRANCH   1  19
TORSDOF 4
ENDMDL
MODEL 7
REMARK VINA RESULT:      -7.0      3.869      7.700
REMARK  Name = 
REMARK  5 active torsions:
REMARK  status: ('A' for Active; 'I' for Inactive)
REMARK    1  A    between atoms: C_2  and  C_3
REMARK    2  A    between atoms: C_2  and  N_5
REMARK    3  A    between atoms: C_2  and  C_15
REMARK    4  A    between atoms: C_3  and  C_4
REMARK    5  A    between atoms: N_26  and  C_27
REMARK                            x       y       z     vdW  Elec       q    Type
REMARK                         _______ _______ _______ _____ _____    ______ ____
ROOT
ATOM      1  C   UNL     1       7.621  -0.659  25.966  0.00  0.00    +0.138 A 
ATOM      2  N   UNL     1       8.342  -0.985  24.822  0.00  0.00    -0.263 N 
ATOM      3  C   UNL     1       8.469  -2.334  24.412  0.00  0.00    +0.269 A 
ATOM      4  O   UNL     1       9.191  -2.722  23.494  0.00  0.00    -0.266 OA
ATOM      5  C   UNL     1       7.730  -3.343  25.184  0.00  0.00    +0.100 A 
ATOM      6  C   UNL     1       7.035  -2.899  26.293  0.00  0.00    +0.081 A 
ATOM      7  C   UNL     1       6.347  -3.814  27.098  0.00  0.00    +0.029 A 
ATOM      8  C   UNL     1       6.333  -5.170  26.781  0.00  0.00    +0.005 A 
ATOM      9  C   UNL     1       7.016  -5.612  25.654  0.00  0.00    +0.039 A 
ATOM     10  C   UNL     1       7.718  -4.700  24.862  0.00  0.00    +0.138 A 
ATOM     11  F   UNL     1       8.365  -5.173  23.788  0.00  0.00    -0.205 F 
ATOM     12  N   UNL     1       6.998  -1.564  26.656  0.00  0.00    -0.231 NA
ENDROOT
BRANCH   2  13
ATOM     13  C   UNL     1       9.026  -0.041  23.990  0.00  0.00    +0.051 A 
ATOM     14  C   UNL     1       8.475   0.436  22.798  0.00  0.00    +0.026 A 
ATOM     15  C   UNL     1       9.070   1.515  22.134  0.00  0.00    +0.002 A 
ATOM     16  C   UNL     1      10.227   2.113  22.641  0.00  0.00    +0.000 A 
ATOM     17  C   UNL     1      10.808   1.620  23.803  0.00  0.00    +0.002 A 
ATOM     18  C   UNL     1      10.208   0.551  24.474  0.00  0.00    +0.026 A 
ENDBRANCH   2  13
BRANCH   1  19
ATOM     19  C   UNL     1       7.510   0.803  26.525  0.00  0.00    +0.138 C 
BRANCH  19  20
ATOM     20  N   UNL     1       6.452   1.543  25.819  0.00  0.00    -0.317 N 
ATOM     21  H   UNL     1       5.737   1.011  25.328  0.00  0.00    +0.148 HD
ATOM     22  C   UNL     1       6.834   2.662  25.075  0.00  0.00    +0.150 A 
ATOM     23  C   UNL     1       6.047   3.165  24.019  0.00  0.00    +0.147 A 
ATOM     24  N   UNL     1       4.863   2.741  23.444  0.00  0.00    -0.231 NA
ATOM     25  C   UNL     1       4.618   3.616  22.491  0.00  0.00    +0.198 A 
ATOM     26  N   UNL     1       5.577   4.588  22.428  0.00  0.00    -0.329 N 
ATOM     27  H   UNL     1       5.613   5.373  21.795  0.00  0.00    +0.168 HD
ATOM     28  C   UNL     1       6.506   4.312  23.393  0.00  0.00    +0.163 A 
ATOM     29  N   UNL     1       7.610   5.018  23.664  0.00  0.00    -0.216 NA
ATOM     30  C   UNL     1       8.291   4.452  24.675  0.00  0.00    +0.225 A 
ATOM     31  N   UNL     1       7.983   3.333  25.366  0.00  0.00    -0.219 NA
ENDBRANCH  19  20
BRANCH  19  32
ATOM     32  C   UNL     1       7.153   0.818  28.053  0.00  0.00    +0.027 C 
ATOM     33  C   UNL     1       6.798   2.170  28.674  0.00  0.00    +0.006 C 
ENDBRANCH  19  32
ENDBRANCH   1  19
TORSDOF 4
ENDMDL
MODEL 8
REMARK VINA RESULT:      -7.0      4.283      7.468
REMARK  Name = 
REMARK  5 active torsions:
REMARK  status: ('A' for Active; 'I' for Inactive)
REMARK    1  A    between atoms: C_2  and  C_3
REMARK    2  A    between atoms: C_2  and  N_5
REMARK    3  A    between atoms: C_2  and  C_15
REMARK    4  A    between atoms: C_3  and  C_4
REMARK    5  A    between atoms: N_26  and  C_27
REMARK                            x       y       z     vdW  Elec       q    Type
REMARK                         _______ _______ _______ _____ _____    ______ ____
ROOT
ATOM      1  C   UNL     1       6.303  -0.663  24.551  0.00  0.00    +0.138 A 
ATOM      2  N   UNL     1       7.320  -0.909  23.633  0.00  0.00    -0.263 N 
ATOM      3  C   UNL     1       7.369  -2.133  22.924  0.00  0.00    +0.269 A 
ATOM      4  O   UNL     1       8.296  -2.485  22.197  0.00  0.00    -0.266 OA
ATOM      5  C   UNL     1       6.257  -3.072  23.129  0.00  0.00    +0.100 A 
ATOM      6  C   UNL     1       5.295  -2.714  24.055  0.00  0.00    +0.081 A 
ATOM      7  C   UNL     1       4.233  -3.583  24.331  0.00  0.00    +0.029 A 
ATOM      8  C   UNL     1       4.119  -4.800  23.662  0.00  0.00    +0.005 A 
ATOM      9  C   UNL     1       5.075  -5.150  22.717  0.00  0.00    +0.039 A 
ATOM     10  C   UNL     1       6.145  -4.290  22.457  0.00  0.00    +0.138 A 
ATOM     11  F   UNL     1       7.046  -4.671  21.541  0.00  0.00    -0.205 F 
ATOM     12  N   UNL     1       5.343  -1.515  24.744  0.00  0.00    -0.231 NA
ENDROOT
BRANCH   2  13
ATOM     13  C   UNL     1       8.392  -0.005  23.340  0.00  0.00    +0.051 A 
ATOM     14  C   UNL     1       8.368   0.840  22.228  0.00  0.00    +0.026 A 
ATOM     15  C   UNL     1       9.323   1.857  22.101  0.00  0.00    +0.002 A 
ATOM     16  C   UNL     1      10.317   2.025  23.069  0.00  0.00    +0.000 A 
ATOM     17  C   UNL     1      10.375   1.163  24.157  0.00  0.00    +0.002 A 
ATOM     18  C   UNL     1       9.416   0.156  24.292  0.00  0.00    +0.026 A 
ENDBRANCH   2  13
BRANCH   1  19
ATOM     19  C   UNL     1       6.234   0.634  25.431  0.00  0.00    +0.138 C 
BRANCH  19  20
ATOM     20  N   UNL     1       5.111   1.484  25.005  0.00  0.00    -0.317 N 
ATOM     21  H   UNL     1       4.265   1.031  24.668  0.00  0.00    +0.148 HD
ATOM     22  C   UNL     1       5.411   2.610  24.233  0.00  0.00    +0.150 A 
ATOM     23  C   UNL     1       4.455   3.221  23.396  0.00  0.00    +0.147 A 
ATOM     24  N   UNL     1       3.143   2.914  23.087  0.00  0.00    -0.231 NA
ATOM     25  C   UNL     1       2.766   3.853  22.242  0.00  0.00    +0.198 A 
ATOM     26  N   UNL     1       3.764   4.754  22.000  0.00  0.00    -0.329 N 
ATOM     27  H   UNL     1       3.725   5.566  21.403  0.00  0.00    +0.168 HD
ATOM     28  C   UNL     1       4.857   4.363  22.724  0.00  0.00    +0.163 A 
ATOM     29  N   UNL     1       6.047   4.973  22.766  0.00  0.00    -0.216 NA
ATOM     30  C   UNL     1       6.885   4.307  23.579  0.00  0.00    +0.225 A 
ATOM     31  N   UNL     1       6.646   3.179  24.283  0.00  0.00    -0.219 NA
ENDBRANCH  19  20
BRANCH  19  32
ATOM     32  C   UNL     1       6.018   0.299  26.949  0.00  0.00    +0.027 C 
ATOM     33  C   UNL     1       7.133   0.695  27.918  0.00  0.00    +0.006 C 
ENDBRANCH  19  32
ENDBRANCH   1  19
TORSDOF 4
ENDMDL
MODEL 9
REMARK VINA RESULT:      -6.9      3.353      5.164
REMARK  Name = 
REMARK  5 active torsions:
REMARK  status: ('A' for Active; 'I' for Inactive)
REMARK    1  A    between atoms: C_2  and  C_3
REMARK    2  A    between atoms: C_2  and  N_5
REMARK    3  A    between atoms: C_2  and  C_15
REMARK    4  A    between atoms: C_3  and  C_4
REMARK    5  A    between atoms: N_26  and  C_27
REMARK                            x       y       z     vdW  Elec       q    Type
REMARK                         _______ _______ _______ _____ _____    ______ ____
ROOT
ATOM      1  C   UNL     1       7.721   0.635  23.862  0.00  0.00    +0.138 A 
ATOM      2  N   UNL     1       6.513   0.419  24.518  0.00  0.00    -0.263 N 
ATOM      3  C   UNL     1       5.543   1.446  24.597  0.00  0.00    +0.269 A 
ATOM      4  O   UNL     1       4.512   1.385  25.264  0.00  0.00    -0.266 OA
ATOM      5  C   UNL     1       5.828   2.696  23.880  0.00  0.00    +0.100 A 
ATOM      6  C   UNL     1       7.055   2.792  23.250  0.00  0.00    +0.081 A 
ATOM      7  C   UNL     1       7.409   3.973  22.586  0.00  0.00    +0.029 A 
ATOM      8  C   UNL     1       6.526   5.049  22.531  0.00  0.00    +0.005 A 
ATOM      9  C   UNL     1       5.286   4.943  23.147  0.00  0.00    +0.039 A 
ATOM     10  C   UNL     1       4.942   3.772  23.825  0.00  0.00    +0.138 A 
ATOM     11  F   UNL     1       3.736   3.717  24.408  0.00  0.00    -0.205 F 
ATOM     12  N   UNL     1       7.973   1.756  23.257  0.00  0.00    -0.231 NA
ENDROOT
BRANCH   2  13
ATOM     13  C   UNL     1       6.148  -0.800  25.177  0.00  0.00    +0.051 A 
ATOM     14  C   UNL     1       5.344  -1.764  24.565  0.00  0.00    +0.026 A 
ATOM     15  C   UNL     1       5.196  -3.027  25.150  0.00  0.00    +0.002 A 
ATOM     16  C   UNL     1       5.832  -3.331  26.357  0.00  0.00    +0.000 A 
ATOM     17  C   UNL     1       6.600  -2.366  26.996  0.00  0.00    +0.002 A 
ATOM     18  C   UNL     1       6.760  -1.110  26.407  0.00  0.00    +0.026 A 
ENDBRANCH   2  13
BRANCH   1  19
ATOM     19  C   UNL     1       8.873  -0.428  23.807  0.00  0.00    +0.138 C 
BRANCH  19  20
ATOM     20  N   UNL     1       8.525  -1.515  22.878  0.00  0.00    -0.317 N 
ATOM     21  H   UNL     1       7.744  -1.373  22.242  0.00  0.00    +0.148 HD
ATOM     22  C   UNL     1       8.524  -2.818  23.382  0.00  0.00    +0.150 A 
ATOM     23  C   UNL     1       7.789  -3.856  22.772  0.00  0.00    +0.147 A 
ATOM     24  N   UNL     1       6.934  -3.891  21.687  0.00  0.00    -0.231 NA
ATOM     25  C   UNL     1       6.549  -5.148  21.600  0.00  0.00    +0.198 A 
ATOM     26  N   UNL     1       7.120  -5.927  22.567  0.00  0.00    -0.329 N 
ATOM     27  H   UNL     1       6.996  -6.918  22.709  0.00  0.00    +0.168 HD
ATOM     28  C   UNL     1       7.912  -5.116  23.334  0.00  0.00    +0.163 A 
ATOM     29  N   UNL     1       8.647  -5.485  24.389  0.00  0.00    -0.216 NA
ATOM     30  C   UNL     1       9.296  -4.424  24.901  0.00  0.00    +0.225 A 
ATOM     31  N   UNL     1       9.263  -3.142  24.479  0.00  0.00    -0.219 NA
ENDBRANCH  19  20
BRANCH  19  32
ATOM     32  C   UNL     1      10.224   0.199  23.309  0.00  0.00    +0.027 C 
ATOM     33  C   UNL     1      11.136   0.822  24.366  0.00  0.00    +0.006 C 
ENDBRANCH  19  32
ENDBRANCH   1  19
TORSDOF 4
ENDMDL
