MODEL 1
REMARK VINA RESULT:      -7.3      0.000      0.000
REMARK  Name = 
REMARK  6 active torsions:
REMARK  status: ('A' for Active; 'I' for Inactive)
REMARK    1  A    between atoms: CA_2  and  CB_3
REMARK    2  A    between atoms: CB_3  and  CG_4
REMARK    3  A    between atoms: CZ_7  and  OH_8
REMARK    4  A    between atoms: CA_14  and  CB_16
REMARK    5  A    between atoms: CB_16  and  CG_17
REMARK    6  A    between atoms: CZ_20  and  OH_21
REMARK                            x       y       z     vdW  Elec       q    Type
REMARK                         _______ _______ _______ _____ _____    ______ ____
ROOT
ATOM      1  CA  TYR A   2       6.491  -4.095  26.331  0.00  0.00    +0.163 C 
ATOM      2  C   TYR A   2       7.985  -4.149  26.699  0.00  0.00    +0.234 C 
ATOM      3  O   TYR A   2       8.547  -5.132  27.171  0.00  0.00    -0.274 OA
ATOM      4  N   TYR A   1       8.612  -2.924  26.708  0.00  0.00    -0.302 N 
ATOM      5  H   TYR A   1       9.575  -2.980  27.022  0.00  0.00    +0.150 HD
ATOM      6  CA  TYR A   1       8.353  -1.966  25.630  0.00  0.00    +0.163 C 
ATOM      7  C   TYR A   1       6.850  -1.845  25.362  0.00  0.00    +0.234 C 
ATOM      8  O   TYR A   1       6.320  -0.828  24.923  0.00  0.00    -0.274 OA
ATOM      9  N   TYR A   2       6.167  -3.039  25.366  0.00  0.00    -0.302 N 
ATOM     10  H   TYR A   2       5.180  -2.904  25.176  0.00  0.00    +0.150 HD
ENDROOT
BRANCH   6  11
ATOM     11  CB  TYR A   1       9.046  -2.359  24.308  0.00  0.00    +0.067 C 
BRANCH  11  12
ATOM     12  CG  TYR A   1       9.515  -1.142  23.544  0.00  0.00    -0.045 A 
ATOM     13  CD2 TYR A   1       9.269  -1.027  22.170  0.00  0.00    +0.007 A 
ATOM     14  CE2 TYR A   1       9.561   0.163  21.504  0.00  0.00    +0.045 A 
ATOM     15  CZ  TYR A   1      10.086   1.238  22.212  0.00  0.00    +0.117 A 
ATOM     16  CE1 TYR A   1      10.380   1.128  23.565  0.00  0.00    +0.045 A 
ATOM     17  CD1 TYR A   1      10.104  -0.067  24.228  0.00  0.00    +0.007 A 
BRANCH  15  18
ATOM     18  OH  TYR A   1      10.282   2.407  21.539  0.00  0.00    -0.507 OA
ATOM     19  HH  TYR A   1      10.023   2.272  20.611  0.00  0.00    +0.292 HD
ENDBRANCH  15  18
ENDBRANCH  11  12
ENDBRANCH   6  11
BRANCH   1  20
ATOM     20  CB  TYR A   2       6.027  -5.477  25.838  0.00  0.00    +0.067 C 
BRANCH  20  21
ATOM     21  CG  TYR A   2       6.051  -5.576  24.328  0.00  0.00    -0.045 A 
ATOM     22  CD2 TYR A   2       4.859  -5.766  23.617  0.00  0.00    +0.007 A 
ATOM     23  CE2 TYR A   2       4.865  -5.763  22.222  0.00  0.00    +0.045 A 
ATOM     24  CZ  TYR A   2       6.057  -5.562  21.538  0.00  0.00    +0.117 A 
ATOM     25  CE1 TYR A   2       7.254  -5.396  22.225  0.00  0.00    +0.045 A 
ATOM     26  CD1 TYR A   2       7.251  -5.411  23.621  0.00  0.00    +0.007 A 
BRANCH  24  27
ATOM     27  OH  TYR A   2       6.011  -5.524  20.176  0.00  0.00    -0.507 OA
ATOM     28  HH  TYR A   2       6.913  -5.397  19.840  0.00  0.00    +0.292 HD
ENDBRANCH  24  27
ENDBRANCH  20  21
ENDBRANCH   1  20
TORSDOF 6
ENDMDL
MODEL 2
REMARK VINA RESULT:      -7.3      2.362      3.468
REMARK  Name = 
REMARK  6 active torsions:
REMARK  status: ('A' for Active; 'I' for Inactive)
REMARK    1  A    between atoms: CA_2  and  CB_3
REMARK    2  A    between atoms: CB_3  and  CG_4
REMARK    3  A    between atoms: CZ_7  and  OH_8
REMARK    4  A    between atoms: CA_14  and  CB_16
REMARK    5  A    between atoms: CB_16  and  CG_17
REMARK    6  A    between atoms: CZ_20  and  OH_21
REMARK                            x       y       z     vdW  Elec       q    Type
REMARK                         _______ _______ _______ _____ _____    ______ ____
ROOT
ATOM      1  CA  TYR A   2       7.604  -3.024  24.011  0.00  0.00    +0.163 C 
ATOM      2  C   TYR A   2       6.834  -1.694  24.117  0.00  0.00    +0.234 C 
ATOM      3  O   TYR A   2       5.733  -1.572  24.646  0.00  0.00    -0.274 OA
ATOM      4  N   TYR A   1       7.345  -0.679  23.342  0.00  0.00    -0.302 N 
ATOM      5  H   TYR A   1       6.778   0.162  23.376  0.00  0.00    +0.150 HD
ATOM      6  CA  TYR A   1       8.793  -0.464  23.286  0.00  0.00    +0.163 C 
ATOM      7  C   TYR A   1       9.530  -1.788  23.064  0.00  0.00    +0.234 C 
ATOM      8  O   TYR A   1      10.615  -1.872  22.496  0.00  0.00    -0.274 OA
ATOM      9  N   TYR A   2       9.045  -2.846  23.797  0.00  0.00    -0.302 N 
ATOM     10  H   TYR A   2       9.571  -3.695  23.620  0.00  0.00    +0.150 HD
ENDROOT
BRANCH   6  11
ATOM     11  CB  TYR A   1       9.346   0.183  24.574  0.00  0.00    +0.067 C 
BRANCH  11  12
ATOM     12  CG  TYR A   1       9.627   1.656  24.379  0.00  0.00    -0.045 A 
ATOM     13  CD2 TYR A   1      10.758   2.076  23.668  0.00  0.00    +0.007 A 
ATOM     14  CE2 TYR A   1      10.927   3.424  23.355  0.00  0.00    +0.045 A 
ATOM     15  CZ  TYR A   1       9.963   4.348  23.743  0.00  0.00    +0.117 A 
ATOM     16  CE1 TYR A   1       8.858   3.957  24.490  0.00  0.00    +0.045 A 
ATOM     17  CD1 TYR A   1       8.697   2.612  24.817  0.00  0.00    +0.007 A 
BRANCH  15  18
ATOM     18  OH  TYR A   1      10.128   5.642  23.348  0.00  0.00    -0.507 OA
ATOM     19  HH  TYR A   1      10.611   5.644  22.505  0.00  0.00    +0.292 HD
ENDBRANCH  15  18
ENDBRANCH  11  12
ENDBRANCH   6  11
BRANCH   1  20
ATOM     20  CB  TYR A   2       7.316  -3.892  25.249  0.00  0.00    +0.067 C 
BRANCH  20  21
ATOM     21  CG  TYR A   2       6.361  -5.023  24.937  0.00  0.00    -0.045 A 
ATOM     22  CD2 TYR A   2       5.762  -5.745  25.977  0.00  0.00    +0.007 A 
ATOM     23  CE2 TYR A   2       4.810  -6.725  25.695  0.00  0.00    +0.045 A 
ATOM     24  CZ  TYR A   2       4.451  -6.979  24.377  0.00  0.00    +0.117 A 
ATOM     25  CE1 TYR A   2       5.053  -6.291  23.330  0.00  0.00    +0.045 A 
ATOM     26  CD1 TYR A   2       6.014  -5.319  23.610  0.00  0.00    +0.007 A 
BRANCH  24  27
ATOM     27  OH  TYR A   2       3.487  -7.914  24.150  0.00  0.00    -0.507 OA
ATOM     28  HH  TYR A   2       3.883  -8.796  24.243  0.00  0.00    +0.292 HD
ENDBRANCH  24  27
ENDBRANCH  20  21
ENDBRANCH   1  20
TORSDOF 6
ENDMDL
MODEL 3
REMARK VINA RESULT:      -7.2      3.151      8.299
REMARK  Name = 
REMARK  6 active torsions:
REMARK  status: ('A' for Active; 'I' for Inactive)
REMARK    1  A    between atoms: CA_2  and  CB_3
REMARK    2  A    between atoms: CB_3  and  CG_4
REMARK    3  A    between atoms: CZ_7  and  OH_8
REMARK    4  A    between atoms: CA_14  and  CB_16
REMARK    5  A    between atoms: CB_16  and  CG_17
REMARK    6  A    between atoms: CZ_20  and  OH_21
REMARK                            x       y       z     vdW  Elec       q    Type
REMARK                         _______ _______ _______ _____ _____    ______ ____
ROOT
ATOM      1  CA  TYR A   2       9.587   1.503  23.797  0.00  0.00    +0.163 C 
ATOM      2  C   TYR A   2       8.601   0.935  24.834  0.00  0.00    +0.234 C 
ATOM      3  O   TYR A   2       7.940   1.621  25.608  0.00  0.00    -0.274 OA
ATOM      4  N   TYR A   1       8.697  -0.424  25.024  0.00  0.00    -0.302 N 
ATOM      5  H   TYR A   1       8.087  -0.760  25.762  0.00  0.00    +0.150 HD
ATOM      6  CA  TYR A   1       8.838  -1.312  23.867  0.00  0.00    +0.163 C 
ATOM      7  C   TYR A   1       9.907  -0.786  22.906  0.00  0.00    +0.234 C 
ATOM      8  O   TYR A   1      10.574  -1.510  22.173  0.00  0.00    -0.274 OA
ATOM      9  N   TYR A   2       9.874   0.574  22.698  0.00  0.00    -0.302 N 
ATOM     10  H   TYR A   2      10.596   0.869  22.049  0.00  0.00    +0.150 HD
ENDROOT
BRANCH   6  11
ATOM     11  CB  TYR A   1       7.520  -1.472  23.079  0.00  0.00    +0.067 C 
BRANCH  11  12
ATOM     12  CG  TYR A   1       7.144  -2.926  22.914  0.00  0.00    -0.045 A 
ATOM     13  CD2 TYR A   1       6.077  -3.295  22.085  0.00  0.00    +0.007 A 
ATOM     14  CE2 TYR A   1       5.836  -4.641  21.812  0.00  0.00    +0.045 A 
ATOM     15  CZ  TYR A   1       6.666  -5.615  22.357  0.00  0.00    +0.117 A 
ATOM     16  CE1 TYR A   1       7.700  -5.271  23.219  0.00  0.00    +0.045 A 
ATOM     17  CD1 TYR A   1       7.932  -3.927  23.505  0.00  0.00    +0.007 A 
BRANCH  15  18
ATOM     18  OH  TYR A   1       6.444  -6.912  22.001  0.00  0.00    -0.507 OA
ATOM     19  HH  TYR A   1       6.326  -7.435  22.812  0.00  0.00    +0.292 HD
ENDBRANCH  15  18
ENDBRANCH  11  12
ENDBRANCH   6  11
BRANCH   1  20
ATOM     20  CB  TYR A   2       9.072   2.856  23.276  0.00  0.00    +0.067 C 
BRANCH  20  21
ATOM     21  CG  TYR A   2      10.069   3.970  23.512  0.00  0.00    -0.045 A 
ATOM     22  CD2 TYR A   2       9.658   5.166  24.113  0.00  0.00    +0.007 A 
ATOM     23  CE2 TYR A   2      10.591   6.156  24.419  0.00  0.00    +0.045 A 
ATOM     24  CZ  TYR A   2      11.935   5.950  24.132  0.00  0.00    +0.117 A 
ATOM     25  CE1 TYR A   2      12.360   4.780  23.513  0.00  0.00    +0.045 A 
ATOM     26  CD1 TYR A   2      11.425   3.793  23.196  0.00  0.00    +0.007 A 
BRANCH  24  27
ATOM     27  OH  TYR A   2      12.818   6.926  24.486  0.00  0.00    -0.507 OA
ATOM     28  HH  TYR A   2      13.513   6.529  25.037  0.00  0.00    +0.292 HD
ENDBRANCH  24  27
ENDBRANCH  20  21
ENDBRANCH   1  20
TORSDOF 6
ENDMDL
MODEL 4
REMARK VINA RESULT:      -7.0      2.413      7.734
REMARK  Name = 
REMARK  6 active torsions:
REMARK  status: ('A' for Active; 'I' for Inactive)
REMARK    1  A    between atoms: CA_2  and  CB_3
REMARK    2  A    between atoms: CB_3  and  CG_4
REMARK    3  A    between atoms: CZ_7  and  OH_8
REMARK    4  A    between atoms: CA_14  and  CB_16
REMARK    5  A    between atoms: CB_16  and  CG_17
REMARK    6  A    between atoms: CZ_20  and  OH_21
REMARK                            x       y       z     vdW  Elec       q    Type
REMARK                         _______ _______ _______ _____ _____    ______ ____
ROOT
ATOM      1  CA  TYR A   2       8.520  -0.669  23.751  0.00  0.00    +0.163 C 
ATOM      2  C   TYR A   2       9.104  -1.821  22.912  0.00  0.00    +0.234 C 
ATOM      3  O   TYR A   2      10.247  -1.841  22.465  0.00  0.00    -0.274 OA
ATOM      4  N   TYR A   1       8.171  -2.729  22.468  0.00  0.00    -0.302 N 
ATOM      5  H   TYR A   1       8.573  -3.436  21.860  0.00  0.00    +0.150 HD
ATOM      6  CA  TYR A   1       7.121  -3.197  23.375  0.00  0.00    +0.163 C 
ATOM      7  C   TYR A   1       6.476  -2.020  24.113  0.00  0.00    +0.234 C 
ATOM      8  O   TYR A   1       5.316  -2.025  24.512  0.00  0.00    -0.274 OA
ATOM      9  N   TYR A   2       7.362  -1.067  24.559  0.00  0.00    -0.302 N 
ATOM     10  H   TYR A   2       6.886  -0.315  25.046  0.00  0.00    +0.150 HD
ENDROOT
BRANCH   6  11
ATOM     11  CB  TYR A   1       7.650  -4.193  24.430  0.00  0.00    +0.067 C 
BRANCH  11  12
ATOM     12  CG  TYR A   1       6.614  -5.238  24.776  0.00  0.00    -0.045 A 
ATOM     13  CD2 TYR A   1       6.374  -5.587  26.111  0.00  0.00    +0.007 A 
ATOM     14  CE2 TYR A   1       5.312  -6.430  26.434  0.00  0.00    +0.045 A 
ATOM     15  CZ  TYR A   1       4.485  -6.914  25.426  0.00  0.00    +0.117 A 
ATOM     16  CE1 TYR A   1       4.735  -6.617  24.092  0.00  0.00    +0.045 A 
ATOM     17  CD1 TYR A   1       5.806  -5.787  23.767  0.00  0.00    +0.007 A 
BRANCH  15  18
ATOM     18  OH  TYR A   1       3.412  -7.670  25.793  0.00  0.00    -0.507 OA
ATOM     19  HH  TYR A   1       2.915  -7.904  24.991  0.00  0.00    +0.292 HD
ENDBRANCH  15  18
ENDBRANCH  11  12
ENDBRANCH   6  11
BRANCH   1  20
ATOM     20  CB  TYR A   2       9.628  -0.042  24.616  0.00  0.00    +0.067 C 
BRANCH  20  21
ATOM     21  CG  TYR A   2       9.762   1.446  24.371  0.00  0.00    -0.045 A 
ATOM     22  CD2 TYR A   2      10.880   1.949  23.693  0.00  0.00    +0.007 A 
ATOM     23  CE2 TYR A   2      10.961   3.306  23.383  0.00  0.00    +0.045 A 
ATOM     24  CZ  TYR A   2       9.926   4.159  23.743  0.00  0.00    +0.117 A 
ATOM     25  CE1 TYR A   2       8.820   3.684  24.438  0.00  0.00    +0.045 A 
ATOM     26  CD1 TYR A   2       8.743   2.328  24.760  0.00  0.00    +0.007 A 
BRANCH  24  27
ATOM     27  OH  TYR A   2      10.027   5.470  23.383  0.00  0.00    -0.507 OA
ATOM     28  HH  TYR A   2       9.169   5.899  23.534  0.00  0.00    +0.292 HD
ENDBRANCH  24  27
ENDBRANCH  20  21
ENDBRANCH   1  20
TORSDOF 6
ENDMDL
MODEL 5
REMARK VINA RESULT:      -6.8      2.549      7.495
REMARK  Name = 
REMARK  6 active torsions:
REMARK  status: ('A' for Active; 'I' for Inactive)
REMARK    1  A    between atoms: CA_2  and  CB_3
REMARK    2  A    between atoms: CB_3  and  CG_4
REMARK    3  A    between atoms: CZ_7  and  OH_8
REMARK    4  A    between atoms: CA_14  and  CB_16
REMARK    5  A    between atoms: CB_16  and  CG_17
REMARK    6  A    between atoms: CZ_20  and  OH_21
REMARK                            x       y       z     vdW  Elec       q    Type
REMARK                         _______ _______ _______ _____ _____    ______ ____
ROOT
ATOM      1  CA  TYR A   2       8.362  -3.033  23.955  0.00  0.00    +0.163 C 
ATOM      2  C   TYR A   2       8.808  -4.453  24.349  0.00  0.00    +0.234 C 
ATOM      3  O   TYR A   2       9.938  -4.743  24.729  0.00  0.00    -0.274 OA
ATOM      4  N   TYR A   1       7.919  -5.444  24.000  0.00  0.00    -0.302 N 
ATOM      5  H   TYR A   1       8.270  -6.373  24.207  0.00  0.00    +0.150 HD
ATOM      6  CA  TYR A   1       6.485  -5.245  24.219  0.00  0.00    +0.163 C 
ATOM      7  C   TYR A   1       6.044  -3.869  23.712  0.00  0.00    +0.234 C 
ATOM      8  O   TYR A   1       4.911  -3.628  23.305  0.00  0.00    -0.274 OA
ATOM      9  N   TYR A   2       6.909  -2.842  24.012  0.00  0.00    -0.302 N 
ATOM     10  H   TYR A   2       6.568  -1.954  23.662  0.00  0.00    +0.150 HD
ENDROOT
BRANCH   6  11
ATOM     11  CB  TYR A   1       6.090  -5.358  25.707  0.00  0.00    +0.067 C 
BRANCH  11  12
ATOM     12  CG  TYR A   1       4.834  -6.178  25.889  0.00  0.00    -0.045 A 
ATOM     13  CD2 TYR A   1       4.079  -6.071  27.063  0.00  0.00    +0.007 A 
ATOM     14  CE2 TYR A   1       2.841  -6.706  27.160  0.00  0.00    +0.045 A 
ATOM     15  CZ  TYR A   1       2.355  -7.437  26.081  0.00  0.00    +0.117 A 
ATOM     16  CE1 TYR A   1       3.110  -7.592  24.925  0.00  0.00    +0.045 A 
ATOM     17  CD1 TYR A   1       4.355  -6.971  24.834  0.00  0.00    +0.007 A 
BRANCH  15  18
ATOM     18  OH  TYR A   1       1.107  -7.975  26.188  0.00  0.00    -0.507 OA
ATOM     19  HH  TYR A   1       0.457  -7.262  26.072  0.00  0.00    +0.292 HD
ENDBRANCH  15  18
ENDBRANCH  11  12
ENDBRANCH   6  11
BRANCH   1  20
ATOM     20  CB  TYR A   2       9.105  -1.997  24.816  0.00  0.00    +0.067 C 
BRANCH  20  21
ATOM     21  CG  TYR A   2       9.564  -0.807  24.001  0.00  0.00    -0.045 A 
ATOM     22  CD2 TYR A   2       9.453  -0.826  22.605  0.00  0.00    +0.007 A 
ATOM     23  CE2 TYR A   2       9.786   0.304  21.859  0.00  0.00    +0.045 A 
ATOM     24  CZ  TYR A   2      10.221   1.454  22.504  0.00  0.00    +0.117 A 
ATOM     25  CE1 TYR A   2      10.362   1.485  23.887  0.00  0.00    +0.045 A 
ATOM     26  CD1 TYR A   2      10.040   0.351  24.635  0.00  0.00    +0.007 A 
BRANCH  24  27
ATOM     27  OH  TYR A   2      10.495   2.549  21.740  0.00  0.00    -0.507 OA
ATOM     28  HH  TYR A   2       9.666   3.029  21.580  0.00  0.00    +0.292 HD
ENDBRANCH  24  27
ENDBRANCH  20  21
ENDBRANCH   1  20
TORSDOF 6
ENDMDL
MODEL 6
REMARK VINA RESULT:      -6.8      1.932      7.300
REMARK  Name = 
REMARK  6 active torsions:
REMARK  status: ('A' for Active; 'I' for Inactive)
REMARK    1  A    between atoms: CA_2  and  CB_3
REMARK    2  A    between atoms: CB_3  and  CG_4
REMARK    3  A    between atoms: CZ_7  and  OH_8
REMARK    4  A    between atoms: CA_14  and  CB_16
REMARK    5  A    between atoms: CB_16  and  CG_17
REMARK    6  A    between atoms: CZ_20  and  OH_21
REMARK                            x       y       z     vdW  Elec       q    Type
REMARK                         _______ _______ _______ _____ _____    ______ ____
ROOT
ATOM      1  CA  TYR A   2       9.143  -2.205  24.100  0.00  0.00    +0.163 C 
ATOM      2  C   TYR A   2       7.609  -2.179  24.240  0.00  0.00    +0.234 C 
ATOM      3  O   TYR A   2       6.885  -1.313  23.757  0.00  0.00    -0.274 OA
ATOM      4  N   TYR A   1       7.109  -3.057  25.174  0.00  0.00    -0.302 N 
ATOM      5  H   TYR A   1       6.106  -2.967  25.296  0.00  0.00    +0.150 HD
ATOM      6  CA  TYR A   1       7.636  -4.422  25.245  0.00  0.00    +0.163 C 
ATOM      7  C   TYR A   1       9.167  -4.414  25.220  0.00  0.00    +0.234 C 
ATOM      8  O   TYR A   1       9.857  -5.281  25.749  0.00  0.00    -0.274 OA
ATOM      9  N   TYR A   2       9.724  -3.535  24.321  0.00  0.00    -0.302 N 
ATOM     10  H   TYR A   2      10.737  -3.574  24.339  0.00  0.00    +0.150 HD
ENDROOT
BRANCH   6  11
ATOM     11  CB  TYR A   1       7.142  -5.309  24.082  0.00  0.00    +0.067 C 
BRANCH  11  12
ATOM     12  CG  TYR A   1       5.658  -5.577  24.180  0.00  0.00    -0.045 A 
ATOM     13  CD2 TYR A   1       5.124  -6.221  25.304  0.00  0.00    +0.007 A 
ATOM     14  CE2 TYR A   1       3.742  -6.322  25.462  0.00  0.00    +0.045 A 
ATOM     15  CZ  TYR A   1       2.897  -5.773  24.504  0.00  0.00    +0.117 A 
ATOM     16  CE1 TYR A   1       3.407  -5.172  23.360  0.00  0.00    +0.045 A 
ATOM     17  CD1 TYR A   1       4.788  -5.084  23.194  0.00  0.00    +0.007 A 
BRANCH  15  18
ATOM     18  OH  TYR A   1       1.555  -5.824  24.737  0.00  0.00    -0.507 OA
ATOM     19  HH  TYR A   1       1.157  -4.998  24.413  0.00  0.00    +0.292 HD
ENDBRANCH  15  18
ENDBRANCH  11  12
ENDBRANCH   6  11
BRANCH   1  20
ATOM     20  CB  TYR A   2       9.551  -1.627  22.734  0.00  0.00    +0.067 C 
BRANCH  20  21
ATOM     21  CG  TYR A   2       9.951  -0.171  22.833  0.00  0.00    -0.045 A 
ATOM     22  CD2 TYR A   2       9.700   0.702  21.767  0.00  0.00    +0.007 A 
ATOM     23  CE2 TYR A   2       9.982   2.062  21.891  0.00  0.00    +0.045 A 
ATOM     24  CZ  TYR A   2      10.505   2.553  23.080  0.00  0.00    +0.117 A 
ATOM     25  CE1 TYR A   2      10.785   1.699  24.141  0.00  0.00    +0.045 A 
ATOM     26  CD1 TYR A   2      10.515   0.336  24.014  0.00  0.00    +0.007 A 
BRANCH  24  27
ATOM     27  OH  TYR A   2      10.725   3.895  23.173  0.00  0.00    -0.507 OA
ATOM     28  HH  TYR A   2      11.204   4.185  22.380  0.00  0.00    +0.292 HD
ENDBRANCH  24  27
ENDBRANCH  20  21
ENDBRANCH   1  20
TORSDOF 6
ENDMDL
MODEL 7
REMARK VINA RESULT:      -6.8      2.361      3.436
REMARK  Name = 
REMARK  6 active torsions:
REMARK  status: ('A' for Active; 'I' for Inactive)
REMARK    1  A    between atoms: CA_2  and  CB_3
REMARK    2  A    between atoms: CB_3  and  CG_4
REMARK    3  A    between atoms: CZ_7  and  OH_8
REMARK    4  A    between atoms: CA_14  and  CB_16
REMARK    5  A    between atoms: CB_16  and  CG_17
REMARK    6  A    between atoms: CZ_20  and  OH_21
REMARK                            x       y       z     vdW  Elec       q    Type
REMARK                         _______ _______ _______ _____ _____    ______ ____
ROOT
ATOM      1  CA  TYR A   2       6.214  -4.930  23.975  0.00  0.00    +0.163 C 
ATOM      2  C   TYR A   2       6.312  -3.783  22.952  0.00  0.00    +0.234 C 
ATOM      3  O   TYR A   2       5.350  -3.296  22.365  0.00  0.00    -0.274 OA
ATOM      4  N   TYR A   1       7.592  -3.504  22.533  0.00  0.00    -0.302 N 
ATOM      5  H   TYR A   1       7.620  -2.795  21.807  0.00  0.00    +0.150 HD
ATOM      6  CA  TYR A   1       8.683  -3.453  23.509  0.00  0.00    +0.163 C 
ATOM      7  C   TYR A   1       8.632  -4.666  24.443  0.00  0.00    +0.234 C 
ATOM      8  O   TYR A   1       9.624  -5.147  24.982  0.00  0.00    -0.274 OA
ATOM      9  N   TYR A   2       7.371  -5.006  24.875  0.00  0.00    -0.302 N 
ATOM     10  H   TYR A   2       7.393  -5.809  25.495  0.00  0.00    +0.150 HD
ENDROOT
BRANCH   6  11
ATOM     11  CB  TYR A   1       8.643  -2.177  24.377  0.00  0.00    +0.067 C 
BRANCH  11  12
ATOM     12  CG  TYR A   1       9.241  -0.994  23.652  0.00  0.00    -0.045 A 
ATOM     13  CD2 TYR A   1       9.189  -0.916  22.254  0.00  0.00    +0.007 A 
ATOM     14  CE2 TYR A   1       9.597   0.247  21.602  0.00  0.00    +0.045 A 
ATOM     15  CZ  TYR A   1      10.047   1.333  22.346  0.00  0.00    +0.117 A 
ATOM     16  CE1 TYR A   1      10.150   1.257  23.730  0.00  0.00    +0.045 A 
ATOM     17  CD1 TYR A   1       9.757   0.090  24.381  0.00  0.00    +0.007 A 
BRANCH  15  18
ATOM     18  OH  TYR A   1      10.361   2.477  21.675  0.00  0.00    -0.507 OA
ATOM     19  HH  TYR A   1      11.287   2.699  21.867  0.00  0.00    +0.292 HD
ENDBRANCH  15  18
ENDBRANCH  11  12
ENDBRANCH   6  11
BRANCH   1  20
ATOM     20  CB  TYR A   2       4.893  -4.818  24.757  0.00  0.00    +0.067 C 
BRANCH  20  21
ATOM     21  CG  TYR A   2       3.918  -5.911  24.378  0.00  0.00    -0.045 A 
ATOM     22  CD2 TYR A   2       3.843  -7.083  25.141  0.00  0.00    +0.007 A 
ATOM     23  CE2 TYR A   2       2.881  -8.050  24.852  0.00  0.00    +0.045 A 
ATOM     24  CZ  TYR A   2       1.989  -7.845  23.807  0.00  0.00    +0.117 A 
ATOM     25  CE1 TYR A   2       2.062  -6.700  23.022  0.00  0.00    +0.045 A 
ATOM     26  CD1 TYR A   2       3.033  -5.737  23.303  0.00  0.00    +0.007 A 
BRANCH  24  27
ATOM     27  OH  TYR A   2       1.037  -8.796  23.586  0.00  0.00    -0.507 OA
ATOM     28  HH  TYR A   2       0.248  -8.569  24.104  0.00  0.00    +0.292 HD
ENDBRANCH  24  27
ENDBRANCH  20  21
ENDBRANCH   1  20
TORSDOF 6
ENDMDL
MODEL 8
REMARK VINA RESULT:      -6.7      1.968      4.179
REMARK  Name = 
REMARK  6 active torsions:
REMARK  status: ('A' for Active; 'I' for Inactive)
REMARK    1  A    between atoms: CA_2  and  CB_3
REMARK    2  A    between atoms: CB_3  and  CG_4
REMARK    3  A    between atoms: CZ_7  and  OH_8
REMARK    4  A    between atoms: CA_14  and  CB_16
REMARK    5  A    between atoms: CB_16  and  CG_17
REMARK    6  A    between atoms: CZ_20  and  OH_21
REMARK                            x       y       z     vdW  Elec       q    Type
REMARK                         _______ _______ _______ _____ _____    ______ ____
ROOT
ATOM      1  CA  TYR A   2       5.910  -5.502  23.803  0.00  0.00    +0.163 C 
ATOM      2  C   TYR A   2       5.766  -4.378  22.760  0.00  0.00    +0.234 C 
ATOM      3  O   TYR A   2       4.711  -4.069  22.216  0.00  0.00    -0.274 OA
ATOM      4  N   TYR A   1       6.961  -3.899  22.274  0.00  0.00    -0.302 N 
ATOM      5  H   TYR A   1       6.836  -3.211  21.539  0.00  0.00    +0.150 HD
ATOM      6  CA  TYR A   1       8.073  -3.647  23.194  0.00  0.00    +0.163 C 
ATOM      7  C   TYR A   1       8.269  -4.830  24.146  0.00  0.00    +0.234 C 
ATOM      8  O   TYR A   1       9.351  -5.128  24.642  0.00  0.00    -0.274 OA
ATOM      9  N   TYR A   2       7.103  -5.366  24.645  0.00  0.00    -0.302 N 
ATOM     10  H   TYR A   2       7.289  -6.139  25.274  0.00  0.00    +0.150 HD
ENDROOT
BRANCH   6  11
ATOM     11  CB  TYR A   1       7.861  -2.376  24.045  0.00  0.00    +0.067 C 
BRANCH  11  12
ATOM     12  CG  TYR A   1       8.573  -1.184  23.450  0.00  0.00    -0.045 A 
ATOM     13  CD2 TYR A   1       9.237  -1.293  22.221  0.00  0.00    +0.007 A 
ATOM     14  CE2 TYR A   1       9.754  -0.156  21.602  0.00  0.00    +0.045 A 
ATOM     15  CZ  TYR A   1       9.599   1.088  22.204  0.00  0.00    +0.117 A 
ATOM     16  CE1 TYR A   1       8.986   1.210  23.444  0.00  0.00    +0.045 A 
ATOM     17  CD1 TYR A   1       8.483   0.072  24.072  0.00  0.00    +0.007 A 
BRANCH  15  18
ATOM     18  OH  TYR A   1      10.049   2.182  21.527  0.00  0.00    -0.507 OA
ATOM     19  HH  TYR A   1      10.017   2.947  22.126  0.00  0.00    +0.292 HD
ENDBRANCH  15  18
ENDBRANCH  11  12
ENDBRANCH   6  11
BRANCH   1  20
ATOM     20  CB  TYR A   2       4.627  -5.594  24.648  0.00  0.00    +0.067 C 
BRANCH  20  21
ATOM     21  CG  TYR A   2       4.922  -5.552  26.131  0.00  0.00    -0.045 A 
ATOM     22  CD2 TYR A   2       4.998  -6.742  26.867  0.00  0.00    +0.007 A 
ATOM     23  CE2 TYR A   2       5.363  -6.713  28.213  0.00  0.00    +0.045 A 
ATOM     24  CZ  TYR A   2       5.660  -5.501  28.822  0.00  0.00    +0.117 A 
ATOM     25  CE1 TYR A   2       5.567  -4.307  28.115  0.00  0.00    +0.045 A 
ATOM     26  CD1 TYR A   2       5.190  -4.333  26.771  0.00  0.00    +0.007 A 
BRANCH  24  27
ATOM     27  OH  TYR A   2       6.053  -5.523  30.126  0.00  0.00    -0.507 OA
ATOM     28  HH  TYR A   2       6.780  -4.889  30.241  0.00  0.00    +0.292 HD
ENDBRANCH  24  27
ENDBRANCH  20  21
ENDBRANCH   1  20
TORSDOF 6
ENDMDL
MODEL 9
REMARK VINA RESULT:      -6.7      3.103      4.191
REMARK  Name = 
REMARK  6 active torsions:
REMARK  status: ('A' for Active; 'I' for Inactive)
REMARK    1  A    between atoms: CA_2  and  CB_3
REMARK    2  A    between atoms: CB_3  and  CG_4
REMARK    3  A    between atoms: CZ_7  and  OH_8
REMARK    4  A    between atoms: CA_14  and  CB_16
REMARK    5  A    between atoms: CB_16  and  CG_17
REMARK    6  A    between atoms: CZ_20  and  OH_21
REMARK                            x       y       z     vdW  Elec       q    Type
REMARK                         _______ _______ _______ _____ _____    ______ ____
ROOT
ATOM      1  CA  TYR A   2       7.976  -0.728  23.958  0.00  0.00    +0.163 C 
ATOM      2  C   TYR A   2       9.350  -0.077  24.203  0.00  0.00    +0.234 C 
ATOM      3  O   TYR A   2      10.423  -0.591  23.900  0.00  0.00    -0.274 OA
ATOM      4  N   TYR A   1       9.318   1.021  25.031  0.00  0.00    -0.302 N 
ATOM      5  H   TYR A   1      10.244   1.385  25.232  0.00  0.00    +0.150 HD
ATOM      6  CA  TYR A   1       8.265   2.026  24.868  0.00  0.00    +0.163 C 
ATOM      7  C   TYR A   1       6.893   1.358  24.741  0.00  0.00    +0.234 C 
ATOM      8  O   TYR A   1       5.845   1.892  25.091  0.00  0.00    -0.274 OA
ATOM      9  N   TYR A   2       6.870   0.237  23.943  0.00  0.00    -0.302 N 
ATOM     10  H   TYR A   2       5.939  -0.161  23.887  0.00  0.00    +0.150 HD
ENDROOT
BRANCH   6  11
ATOM     11  CB  TYR A   1       8.482   2.916  23.625  0.00  0.00    +0.067 C 
BRANCH  11  12
ATOM     12  CG  TYR A   1       9.684   3.816  23.789  0.00  0.00    -0.045 A 
ATOM     13  CD2 TYR A   1      10.944   3.409  23.334  0.00  0.00    +0.007 A 
ATOM     14  CE2 TYR A   1      12.014   4.304  23.343  0.00  0.00    +0.045 A 
ATOM     15  CZ  TYR A   1      11.822   5.604  23.797  0.00  0.00    +0.117 A 
ATOM     16  CE1 TYR A   1      10.591   6.012  24.296  0.00  0.00    +0.045 A 
ATOM     17  CD1 TYR A   1       9.525   5.113  24.302  0.00  0.00    +0.007 A 
BRANCH  15  18
ATOM     18  OH  TYR A   1      12.873   6.468  23.715  0.00  0.00    -0.507 OA
ATOM     19  HH  TYR A   1      12.641   7.172  23.086  0.00  0.00    +0.292 HD
ENDBRANCH  15  18
ENDBRANCH  11  12
ENDBRANCH   6  11
BRANCH   1  20
ATOM     20  CB  TYR A   2       8.018  -1.561  22.665  0.00  0.00    +0.067 C 
BRANCH  20  21
ATOM     21  CG  TYR A   2       7.281  -2.875  22.815  0.00  0.00    -0.045 A 
ATOM     22  CD2 TYR A   2       5.950  -2.986  22.395  0.00  0.00    +0.007 A 
ATOM     23  CE2 TYR A   2       5.298  -4.219  22.443  0.00  0.00    +0.045 A 
ATOM     24  CZ  TYR A   2       5.977  -5.340  22.903  0.00  0.00    +0.117 A 
ATOM     25  CE1 TYR A   2       7.291  -5.245  23.348  0.00  0.00    +0.045 A 
ATOM     26  CD1 TYR A   2       7.940  -4.010  23.311  0.00  0.00    +0.007 A 
BRANCH  24  27
ATOM     27  OH  TYR A   2       5.316  -6.532  22.894  0.00  0.00    -0.507 OA
ATOM     28  HH  TYR A   2       5.895  -7.203  22.496  0.00  0.00    +0.292 HD
ENDBRANCH  24  27
ENDBRANCH  20  21
ENDBRANCH   1  20
TORSDOF 6
ENDMDL
