MODEL 1
REMARK VINA RESULT:      -5.9      0.000      0.000
REMARK  Name = 
REMARK  12 active torsions:
REMARK  status: ('A' for Active; 'I' for Inactive)
REMARK    1  A    between atoms: C_2  and  N_3
REMARK    2  A    between atoms: C_2  and  C_4
REMARK    3  A    between atoms: C_2  and  C_9
REMARK    4  A    between atoms: C_4  and  C_5
REMARK    5  A    between atoms: C_5  and  S_6
REMARK    6  A    between atoms: S_6  and  C_7
REMARK    7  A    between atoms: C_7  and  C_8
REMARK    8  A    between atoms: C_9  and  O_11
REMARK    9  A    between atoms: C_9  and  C_12
REMARK   10  A    between atoms: N_14  and  C_15
REMARK   11  A    between atoms: C_15  and  C_17
REMARK   12  A    between atoms: C_15  and  C_18
REMARK                            x       y       z     vdW  Elec       q    Type
REMARK                         _______ _______ _______ _____ _____    ______ ____
ROOT
ATOM      1  C   UNL     1       7.724  -2.892  26.486  0.00  0.00    +0.244 C 
ATOM      2  N   UNL     1       8.379  -1.760  26.076  0.00  0.00    -0.307 N 
ATOM      3  H   UNL     1       9.391  -1.865  25.971  0.00  0.00    +0.149 HD
ATOM      4  O   UNL     1       6.544  -2.925  26.840  0.00  0.00    -0.273 OA
ENDROOT
BRANCH   2   5
ATOM      5  C   UNL     1       7.882  -0.394  26.117  0.00  0.00    +0.101 C 
ATOM      6  C   UNL     1       7.748   0.176  27.534  0.00  0.00    +0.033 C 
BRANCH   5   7
ATOM      7  C   UNL     1       8.648   0.467  25.114  0.00  0.00    -0.020 A 
ATOM      8  C   UNL     1      10.053   0.373  25.084  0.00  0.00    +0.006 A 
ATOM      9  C   UNL     1      10.804   1.059  24.136  0.00  0.00    +0.001 A 
ATOM     10  C   UNL     1      10.166   1.832  23.175  0.00  0.00    +0.008 A 
ATOM     11  C   UNL     1       8.772   1.963  23.167  0.00  0.00    -0.018 A 
ATOM     12  C   UNL     1       8.166   2.755  22.178  0.00  0.00    +0.008 A 
ATOM     13  C   UNL     1       6.788   2.949  22.151  0.00  0.00    +0.001 A 
ATOM     14  C   UNL     1       5.997   2.342  23.117  0.00  0.00    +0.001 A 
ATOM     15  C   UNL     1       6.585   1.524  24.089  0.00  0.00    +0.009 A 
ATOM     16  C   UNL     1       7.985   1.300  24.150  0.00  0.00    -0.013 A 
ENDBRANCH   5   7
ENDBRANCH   2   5
BRANCH   1  17
ATOM     17  C   UNL     1       8.575  -4.186  26.530  0.00  0.00    +0.216 C 
BRANCH  17  18
ATOM     18  O   UNL     1       7.856  -5.158  27.304  0.00  0.00    -0.381 OA
ATOM     19  H   UNL     1       7.238  -4.642  27.863  0.00  0.00    +0.210 HD
ENDBRANCH  17  18
BRANCH  17  20
ATOM     20  C   UNL     1       8.945  -4.804  25.151  0.00  0.00    +0.089 C 
BRANCH  20  21
ATOM     21  N   UNL     1       9.846  -5.974  25.296  0.00  0.00    -0.325 NA
ATOM     22  H   UNL     1       9.406  -6.793  24.867  0.00  0.00    +0.119 HD
ATOM     23  H   UNL     1      10.706  -5.816  24.768  0.00  0.00    +0.119 HD
ENDBRANCH  20  21
BRANCH  20  24
ATOM     24  C   UNL     1       7.661  -5.207  24.389  0.00  0.00    +0.032 C 
BRANCH  24  25
ATOM     25  C   UNL     1       7.577  -4.629  22.977  0.00  0.00    +0.071 C 
BRANCH  25  26
ATOM     26  S   UNL     1       6.016  -3.713  22.793  0.00  0.00    -0.161 S 
BRANCH  26  27
ATOM     27  C   UNL     1       6.664  -2.024  22.950  0.00  0.00    +0.066 C 
ATOM     28  C   UNL     1       8.063  -1.963  22.367  0.00  0.00    +0.015 C 
ENDBRANCH  26  27
ENDBRANCH  25  26
ENDBRANCH  24  25
ENDBRANCH  20  24
ENDBRANCH  17  20
ENDBRANCH   1  17
TORSDOF 10
ENDMDL
MODEL 2
REMARK VINA RESULT:      -5.8      2.938      6.535
REMARK  Name = 
REMARK  12 active torsions:
REMARK  status: ('A' for Active; 'I' for Inactive)
REMARK    1  A    between atoms: C_2  and  N_3
REMARK    2  A    between atoms: C_2  and  C_4
REMARK    3  A    between atoms: C_2  and  C_9
REMARK    4  A    between atoms: C_4  and  C_5
REMARK    5  A    between atoms: C_5  and  S_6
REMARK    6  A    between atoms: S_6  and  C_7
REMARK    7  A    between atoms: C_7  and  C_8
REMARK    8  A    between atoms: C_9  and  O_11
REMARK    9  A    between atoms: C_9  and  C_12
REMARK   10  A    between atoms: N_14  and  C_15
REMARK   11  A    between atoms: C_15  and  C_17
REMARK   12  A    between atoms: C_15  and  C_18
REMARK                            x       y       z     vdW  Elec       q    Type
REMARK                         _______ _______ _______ _____ _____    ______ ____
ROOT
ATOM      1  C   UNL     1       9.672  -2.041  23.870  0.00  0.00    +0.244 C 
ATOM      2  N   UNL     1       8.728  -2.502  24.751  0.00  0.00    -0.307 N 
ATOM      3  H   UNL     1       8.235  -1.771  25.270  0.00  0.00    +0.149 HD
ATOM      4  O   UNL     1      10.488  -2.757  23.288  0.00  0.00    -0.273 OA
ENDROOT
BRANCH   2   5
ATOM      5  C   UNL     1       8.598  -3.851  25.276  0.00  0.00    +0.101 C 
ATOM      6  C   UNL     1       9.178  -4.029  26.683  0.00  0.00    +0.033 C 
BRANCH   5   7
ATOM      7  C   UNL     1       7.172  -4.356  25.066  0.00  0.00    -0.020 A 
ATOM      8  C   UNL     1       6.230  -4.150  26.093  0.00  0.00    +0.006 A 
ATOM      9  C   UNL     1       4.895  -4.501  25.932  0.00  0.00    +0.001 A 
ATOM     10  C   UNL     1       4.462  -5.040  24.726  0.00  0.00    +0.008 A 
ATOM     11  C   UNL     1       5.361  -5.270  23.678  0.00  0.00    -0.018 A 
ATOM     12  C   UNL     1       4.882  -5.817  22.476  0.00  0.00    +0.008 A 
ATOM     13  C   UNL     1       5.742  -6.101  21.419  0.00  0.00    +0.001 A 
ATOM     14  C   UNL     1       7.096  -5.834  21.553  0.00  0.00    +0.001 A 
ATOM     15  C   UNL     1       7.582  -5.259  22.734  0.00  0.00    +0.009 A 
ATOM     16  C   UNL     1       6.739  -4.952  23.833  0.00  0.00    -0.013 A 
ENDBRANCH   5   7
ENDBRANCH   2   5
BRANCH   1  17
ATOM     17  C   UNL     1       9.703  -0.508  23.653  0.00  0.00    +0.216 C 
BRANCH  17  18
ATOM     18  O   UNL     1      10.583   0.056  24.637  0.00  0.00    -0.381 OA
ATOM     19  H   UNL     1      11.472  -0.298  24.428  0.00  0.00    +0.210 HD
ENDBRANCH  17  18
BRANCH  17  20
ATOM     20  C   UNL     1      10.145  -0.029  22.240  0.00  0.00    +0.089 C 
BRANCH  20  21
ATOM     21  N   UNL     1       9.562  -0.872  21.166  0.00  0.00    -0.325 NA
ATOM     22  H   UNL     1      10.313  -1.211  20.560  0.00  0.00    +0.119 HD
ATOM     23  H   UNL     1       9.139  -1.708  21.574  0.00  0.00    +0.119 HD
ENDBRANCH  20  21
BRANCH  20  24
ATOM     24  C   UNL     1       9.747   1.451  22.034  0.00  0.00    +0.032 C 
BRANCH  24  25
ATOM     25  C   UNL     1       8.341   1.637  21.467  0.00  0.00    +0.071 C 
BRANCH  25  26
ATOM     26  S   UNL     1       7.377   2.700  22.585  0.00  0.00    -0.161 S 
BRANCH  26  27
ATOM     27  C   UNL     1       8.717   3.229  23.691  0.00  0.00    +0.066 C 
ATOM     28  C   UNL     1       8.321   2.960  25.130  0.00  0.00    +0.015 C 
ENDBRANCH  26  27
ENDBRANCH  25  26
ENDBRANCH  24  25
ENDBRANCH  20  24
ENDBRANCH  17  20
ENDBRANCH   1  17
TORSDOF 10
ENDMDL
MODEL 3
REMARK VINA RESULT:      -5.8      2.054      2.248
REMARK  Name = 
REMARK  12 active torsions:
REMARK  status: ('A' for Active; 'I' for Inactive)
REMARK    1  A    between atoms: C_2  and  N_3
REMARK    2  A    between atoms: C_2  and  C_4
REMARK    3  A    between atoms: C_2  and  C_9
REMARK    4  A    between atoms: C_4  and  C_5
REMARK    5  A    between atoms: C_5  and  S_6
REMARK    6  A    between atoms: S_6  and  C_7
REMARK    7  A    between atoms: C_7  and  C_8
REMARK    8  A    between atoms: C_9  and  O_11
REMARK    9  A    between atoms: C_9  and  C_12
REMARK   10  A    between atoms: N_14  and  C_15
REMARK   11  A    between atoms: C_15  and  C_17
REMARK   12  A    between atoms: C_15  and  C_18
REMARK                            x       y       z     vdW  Elec       q    Type
REMARK                         _______ _______ _______ _____ _____    ______ ____
ROOT
ATOM      1  C   UNL     1       7.018  -3.694  26.369  0.00  0.00    +0.244 C 
ATOM      2  N   UNL     1       7.842  -2.963  25.553  0.00  0.00    -0.307 N 
ATOM      3  H   UNL     1       8.548  -3.512  25.057  0.00  0.00    +0.149 HD
ATOM      4  O   UNL     1       6.229  -3.206  27.180  0.00  0.00    -0.273 OA
ENDROOT
BRANCH   2   5
ATOM      5  C   UNL     1       8.058  -1.526  25.581  0.00  0.00    +0.101 C 
ATOM      6  C   UNL     1       8.720  -1.022  26.869  0.00  0.00    +0.033 C 
BRANCH   5   7
ATOM      7  C   UNL     1       8.699  -1.071  24.271  0.00  0.00    -0.020 A 
ATOM      8  C   UNL     1       9.740  -1.849  23.728  0.00  0.00    +0.006 A 
ATOM      9  C   UNL     1      10.304  -1.545  22.495  0.00  0.00    +0.001 A 
ATOM     10  C   UNL     1       9.819  -0.470  21.760  0.00  0.00    +0.008 A 
ATOM     11  C   UNL     1       8.791   0.338  22.259  0.00  0.00    -0.018 A 
ATOM     12  C   UNL     1       8.331   1.415  21.484  0.00  0.00    +0.008 A 
ATOM     13  C   UNL     1       7.338   2.271  21.953  0.00  0.00    +0.001 A 
ATOM     14  C   UNL     1       6.789   2.052  23.208  0.00  0.00    +0.001 A 
ATOM     15  C   UNL     1       7.216   0.963  23.978  0.00  0.00    +0.009 A 
ATOM     16  C   UNL     1       8.223   0.066  23.535  0.00  0.00    -0.013 A 
ENDBRANCH   5   7
ENDBRANCH   2   5
BRANCH   1  17
ATOM     17  C   UNL     1       7.150  -5.234  26.260  0.00  0.00    +0.216 C 
BRANCH  17  18
ATOM     18  O   UNL     1       7.964  -5.683  27.353  0.00  0.00    -0.381 OA
ATOM     19  H   UNL     1       7.453  -6.401  27.782  0.00  0.00    +0.210 HD
ENDBRANCH  17  18
BRANCH  17  20
ATOM     20  C   UNL     1       5.814  -6.033  26.256  0.00  0.00    +0.089 C 
BRANCH  20  21
ATOM     21  N   UNL     1       5.109  -5.933  27.557  0.00  0.00    -0.325 NA
ATOM     22  H   UNL     1       4.422  -5.175  27.511  0.00  0.00    +0.119 HD
ATOM     23  H   UNL     1       4.569  -6.783  27.725  0.00  0.00    +0.119 HD
ENDBRANCH  20  21
BRANCH  20  24
ATOM     24  C   UNL     1       4.902  -5.533  25.111  0.00  0.00    +0.032 C 
BRANCH  24  25
ATOM     25  C   UNL     1       4.955  -6.406  23.858  0.00  0.00    +0.071 C 
BRANCH  25  26
ATOM     26  S   UNL     1       5.519  -5.402  22.449  0.00  0.00    -0.161 S 
BRANCH  26  27
ATOM     27  C   UNL     1       5.104  -3.756  23.097  0.00  0.00    +0.066 C 
ATOM     28  C   UNL     1       5.950  -2.709  22.396  0.00  0.00    +0.015 C 
ENDBRANCH  26  27
ENDBRANCH  25  26
ENDBRANCH  24  25
ENDBRANCH  20  24
ENDBRANCH  17  20
ENDBRANCH   1  17
TORSDOF 10
ENDMDL
MODEL 4
REMARK VINA RESULT:      -5.8      3.383      6.897
REMARK  Name = 
REMARK  12 active torsions:
REMARK  status: ('A' for Active; 'I' for Inactive)
REMARK    1  A    between atoms: C_2  and  N_3
REMARK    2  A    between atoms: C_2  and  C_4
REMARK    3  A    between atoms: C_2  and  C_9
REMARK    4  A    between atoms: C_4  and  C_5
REMARK    5  A    between atoms: C_5  and  S_6
REMARK    6  A    between atoms: S_6  and  C_7
REMARK    7  A    between atoms: C_7  and  C_8
REMARK    8  A    between atoms: C_9  and  O_11
REMARK    9  A    between atoms: C_9  and  C_12
REMARK   10  A    between atoms: N_14  and  C_15
REMARK   11  A    between atoms: C_15  and  C_17
REMARK   12  A    between atoms: C_15  and  C_18
REMARK                            x       y       z     vdW  Elec       q    Type
REMARK                         _______ _______ _______ _____ _____    ______ ____
ROOT
ATOM      1  C   UNL     1       9.795  -1.741  23.443  0.00  0.00    +0.244 C 
ATOM      2  N   UNL     1       8.675  -1.714  24.233  0.00  0.00    -0.307 N 
ATOM      3  H   UNL     1       8.258  -0.788  24.352  0.00  0.00    +0.149 HD
ATOM      4  O   UNL     1      10.538  -2.717  23.323  0.00  0.00    -0.273 OA
ENDROOT
BRANCH   2   5
ATOM      5  C   UNL     1       8.235  -2.734  25.171  0.00  0.00    +0.101 C 
ATOM      6  C   UNL     1       8.435  -2.353  26.643  0.00  0.00    +0.033 C 
BRANCH   5   7
ATOM      7  C   UNL     1       6.842  -3.228  24.787  0.00  0.00    -0.020 A 
ATOM      8  C   UNL     1       5.724  -2.613  25.385  0.00  0.00    +0.006 A 
ATOM      9  C   UNL     1       4.428  -2.950  25.012  0.00  0.00    +0.001 A 
ATOM     10  C   UNL     1       4.218  -3.890  24.011  0.00  0.00    +0.008 A 
ATOM     11  C   UNL     1       5.296  -4.534  23.392  0.00  0.00    -0.018 A 
ATOM     12  C   UNL     1       5.040  -5.478  22.384  0.00  0.00    +0.008 A 
ATOM     13  C   UNL     1       6.075  -6.174  21.765  0.00  0.00    +0.001 A 
ATOM     14  C   UNL     1       7.385  -5.925  22.148  0.00  0.00    +0.001 A 
ATOM     15  C   UNL     1       7.656  -4.963  23.129  0.00  0.00    +0.009 A 
ATOM     16  C   UNL     1       6.630  -4.231  23.781  0.00  0.00    -0.013 A 
ENDBRANCH   5   7
ENDBRANCH   2   5
BRANCH   1  17
ATOM     17  C   UNL     1      10.132  -0.424  22.702  0.00  0.00    +0.216 C 
BRANCH  17  18
ATOM     18  O   UNL     1       9.653  -0.544  21.354  0.00  0.00    -0.381 OA
ATOM     19  H   UNL     1       8.717  -0.253  21.382  0.00  0.00    +0.210 HD
ENDBRANCH  17  18
BRANCH  17  20
ATOM     20  C   UNL     1       9.559   0.878  23.334  0.00  0.00    +0.089 C 
BRANCH  20  21
ATOM     21  N   UNL     1       9.883   0.978  24.778  0.00  0.00    -0.325 NA
ATOM     22  H   UNL     1       9.017   0.935  25.322  0.00  0.00    +0.119 HD
ATOM     23  H   UNL     1      10.430   0.166  25.067  0.00  0.00    +0.119 HD
ENDBRANCH  20  21
BRANCH  20  24
ATOM     24  C   UNL     1      10.096   2.114  22.576  0.00  0.00    +0.032 C 
BRANCH  24  25
ATOM     25  C   UNL     1      10.820   3.118  23.472  0.00  0.00    +0.071 C 
BRANCH  25  26
ATOM     26  S   UNL     1       9.738   4.550  23.770  0.00  0.00    -0.161 S 
BRANCH  26  27
ATOM     27  C   UNL     1      11.010   5.842  23.875  0.00  0.00    +0.066 C 
ATOM     28  C   UNL     1      12.286   5.350  23.217  0.00  0.00    +0.015 C 
ENDBRANCH  26  27
ENDBRANCH  25  26
ENDBRANCH  24  25
ENDBRANCH  20  24
ENDBRANCH  17  20
ENDBRANCH   1  17
TORSDOF 10
ENDMDL
MODEL 5
REMARK VINA RESULT:      -5.7      2.338      3.868
REMARK  Name = 
REMARK  12 active torsions:
REMARK  status: ('A' for Active; 'I' for Inactive)
REMARK    1  A    between atoms: C_2  and  N_3
REMARK    2  A    between atoms: C_2  and  C_4
REMARK    3  A    between atoms: C_2  and  C_9
REMARK    4  A    between atoms: C_4  and  C_5
REMARK    5  A    between atoms: C_5  and  S_6
REMARK    6  A    between atoms: S_6  and  C_7
REMARK    7  A    between atoms: C_7  and  C_8
REMARK    8  A    between atoms: C_9  and  O_11
REMARK    9  A    between atoms: C_9  and  C_12
REMARK   10  A    between atoms: N_14  and  C_15
REMARK   11  A    between atoms: C_15  and  C_17
REMARK   12  A    between atoms: C_15  and  C_18
REMARK                            x       y       z     vdW  Elec       q    Type
REMARK                         _______ _______ _______ _____ _____    ______ ____
ROOT
ATOM      1  C   UNL     1       8.774  -4.024  24.253  0.00  0.00    +0.244 C 
ATOM      2  N   UNL     1       7.528  -3.765  23.744  0.00  0.00    -0.307 N 
ATOM      3  H   UNL     1       6.821  -4.470  23.965  0.00  0.00    +0.149 HD
ATOM      4  O   UNL     1       9.793  -3.398  23.953  0.00  0.00    -0.273 OA
ENDROOT
BRANCH   2   5
ATOM      5  C   UNL     1       7.189  -2.837  22.677  0.00  0.00    +0.101 C 
ATOM      6  C   UNL     1       6.063  -3.329  21.761  0.00  0.00    +0.033 C 
BRANCH   5   7
ATOM      7  C   UNL     1       7.029  -1.428  23.246  0.00  0.00    -0.020 A 
ATOM      8  C   UNL     1       6.021  -1.202  24.204  0.00  0.00    +0.006 A 
ATOM      9  C   UNL     1       5.881   0.032  24.829  0.00  0.00    +0.001 A 
ATOM     10  C   UNL     1       6.764   1.062  24.532  0.00  0.00    +0.008 A 
ATOM     11  C   UNL     1       7.776   0.889  23.581  0.00  0.00    -0.018 A 
ATOM     12  C   UNL     1       8.648   1.957  23.309  0.00  0.00    +0.008 A 
ATOM     13  C   UNL     1       9.646   1.849  22.345  0.00  0.00    +0.001 A 
ATOM     14  C   UNL     1       9.786   0.660  21.643  0.00  0.00    +0.001 A 
ATOM     15  C   UNL     1       8.944  -0.423  21.926  0.00  0.00    +0.009 A 
ATOM     16  C   UNL     1       7.917  -0.353  22.903  0.00  0.00    -0.013 A 
ENDBRANCH   5   7
ENDBRANCH   2   5
BRANCH   1  17
ATOM     17  C   UNL     1       8.869  -5.218  25.234  0.00  0.00    +0.216 C 
BRANCH  17  18
ATOM     18  O   UNL     1      10.245  -5.617  25.309  0.00  0.00    -0.381 OA
ATOM     19  H   UNL     1      10.516  -5.800  24.385  0.00  0.00    +0.210 HD
ENDBRANCH  17  18
BRANCH  17  20
ATOM     20  C   UNL     1       8.332  -4.961  26.673  0.00  0.00    +0.089 C 
BRANCH  20  21
ATOM     21  N   UNL     1       8.248  -3.512  26.978  0.00  0.00    -0.325 NA
ATOM     22  H   UNL     1       9.194  -3.131  27.067  0.00  0.00    +0.119 HD
ATOM     23  H   UNL     1       7.825  -3.016  26.191  0.00  0.00    +0.119 HD
ENDBRANCH  20  21
BRANCH  20  24
ATOM     24  C   UNL     1       6.948  -5.628  26.848  0.00  0.00    +0.032 C 
BRANCH  24  25
ATOM     25  C   UNL     1       6.096  -4.996  27.948  0.00  0.00    +0.071 C 
BRANCH  25  26
ATOM     26  S   UNL     1       4.373  -4.870  27.376  0.00  0.00    -0.161 S 
BRANCH  26  27
ATOM     27  C   UNL     1       4.625  -5.315  25.633  0.00  0.00    +0.066 C 
ATOM     28  C   UNL     1       4.018  -4.245  24.746  0.00  0.00    +0.015 C 
ENDBRANCH  26  27
ENDBRANCH  25  26
ENDBRANCH  24  25
ENDBRANCH  20  24
ENDBRANCH  17  20
ENDBRANCH   1  17
TORSDOF 10
ENDMDL
MODEL 6
REMARK VINA RESULT:      -5.6      3.047      6.806
REMARK  Name = 
REMARK  12 active torsions:
REMARK  status: ('A' for Active; 'I' for Inactive)
REMARK    1  A    between atoms: C_2  and  N_3
REMARK    2  A    between atoms: C_2  and  C_4
REMARK    3  A    between atoms: C_2  and  C_9
REMARK    4  A    between atoms: C_4  and  C_5
REMARK    5  A    between atoms: C_5  and  S_6
REMARK    6  A    between atoms: S_6  and  C_7
REMARK    7  A    between atoms: C_7  and  C_8
REMARK    8  A    between atoms: C_9  and  O_11
REMARK    9  A    between atoms: C_9  and  C_12
REMARK   10  A    between atoms: N_14  and  C_15
REMARK   11  A    between atoms: C_15  and  C_17
REMARK   12  A    between atoms: C_15  and  C_18
REMARK                            x       y       z     vdW  Elec       q    Type
REMARK                         _______ _______ _______ _____ _____    ______ ____
ROOT
ATOM      1  C   UNL     1       8.110  -2.728  23.199  0.00  0.00    +0.244 C 
ATOM      2  N   UNL     1       8.355  -3.277  24.431  0.00  0.00    -0.307 N 
ATOM      3  H   UNL     1       8.733  -2.625  25.122  0.00  0.00    +0.149 HD
ATOM      4  O   UNL     1       7.826  -3.378  22.191  0.00  0.00    -0.273 OA
ENDROOT
BRANCH   2   5
ATOM      5  C   UNL     1       8.477  -4.689  24.756  0.00  0.00    +0.101 C 
ATOM      6  C   UNL     1       9.862  -5.089  25.276  0.00  0.00    +0.033 C 
BRANCH   5   7
ATOM      7  C   UNL     1       7.286  -5.132  25.603  0.00  0.00    -0.020 A 
ATOM      8  C   UNL     1       7.413  -5.104  27.006  0.00  0.00    +0.006 A 
ATOM      9  C   UNL     1       6.339  -5.405  27.836  0.00  0.00    +0.001 A 
ATOM     10  C   UNL     1       5.102  -5.714  27.283  0.00  0.00    +0.008 A 
ATOM     11  C   UNL     1       4.927  -5.762  25.895  0.00  0.00    -0.018 A 
ATOM     12  C   UNL     1       3.661  -6.078  25.376  0.00  0.00    +0.008 A 
ATOM     13  C   UNL     1       3.445  -6.177  24.005  0.00  0.00    +0.001 A 
ATOM     14  C   UNL     1       4.500  -5.953  23.133  0.00  0.00    +0.001 A 
ATOM     15  C   UNL     1       5.761  -5.605  23.635  0.00  0.00    +0.009 A 
ATOM     16  C   UNL     1       6.021  -5.492  25.025  0.00  0.00    -0.013 A 
ENDBRANCH   5   7
ENDBRANCH   2   5
BRANCH   1  17
ATOM     17  C   UNL     1       8.248  -1.189  23.105  0.00  0.00    +0.216 C 
BRANCH  17  18
ATOM     18  O   UNL     1       7.874  -0.636  24.375  0.00  0.00    -0.381 OA
ATOM     19  H   UNL     1       6.911  -0.466  24.313  0.00  0.00    +0.210 HD
ENDBRANCH  17  18
BRANCH  17  20
ATOM     20  C   UNL     1       9.656  -0.655  22.710  0.00  0.00    +0.089 C 
BRANCH  20  21
ATOM     21  N   UNL     1      10.552  -1.748  22.257  0.00  0.00    -0.325 NA
ATOM     22  H   UNL     1      10.472  -1.850  21.242  0.00  0.00    +0.119 HD
ATOM     23  H   UNL     1      11.525  -1.492  22.431  0.00  0.00    +0.119 HD
ENDBRANCH  20  21
BRANCH  20  24
ATOM     24  C   UNL     1       9.524   0.422  21.609  0.00  0.00    +0.032 C 
BRANCH  24  25
ATOM     25  C   UNL     1       9.941   1.820  22.062  0.00  0.00    +0.071 C 
BRANCH  25  26
ATOM     26  S   UNL     1      10.441   1.761  23.811  0.00  0.00    -0.161 S 
BRANCH  26  27
ATOM     27  C   UNL     1       9.083   2.736  24.521  0.00  0.00    +0.066 C 
ATOM     28  C   UNL     1       8.307   3.409  23.405  0.00  0.00    +0.015 C 
ENDBRANCH  26  27
ENDBRANCH  25  26
ENDBRANCH  24  25
ENDBRANCH  20  24
ENDBRANCH  17  20
ENDBRANCH   1  17
TORSDOF 10
ENDMDL
MODEL 7
REMARK VINA RESULT:      -5.6      2.992      4.577
REMARK  Name = 
REMARK  12 active torsions:
REMARK  status: ('A' for Active; 'I' for Inactive)
REMARK    1  A    between atoms: C_2  and  N_3
REMARK    2  A    between atoms: C_2  and  C_4
REMARK    3  A    between atoms: C_2  and  C_9
REMARK    4  A    between atoms: C_4  and  C_5
REMARK    5  A    between atoms: C_5  and  S_6
REMARK    6  A    between atoms: S_6  and  C_7
REMARK    7  A    between atoms: C_7  and  C_8
REMARK    8  A    between atoms: C_9  and  O_11
REMARK    9  A    between atoms: C_9  and  C_12
REMARK   10  A    between atoms: N_14  and  C_15
REMARK   11  A    between atoms: C_15  and  C_17
REMARK   12  A    between atoms: C_15  and  C_18
REMARK                            x       y       z     vdW  Elec       q    Type
REMARK                         _______ _______ _______ _____ _____    ______ ____
ROOT
ATOM      1  C   UNL     1       9.795   0.413  24.949  0.00  0.00    +0.244 C 
ATOM      2  N   UNL     1       8.842   1.094  24.236  0.00  0.00    -0.307 N 
ATOM      3  H   UNL     1       7.890   0.736  24.345  0.00  0.00    +0.149 HD
ATOM      4  O   UNL     1      11.010   0.571  24.816  0.00  0.00    -0.273 OA
ENDROOT
BRANCH   2   5
ATOM      5  C   UNL     1       9.059   1.995  23.117  0.00  0.00    +0.101 C 
ATOM      6  C   UNL     1       8.238   1.647  21.870  0.00  0.00    +0.033 C 
BRANCH   5   7
ATOM      7  C   UNL     1       8.978   3.445  23.593  0.00  0.00    -0.020 A 
ATOM      8  C   UNL     1       7.731   3.941  24.022  0.00  0.00    +0.006 A 
ATOM      9  C   UNL     1       7.605   5.219  24.554  0.00  0.00    +0.001 A 
ATOM     10  C   UNL     1       8.729   6.023  24.697  0.00  0.00    +0.008 A 
ATOM     11  C   UNL     1       9.989   5.578  24.279  0.00  0.00    -0.018 A 
ATOM     12  C   UNL     1      11.100   6.422  24.441  0.00  0.00    +0.008 A 
ATOM     13  C   UNL     1      12.366   6.042  24.006  0.00  0.00    +0.001 A 
ATOM     14  C   UNL     1      12.535   4.803  23.406  0.00  0.00    +0.001 A 
ATOM     15  C   UNL     1      11.442   3.938  23.267  0.00  0.00    +0.009 A 
ATOM     16  C   UNL     1      10.136   4.287  23.699  0.00  0.00    -0.013 A 
ENDBRANCH   5   7
ENDBRANCH   2   5
BRANCH   1  17
ATOM     17  C   UNL     1       9.264  -0.646  25.947  0.00  0.00    +0.216 C 
BRANCH  17  18
ATOM     18  O   UNL     1       8.515   0.042  26.960  0.00  0.00    -0.381 OA
ATOM     19  H   UNL     1       7.582   0.012  26.661  0.00  0.00    +0.210 HD
ENDBRANCH  17  18
BRANCH  17  20
ATOM     20  C   UNL     1       8.383  -1.775  25.338  0.00  0.00    +0.089 C 
BRANCH  20  21
ATOM     21  N   UNL     1       7.093  -1.250  24.825  0.00  0.00    -0.325 NA
ATOM     22  H   UNL     1       6.330  -1.844  25.162  0.00  0.00    +0.119 HD
ATOM     23  H   UNL     1       6.915  -0.325  25.219  0.00  0.00    +0.119 HD
ENDBRANCH  20  21
BRANCH  20  24
ATOM     24  C   UNL     1       9.154  -2.498  24.210  0.00  0.00    +0.032 C 
BRANCH  24  25
ATOM     25  C   UNL     1       8.254  -3.264  23.243  0.00  0.00    +0.071 C 
BRANCH  25  26
ATOM     26  S   UNL     1       7.893  -4.909  23.932  0.00  0.00    -0.161 S 
BRANCH  26  27
ATOM     27  C   UNL     1       6.495  -5.358  22.862  0.00  0.00    +0.066 C 
ATOM     28  C   UNL     1       7.018  -5.808  21.511  0.00  0.00    +0.015 C 
ENDBRANCH  26  27
ENDBRANCH  25  26
ENDBRANCH  24  25
ENDBRANCH  20  24
ENDBRANCH  17  20
ENDBRANCH   1  17
TORSDOF 10
ENDMDL
MODEL 8
REMARK VINA RESULT:      -5.5      3.832      7.343
REMARK  Name = 
REMARK  12 active torsions:
REMARK  status: ('A' for Active; 'I' for Inactive)
REMARK    1  A    between atoms: C_2  and  N_3
REMARK    2  A    between atoms: C_2  and  C_4
REMARK    3  A    between atoms: C_2  and  C_9
REMARK    4  A    between atoms: C_4  and  C_5
REMARK    5  A    between atoms: C_5  and  S_6
REMARK    6  A    between atoms: S_6  and  C_7
REMARK    7  A    between atoms: C_7  and  C_8
REMARK    8  A    between atoms: C_9  and  O_11
REMARK    9  A    between atoms: C_9  and  C_12
REMARK   10  A    between atoms: N_14  and  C_15
REMARK   11  A    between atoms: C_15  and  C_17
REMARK   12  A    between atoms: C_15  and  C_18
REMARK                            x       y       z     vdW  Elec       q    Type
REMARK                         _______ _______ _______ _____ _____    ______ ____
ROOT
ATOM      1  C   UNL     1       8.992   0.182  22.058  0.00  0.00    +0.244 C 
ATOM      2  N   UNL     1       8.535  -0.578  23.103  0.00  0.00    -0.307 N 
ATOM      3  H   UNL     1       8.381  -0.062  23.972  0.00  0.00    +0.149 HD
ATOM      4  O   UNL     1       9.405  -0.277  20.991  0.00  0.00    -0.273 OA
ENDROOT
BRANCH   2   5
ATOM      5  C   UNL     1       8.583  -2.026  23.224  0.00  0.00    +0.101 C 
ATOM      6  C   UNL     1       9.798  -2.544  24.002  0.00  0.00    +0.033 C 
BRANCH   5   7
ATOM      7  C   UNL     1       7.221  -2.556  23.670  0.00  0.00    -0.020 A 
ATOM      8  C   UNL     1       6.472  -1.791  24.586  0.00  0.00    +0.006 A 
ATOM      9  C   UNL     1       5.188  -2.168  24.962  0.00  0.00    +0.001 A 
ATOM     10  C   UNL     1       4.610  -3.304  24.409  0.00  0.00    +0.008 A 
ATOM     11  C   UNL     1       5.317  -4.101  23.501  0.00  0.00    -0.018 A 
ATOM     12  C   UNL     1       4.696  -5.242  22.965  0.00  0.00    +0.008 A 
ATOM     13  C   UNL     1       5.370  -6.087  22.089  0.00  0.00    +0.001 A 
ATOM     14  C   UNL     1       6.679  -5.794  21.733  0.00  0.00    +0.001 A 
ATOM     15  C   UNL     1       7.299  -4.643  22.235  0.00  0.00    +0.009 A 
ATOM     16  C   UNL     1       6.646  -3.754  23.128  0.00  0.00    -0.013 A 
ENDBRANCH   5   7
ENDBRANCH   2   5
BRANCH   1  17
ATOM     17  C   UNL     1       9.010   1.713  22.293  0.00  0.00    +0.216 C 
BRANCH  17  18
ATOM     18  O   UNL     1      10.029   2.274  21.452  0.00  0.00    -0.381 OA
ATOM     19  H   UNL     1      10.840   1.758  21.644  0.00  0.00    +0.210 HD
ENDBRANCH  17  18
BRANCH  17  20
ATOM     20  C   UNL     1       7.667   2.457  22.035  0.00  0.00    +0.089 C 
BRANCH  20  21
ATOM     21  N   UNL     1       6.496   1.615  22.379  0.00  0.00    -0.325 NA
ATOM     22  H   UNL     1       5.641   2.168  22.275  0.00  0.00    +0.119 HD
ATOM     23  H   UNL     1       6.411   0.849  21.708  0.00  0.00    +0.119 HD
ENDBRANCH  20  21
BRANCH  20  24
ATOM     24  C   UNL     1       7.633   3.779  22.837  0.00  0.00    +0.032 C 
BRANCH  24  25
ATOM     25  C   UNL     1       8.641   3.829  23.983  0.00  0.00    +0.071 C 
BRANCH  25  26
ATOM     26  S   UNL     1       8.444   5.394  24.890  0.00  0.00    -0.161 S 
BRANCH  26  27
ATOM     27  C   UNL     1       9.567   6.429  23.907  0.00  0.00    +0.066 C 
ATOM     28  C   UNL     1      10.874   5.690  23.688  0.00  0.00    +0.015 C 
ENDBRANCH  26  27
ENDBRANCH  25  26
ENDBRANCH  24  25
ENDBRANCH  20  24
ENDBRANCH  17  20
ENDBRANCH   1  17
TORSDOF 10
ENDMDL
MODEL 9
REMARK VINA RESULT:      -5.5      3.353      7.381
REMARK  Name = 
REMARK  12 active torsions:
REMARK  status: ('A' for Active; 'I' for Inactive)
REMARK    1  A    between atoms: C_2  and  N_3
REMARK    2  A    between atoms: C_2  and  C_4
REMARK    3  A    between atoms: C_2  and  C_9
REMARK    4  A    between atoms: C_4  and  C_5
REMARK    5  A    between atoms: C_5  and  S_6
REMARK    6  A    between atoms: S_6  and  C_7
REMARK    7  A    between atoms: C_7  and  C_8
REMARK    8  A    between atoms: C_9  and  O_11
REMARK    9  A    between atoms: C_9  and  C_12
REMARK   10  A    between atoms: N_14  and  C_15
REMARK   11  A    between atoms: C_15  and  C_17
REMARK   12  A    between atoms: C_15  and  C_18
REMARK                            x       y       z     vdW  Elec       q    Type
REMARK                         _______ _______ _______ _____ _____    ______ ____
ROOT
ATOM      1  C   UNL     1       9.627  -1.838  23.781  0.00  0.00    +0.244 C 
ATOM      2  N   UNL     1       8.853  -2.771  24.421  0.00  0.00    -0.307 N 
ATOM      3  H   UNL     1       8.329  -2.414  25.223  0.00  0.00    +0.149 HD
ATOM      4  O   UNL     1      10.462  -2.102  22.914  0.00  0.00    -0.273 OA
ENDROOT
BRANCH   2   5
ATOM      5  C   UNL     1       8.959  -4.218  24.324  0.00  0.00    +0.101 C 
ATOM      6  C   UNL     1       9.455  -4.892  25.608  0.00  0.00    +0.033 C 
BRANCH   5   7
ATOM      7  C   UNL     1       7.683  -4.792  23.711  0.00  0.00    -0.020 A 
ATOM      8  C   UNL     1       7.568  -4.821  22.307  0.00  0.00    +0.006 A 
ATOM      9  C   UNL     1       6.476  -5.413  21.682  0.00  0.00    +0.001 A 
ATOM     10  C   UNL     1       5.486  -6.017  22.447  0.00  0.00    +0.008 A 
ATOM     11  C   UNL     1       5.551  -6.008  23.845  0.00  0.00    -0.018 A 
ATOM     12  C   UNL     1       4.528  -6.629  24.581  0.00  0.00    +0.008 A 
ATOM     13  C   UNL     1       4.527  -6.614  25.972  0.00  0.00    +0.001 A 
ATOM     14  C   UNL     1       5.559  -5.976  26.646  0.00  0.00    +0.001 A 
ATOM     15  C   UNL     1       6.601  -5.380  25.925  0.00  0.00    +0.009 A 
ATOM     16  C   UNL     1       6.641  -5.377  24.507  0.00  0.00    -0.013 A 
ENDBRANCH   5   7
ENDBRANCH   2   5
BRANCH   1  17
ATOM     17  C   UNL     1       9.435  -0.371  24.238  0.00  0.00    +0.216 C 
BRANCH  17  18
ATOM     18  O   UNL     1       9.784  -0.295  25.628  0.00  0.00    -0.381 OA
ATOM     19  H   UNL     1       9.015   0.124  26.069  0.00  0.00    +0.210 HD
ENDBRANCH  17  18
BRANCH  17  20
ATOM     20  C   UNL     1      10.244   0.700  23.450  0.00  0.00    +0.089 C 
BRANCH  20  21
ATOM     21  N   UNL     1       9.817   0.777  22.031  0.00  0.00    -0.325 NA
ATOM     22  H   UNL     1      10.642   0.712  21.427  0.00  0.00    +0.119 HD
ATOM     23  H   UNL     1       9.242  -0.034  21.797  0.00  0.00    +0.119 HD
ENDBRANCH  20  21
BRANCH  20  24
ATOM     24  C   UNL     1      10.097   2.080  24.130  0.00  0.00    +0.032 C 
BRANCH  24  25
ATOM     25  C   UNL     1      10.654   3.236  23.301  0.00  0.00    +0.071 C 
BRANCH  25  26
ATOM     26  S   UNL     1       9.773   4.768  23.735  0.00  0.00    -0.161 S 
BRANCH  26  27
ATOM     27  C   UNL     1      11.207   5.861  23.956  0.00  0.00    +0.066 C 
ATOM     28  C   UNL     1      12.438   5.206  23.359  0.00  0.00    +0.015 C 
ENDBRANCH  26  27
ENDBRANCH  25  26
ENDBRANCH  24  25
ENDBRANCH  20  24
ENDBRANCH  17  20
ENDBRANCH   1  17
TORSDOF 10
ENDMDL
