MODEL 1
REMARK VINA RESULT:      -5.8      0.000      0.000
REMARK  Name = 
REMARK  15 active torsions:
REMARK  status: ('A' for Active; 'I' for Inactive)
REMARK    1  A    between atoms: O_1  and  C_2
REMARK    2  A    between atoms: C_4  and  O_6
REMARK    3  A    between atoms: C_7  and  O_9
REMARK    4  A    between atoms: O_9  and  P_10
REMARK    5  A    between atoms: P_10  and  O_11
REMARK    6  A    between atoms: P_10  and  O_12
REMARK    7  A    between atoms: C_14  and  O_16
REMARK    8  A    between atoms: O_16  and  P_17
REMARK    9  A    between atoms: P_17  and  O_18
REMARK   10  A    between atoms: P_17  and  O_19
REMARK   11  A    between atoms: C_21  and  O_23
REMARK   12  A    between atoms: C_24  and  O_26
REMARK   13  A    between atoms: O_26  and  P_27
REMARK   14  A    between atoms: P_27  and  O_28
REMARK   15  A    between atoms: P_27  and  O_29
REMARK                            x       y       z     vdW  Elec       q    Type
REMARK                         _______ _______ _______ _____ _____    ______ ____
ROOT
ATOM      1  C   UNL     1       8.106  -4.181  26.410  0.00  0.00    +0.177 C 
ATOM      2  C   UNL     1       8.356  -3.326  25.160  0.00  0.00    +0.192 C 
ATOM      3  C   UNL     1       7.034  -3.029  24.441  0.00  0.00    +0.178 C 
ATOM      4  C   UNL     1       6.394  -4.353  24.012  0.00  0.00    +0.193 C 
ATOM      5  C   UNL     1       6.077  -5.138  25.271  0.00  0.00    +0.193 C 
ATOM      6  C   UNL     1       7.344  -5.459  26.074  0.00  0.00    +0.177 C 
ENDROOT
BRANCH   1   7
ATOM      7  O   UNL     1       9.335  -4.527  27.062  0.00  0.00    -0.386 OA
ATOM      8  H   UNL     1       9.481  -3.935  27.829  0.00  0.00    +0.210 HD
ENDBRANCH   1   7
BRANCH   3   9
ATOM      9  O   UNL     1       7.257  -2.201  23.300  0.00  0.00    -0.386 OA
ATOM     10  H   UNL     1       8.195  -2.296  23.031  0.00  0.00    +0.210 HD
ENDBRANCH   3   9
BRANCH   6  11
ATOM     11  O   UNL     1       6.980  -6.123  27.290  0.00  0.00    -0.386 OA
ATOM     12  H   UNL     1       6.184  -5.676  27.644  0.00  0.00    +0.210 HD
ENDBRANCH   6  11
BRANCH   2  13
ATOM     13  O   UNL     1       8.920  -2.076  25.541  0.00  0.00    -0.278 OA
BRANCH  13  14
ATOM     14  P   UNL     1       7.857  -1.130  26.526  0.00  0.00    +0.473 P 
ATOM     15  O   UNL     1       6.906  -0.284  27.406  0.00  0.00    -0.228 OA
BRANCH  14  16
ATOM     16  O   UNL     1       8.074   0.032  25.391  0.00  0.00    -0.303 OA
ATOM     17  H   UNL     1       7.738   0.891  25.700  0.00  0.00    +0.222 HD
ENDBRANCH  14  16
BRANCH  14  18
ATOM     18  O   UNL     1       9.212  -0.725  27.353  0.00  0.00    -0.303 OA
ATOM     19  H   UNL     1       9.659  -1.574  27.541  0.00  0.00    +0.222 HD
ENDBRANCH  14  18
ENDBRANCH  13  14
ENDBRANCH   2  13
BRANCH   4  20
ATOM     20  O   UNL     1       7.291  -5.135  23.160  0.00  0.00    -0.278 OA
BRANCH  20  21
ATOM     21  P   UNL     1       6.585  -5.333  21.593  0.00  0.00    +0.473 P 
ATOM     22  O   UNL     1       5.954  -5.511  20.190  0.00  0.00    -0.228 OA
BRANCH  21  23
ATOM     23  O   UNL     1       5.278  -4.533  22.173  0.00  0.00    -0.303 OA
ATOM     24  H   UNL     1       5.109  -3.790  21.566  0.00  0.00    +0.222 HD
ENDBRANCH  21  23
BRANCH  21  25
ATOM     25  O   UNL     1       6.122  -6.809  22.126  0.00  0.00    -0.303 OA
ATOM     26  H   UNL     1       5.354  -7.097  21.596  0.00  0.00    +0.222 HD
ENDBRANCH  21  25
ENDBRANCH  20  21
ENDBRANCH   4  20
BRANCH   5  27
ATOM     27  O   UNL     1       5.486  -6.324  24.817  0.00  0.00    -0.278 OA
BRANCH  27  28
ATOM     28  P   UNL     1       3.790  -6.455  25.137  0.00  0.00    +0.473 P 
ATOM     29  O   UNL     1       2.273  -6.571  25.423  0.00  0.00    -0.228 OA
BRANCH  28  30
ATOM     30  O   UNL     1       4.277  -7.352  26.421  0.00  0.00    -0.303 OA
ATOM     31  H   UNL     1       4.423  -8.277  26.153  0.00  0.00    +0.222 HD
ENDBRANCH  28  30
BRANCH  28  32
ATOM     32  O   UNL     1       3.872  -7.720  24.101  0.00  0.00    -0.303 OA
ATOM     33  H   UNL     1       4.224  -8.459  24.634  0.00  0.00    +0.222 HD
ENDBRANCH  28  32
ENDBRANCH  27  28
ENDBRANCH   5  27
TORSDOF 15
ENDMDL
MODEL 2
REMARK VINA RESULT:      -5.8      1.826      2.639
REMARK  Name = 
REMARK  15 active torsions:
REMARK  status: ('A' for Active; 'I' for Inactive)
REMARK    1  A    between atoms: O_1  and  C_2
REMARK    2  A    between atoms: C_4  and  O_6
REMARK    3  A    between atoms: C_7  and  O_9
REMARK    4  A    between atoms: O_9  and  P_10
REMARK    5  A    between atoms: P_10  and  O_11
REMARK    6  A    between atoms: P_10  and  O_12
REMARK    7  A    between atoms: C_14  and  O_16
REMARK    8  A    between atoms: O_16  and  P_17
REMARK    9  A    between atoms: P_17  and  O_18
REMARK   10  A    between atoms: P_17  and  O_19
REMARK   11  A    between atoms: C_21  and  O_23
REMARK   12  A    between atoms: C_24  and  O_26
REMARK   13  A    between atoms: O_26  and  P_27
REMARK   14  A    between atoms: P_27  and  O_28
REMARK   15  A    between atoms: P_27  and  O_29
REMARK                            x       y       z     vdW  Elec       q    Type
REMARK                         _______ _______ _______ _____ _____    ______ ____
ROOT
ATOM      1  C   UNL     1       8.334  -4.162  26.107  0.00  0.00    +0.177 C 
ATOM      2  C   UNL     1       7.806  -3.373  24.901  0.00  0.00    +0.192 C 
ATOM      3  C   UNL     1       6.307  -3.088  25.061  0.00  0.00    +0.178 C 
ATOM      4  C   UNL     1       5.555  -4.419  25.146  0.00  0.00    +0.193 C 
ATOM      5  C   UNL     1       6.033  -5.137  26.394  0.00  0.00    +0.193 C 
ATOM      6  C   UNL     1       7.536  -5.441  26.335  0.00  0.00    +0.177 C 
ENDROOT
BRANCH   1   7
ATOM      7  O   UNL     1       9.719  -4.497  25.947  0.00  0.00    -0.386 OA
ATOM      8  H   UNL     1      10.264  -3.945  26.544  0.00  0.00    +0.210 HD
ENDBRANCH   1   7
BRANCH   3   9
ATOM      9  O   UNL     1       5.820  -2.320  23.961  0.00  0.00    -0.386 OA
ATOM     10  H   UNL     1       4.858  -2.183  24.084  0.00  0.00    +0.210 HD
ENDBRANCH   3   9
BRANCH   6  11
ATOM     11  O   UNL     1       7.948  -6.039  27.569  0.00  0.00    -0.386 OA
ATOM     12  H   UNL     1       8.878  -5.777  27.729  0.00  0.00    +0.210 HD
ENDBRANCH   6  11
BRANCH   2  13
ATOM     13  O   UNL     1       8.469  -2.117  24.824  0.00  0.00    -0.278 OA
BRANCH  13  14
ATOM     14  P   UNL     1       9.510  -1.986  23.448  0.00  0.00    +0.473 P 
ATOM     15  O   UNL     1      10.442  -1.870  22.218  0.00  0.00    -0.228 OA
BRANCH  14  16
ATOM     16  O   UNL     1      10.140  -0.690  24.228  0.00  0.00    -0.303 OA
ATOM     17  H   UNL     1      10.622  -0.111  23.613  0.00  0.00    +0.222 HD
ENDBRANCH  14  16
BRANCH  14  18
ATOM     18  O   UNL     1       8.287  -1.125  22.781  0.00  0.00    -0.303 OA
ATOM     19  H   UNL     1       7.474  -1.467  23.203  0.00  0.00    +0.222 HD
ENDBRANCH  14  18
ENDBRANCH  13  14
ENDBRANCH   2  13
BRANCH   4  20
ATOM     20  O   UNL     1       5.807  -5.258  23.973  0.00  0.00    -0.278 OA
BRANCH  20  21
ATOM     21  P   UNL     1       4.306  -5.721  23.250  0.00  0.00    +0.473 P 
ATOM     22  O   UNL     1       2.961  -6.136  22.603  0.00  0.00    -0.228 OA
BRANCH  21  23
ATOM     23  O   UNL     1       4.569  -7.218  23.863  0.00  0.00    -0.303 OA
ATOM     24  H   UNL     1       4.320  -7.855  23.170  0.00  0.00    +0.222 HD
ENDBRANCH  21  23
BRANCH  21  25
ATOM     25  O   UNL     1       5.176  -5.949  21.885  0.00  0.00    -0.303 OA
ATOM     26  H   UNL     1       5.718  -6.753  21.999  0.00  0.00    +0.222 HD
ENDBRANCH  21  25
ENDBRANCH  20  21
ENDBRANCH   4  20
BRANCH   5  27
ATOM     27  O   UNL     1       5.305  -6.333  26.424  0.00  0.00    -0.278 OA
BRANCH  27  28
ATOM     28  P   UNL     1       4.221  -6.487  27.765  0.00  0.00    +0.473 P 
ATOM     29  O   UNL     1       3.253  -6.625  28.965  0.00  0.00    -0.228 OA
BRANCH  28  30
ATOM     30  O   UNL     1       5.312  -7.592  28.296  0.00  0.00    -0.303 OA
ATOM     31  H   UNL     1       5.124  -7.838  29.219  0.00  0.00    +0.222 HD
ENDBRANCH  28  30
BRANCH  28  32
ATOM     32  O   UNL     1       3.458  -7.566  26.798  0.00  0.00    -0.303 OA
ATOM     33  H   UNL     1       2.945  -8.131  27.408  0.00  0.00    +0.222 HD
ENDBRANCH  28  32
ENDBRANCH  27  28
ENDBRANCH   5  27
TORSDOF 15
ENDMDL
MODEL 3
REMARK VINA RESULT:      -5.7      1.995      3.046
REMARK  Name = 
REMARK  15 active torsions:
REMARK  status: ('A' for Active; 'I' for Inactive)
REMARK    1  A    between atoms: O_1  and  C_2
REMARK    2  A    between atoms: C_4  and  O_6
REMARK    3  A    between atoms: C_7  and  O_9
REMARK    4  A    between atoms: O_9  and  P_10
REMARK    5  A    between atoms: P_10  and  O_11
REMARK    6  A    between atoms: P_10  and  O_12
REMARK    7  A    between atoms: C_14  and  O_16
REMARK    8  A    between atoms: O_16  and  P_17
REMARK    9  A    between atoms: P_17  and  O_18
REMARK   10  A    between atoms: P_17  and  O_19
REMARK   11  A    between atoms: C_21  and  O_23
REMARK   12  A    between atoms: C_24  and  O_26
REMARK   13  A    between atoms: O_26  and  P_27
REMARK   14  A    between atoms: P_27  and  O_28
REMARK   15  A    between atoms: P_27  and  O_29
REMARK                            x       y       z     vdW  Elec       q    Type
REMARK                         _______ _______ _______ _____ _____    ______ ____
ROOT
ATOM      1  C   UNL     1       9.188  -2.847  24.038  0.00  0.00    +0.177 C 
ATOM      2  C   UNL     1       8.145  -2.390  23.008  0.00  0.00    +0.192 C 
ATOM      3  C   UNL     1       6.764  -2.263  23.665  0.00  0.00    +0.178 C 
ATOM      4  C   UNL     1       6.348  -3.631  24.214  0.00  0.00    +0.193 C 
ATOM      5  C   UNL     1       7.346  -4.016  25.290  0.00  0.00    +0.193 C 
ATOM      6  C   UNL     1       8.768  -4.141  24.728  0.00  0.00    +0.177 C 
ENDROOT
BRANCH   1   7
ATOM      7  O   UNL     1      10.473  -3.038  23.432  0.00  0.00    -0.386 OA
ATOM      8  H   UNL     1      10.508  -2.566  22.575  0.00  0.00    +0.210 HD
ENDBRANCH   1   7
BRANCH   3   9
ATOM      9  O   UNL     1       5.799  -1.800  22.721  0.00  0.00    -0.386 OA
ATOM     10  H   UNL     1       6.152  -0.992  22.293  0.00  0.00    +0.210 HD
ENDBRANCH   3   9
BRANCH   6  11
ATOM     11  O   UNL     1       9.678  -4.420  25.798  0.00  0.00    -0.386 OA
ATOM     12  H   UNL     1       9.198  -4.956  26.463  0.00  0.00    +0.210 HD
ENDBRANCH   6  11
BRANCH   2  13
ATOM     13  O   UNL     1       8.497  -1.105  22.511  0.00  0.00    -0.278 OA
BRANCH  13  14
ATOM     14  P   UNL     1       8.862   0.028  23.767  0.00  0.00    +0.473 P 
ATOM     15  O   UNL     1       9.187   1.040  24.891  0.00  0.00    -0.228 OA
BRANCH  14  16
ATOM     16  O   UNL     1       8.166   1.132  22.776  0.00  0.00    -0.303 OA
ATOM     17  H   UNL     1       8.838   1.660  22.312  0.00  0.00    +0.222 HD
ENDBRANCH  14  16
BRANCH  14  18
ATOM     18  O   UNL     1      10.327   0.144  23.044  0.00  0.00    -0.303 OA
ATOM     19  H   UNL     1      10.221   0.835  22.361  0.00  0.00    +0.222 HD
ENDBRANCH  14  18
ENDBRANCH  13  14
ENDBRANCH   2  13
BRANCH   4  20
ATOM     20  O   UNL     1       6.339  -4.653  23.166  0.00  0.00    -0.278 OA
BRANCH  20  21
ATOM     21  P   UNL     1       4.731  -5.251  22.946  0.00  0.00    +0.473 P 
ATOM     22  O   UNL     1       3.291  -5.786  22.748  0.00  0.00    -0.228 OA
BRANCH  21  23
ATOM     23  O   UNL     1       5.117  -6.440  24.005  0.00  0.00    -0.303 OA
ATOM     24  H   UNL     1       5.784  -6.073  24.612  0.00  0.00    +0.222 HD
ENDBRANCH  21  23
BRANCH  21  25
ATOM     25  O   UNL     1       5.328  -6.009  21.626  0.00  0.00    -0.303 OA
ATOM     26  H   UNL     1       4.866  -6.865  21.531  0.00  0.00    +0.222 HD
ENDBRANCH  21  25
ENDBRANCH  20  21
ENDBRANCH   4  20
BRANCH   5  27
ATOM     27  O   UNL     1       6.907  -5.260  25.760  0.00  0.00    -0.278 OA
BRANCH  27  28
ATOM     28  P   UNL     1       6.472  -5.288  27.435  0.00  0.00    +0.473 P 
ATOM     29  O   UNL     1       6.084  -5.313  28.933  0.00  0.00    -0.228 OA
BRANCH  28  30
ATOM     30  O   UNL     1       7.922  -6.033  27.621  0.00  0.00    -0.303 OA
ATOM     31  H   UNL     1       7.985  -6.439  28.504  0.00  0.00    +0.222 HD
ENDBRANCH  28  30
BRANCH  28  32
ATOM     32  O   UNL     1       5.704  -6.677  27.031  0.00  0.00    -0.303 OA
ATOM     33  H   UNL     1       6.176  -7.377  27.522  0.00  0.00    +0.222 HD
ENDBRANCH  28  32
ENDBRANCH  27  28
ENDBRANCH   5  27
TORSDOF 15
ENDMDL
MODEL 4
REMARK VINA RESULT:      -5.5      2.784      6.906
REMARK  Name = 
REMARK  15 active torsions:
REMARK  status: ('A' for Active; 'I' for Inactive)
REMARK    1  A    between atoms: O_1  and  C_2
REMARK    2  A    between atoms: C_4  and  O_6
REMARK    3  A    between atoms: C_7  and  O_9
REMARK    4  A    between atoms: O_9  and  P_10
REMARK    5  A    between atoms: P_10  and  O_11
REMARK    6  A    between atoms: P_10  and  O_12
REMARK    7  A    between atoms: C_14  and  O_16
REMARK    8  A    between atoms: O_16  and  P_17
REMARK    9  A    between atoms: P_17  and  O_18
REMARK   10  A    between atoms: P_17  and  O_19
REMARK   11  A    between atoms: C_21  and  O_23
REMARK   12  A    between atoms: C_24  and  O_26
REMARK   13  A    between atoms: O_26  and  P_27
REMARK   14  A    between atoms: P_27  and  O_28
REMARK   15  A    between atoms: P_27  and  O_29
REMARK                            x       y       z     vdW  Elec       q    Type
REMARK                         _______ _______ _______ _____ _____    ______ ____
ROOT
ATOM      1  C   UNL     1       9.000  -3.375  24.112  0.00  0.00    +0.177 C 
ATOM      2  C   UNL     1       7.854  -3.280  25.128  0.00  0.00    +0.192 C 
ATOM      3  C   UNL     1       6.803  -2.266  24.657  0.00  0.00    +0.178 C 
ATOM      4  C   UNL     1       7.462  -0.890  24.529  0.00  0.00    +0.193 C 
ATOM      5  C   UNL     1       8.530  -0.992  23.456  0.00  0.00    +0.193 C 
ATOM      6  C   UNL     1       9.617  -2.008  23.830  0.00  0.00    +0.177 C 
ENDROOT
BRANCH   1   7
ATOM      7  O   UNL     1      10.028  -4.267  24.563  0.00  0.00    -0.386 OA
ATOM      8  H   UNL     1       9.878  -5.160  24.190  0.00  0.00    +0.210 HD
ENDBRANCH   1   7
BRANCH   3   9
ATOM      9  O   UNL     1       5.716  -2.204  25.580  0.00  0.00    -0.386 OA
ATOM     10  H   UNL     1       5.345  -1.297  25.556  0.00  0.00    +0.210 HD
ENDBRANCH   3   9
BRANCH   6  11
ATOM     11  O   UNL     1      10.549  -2.127  22.749  0.00  0.00    -0.386 OA
ATOM     12  H   UNL     1      10.765  -3.077  22.648  0.00  0.00    +0.210 HD
ENDBRANCH   6  11
BRANCH   2  13
ATOM     13  O   UNL     1       7.206  -4.542  25.237  0.00  0.00    -0.278 OA
BRANCH  13  14
ATOM     14  P   UNL     1       7.103  -5.108  26.868  0.00  0.00    +0.473 P 
ATOM     15  O   UNL     1       7.011  -5.614  28.328  0.00  0.00    -0.228 OA
BRANCH  14  16
ATOM     16  O   UNL     1       8.481  -5.924  26.520  0.00  0.00    -0.303 OA
ATOM     17  H   UNL     1       9.177  -5.321  26.208  0.00  0.00    +0.222 HD
ENDBRANCH  14  16
BRANCH  14  18
ATOM     18  O   UNL     1       6.130  -6.274  26.253  0.00  0.00    -0.303 OA
ATOM     19  H   UNL     1       5.868  -6.819  27.021  0.00  0.00    +0.222 HD
ENDBRANCH  14  18
ENDBRANCH  13  14
ENDBRANCH   2  13
BRANCH   4  20
ATOM     20  O   UNL     1       8.074  -0.465  25.789  0.00  0.00    -0.278 OA
BRANCH  20  21
ATOM     21  P   UNL     1       7.170   0.845  26.465  0.00  0.00    +0.473 P 
ATOM     22  O   UNL     1       6.360   2.018  27.071  0.00  0.00    -0.228 OA
BRANCH  21  23
ATOM     23  O   UNL     1       8.350   1.837  25.910  0.00  0.00    -0.303 OA
ATOM     24  H   UNL     1       9.193   1.495  26.257  0.00  0.00    +0.222 HD
ENDBRANCH  21  23
BRANCH  21  25
ATOM     25  O   UNL     1       7.918   0.472  27.871  0.00  0.00    -0.303 OA
ATOM     26  H   UNL     1       7.253   0.102  28.481  0.00  0.00    +0.222 HD
ENDBRANCH  21  25
ENDBRANCH  20  21
ENDBRANCH   4  20
BRANCH   5  27
ATOM     27  O   UNL     1       9.084   0.292  23.376  0.00  0.00    -0.278 OA
BRANCH  27  28
ATOM     28  P   UNL     1       8.228   1.386  22.344  0.00  0.00    +0.473 P 
ATOM     29  O   UNL     1       7.462   2.364  21.421  0.00  0.00    -0.228 OA
BRANCH  28  30
ATOM     30  O   UNL     1       9.533   1.211  21.365  0.00  0.00    -0.303 OA
ATOM     31  H   UNL     1       9.836   2.080  21.045  0.00  0.00    +0.222 HD
ENDBRANCH  28  30
BRANCH  28  32
ATOM     32  O   UNL     1       8.950   2.536  23.259  0.00  0.00    -0.303 OA
ATOM     33  H   UNL     1       9.463   2.040  23.926  0.00  0.00    +0.222 HD
ENDBRANCH  28  32
ENDBRANCH  27  28
ENDBRANCH   5  27
TORSDOF 15
ENDMDL
MODEL 5
REMARK VINA RESULT:      -5.4      2.133      6.547
REMARK  Name = 
REMARK  15 active torsions:
REMARK  status: ('A' for Active; 'I' for Inactive)
REMARK    1  A    between atoms: O_1  and  C_2
REMARK    2  A    between atoms: C_4  and  O_6
REMARK    3  A    between atoms: C_7  and  O_9
REMARK    4  A    between atoms: O_9  and  P_10
REMARK    5  A    between atoms: P_10  and  O_11
REMARK    6  A    between atoms: P_10  and  O_12
REMARK    7  A    between atoms: C_14  and  O_16
REMARK    8  A    between atoms: O_16  and  P_17
REMARK    9  A    between atoms: P_17  and  O_18
REMARK   10  A    between atoms: P_17  and  O_19
REMARK   11  A    between atoms: C_21  and  O_23
REMARK   12  A    between atoms: C_24  and  O_26
REMARK   13  A    between atoms: O_26  and  P_27
REMARK   14  A    between atoms: P_27  and  O_28
REMARK   15  A    between atoms: P_27  and  O_29
REMARK                            x       y       z     vdW  Elec       q    Type
REMARK                         _______ _______ _______ _____ _____    ______ ____
ROOT
ATOM      1  C   UNL     1       5.155  -5.328  22.385  0.00  0.00    +0.177 C 
ATOM      2  C   UNL     1       4.142  -5.549  23.517  0.00  0.00    +0.192 C 
ATOM      3  C   UNL     1       4.276  -4.449  24.578  0.00  0.00    +0.178 C 
ATOM      4  C   UNL     1       5.689  -4.495  25.166  0.00  0.00    +0.193 C 
ATOM      5  C   UNL     1       6.663  -4.186  24.044  0.00  0.00    +0.193 C 
ATOM      6  C   UNL     1       6.581  -5.225  22.918  0.00  0.00    +0.177 C 
ENDROOT
BRANCH   1   7
ATOM      7  O   UNL     1       5.094  -6.381  21.415  0.00  0.00    -0.386 OA
ATOM      8  H   UNL     1       4.335  -6.235  20.815  0.00  0.00    +0.210 HD
ENDBRANCH   1   7
BRANCH   3   9
ATOM      9  O   UNL     1       3.309  -4.628  25.613  0.00  0.00    -0.386 OA
ATOM     10  H   UNL     1       2.992  -5.555  25.579  0.00  0.00    +0.210 HD
ENDBRANCH   3   9
BRANCH   6  11
ATOM     11  O   UNL     1       7.455  -4.839  21.852  0.00  0.00    -0.386 OA
ATOM     12  H   UNL     1       8.373  -4.883  22.191  0.00  0.00    +0.210 HD
ENDBRANCH   6  11
BRANCH   2  13
ATOM     13  O   UNL     1       2.821  -5.475  22.996  0.00  0.00    -0.278 OA
BRANCH  13  14
ATOM     14  P   UNL     1       1.990  -6.993  23.047  0.00  0.00    +0.473 P 
ATOM     15  O   UNL     1       1.247  -8.350  23.092  0.00  0.00    -0.228 OA
BRANCH  14  16
ATOM     16  O   UNL     1       1.402  -6.459  24.480  0.00  0.00    -0.303 OA
ATOM     17  H   UNL     1       2.086  -5.990  24.988  0.00  0.00    +0.222 HD
ENDBRANCH  14  16
BRANCH  14  18
ATOM     18  O   UNL     1       3.375  -7.568  23.708  0.00  0.00    -0.303 OA
ATOM     19  H   UNL     1       3.850  -7.998  22.970  0.00  0.00    +0.222 HD
ENDBRANCH  14  18
ENDBRANCH  13  14
ENDBRANCH   2  13
BRANCH   4  20
ATOM     20  O   UNL     1       5.996  -5.810  25.732  0.00  0.00    -0.278 OA
BRANCH  20  21
ATOM     21  P   UNL     1       6.242  -5.671  27.438  0.00  0.00    +0.473 P 
ATOM     22  O   UNL     1       6.463  -5.546  28.966  0.00  0.00    -0.228 OA
BRANCH  21  23
ATOM     23  O   UNL     1       6.177  -4.047  27.230  0.00  0.00    -0.303 OA
ATOM     24  H   UNL     1       7.000  -3.786  26.779  0.00  0.00    +0.222 HD
ENDBRANCH  21  23
BRANCH  21  25
ATOM     25  O   UNL     1       7.834  -5.815  27.094  0.00  0.00    -0.303 OA
ATOM     26  H   UNL     1       8.234  -4.924  27.121  0.00  0.00    +0.222 HD
ENDBRANCH  21  25
ENDBRANCH  20  21
ENDBRANCH   4  20
BRANCH   5  27
ATOM     27  O   UNL     1       7.928  -4.230  24.643  0.00  0.00    -0.278 OA
BRANCH  27  28
ATOM     28  P   UNL     1       8.715  -2.695  24.785  0.00  0.00    +0.473 P 
ATOM     29  O   UNL     1       9.419  -1.322  24.912  0.00  0.00    -0.228 OA
BRANCH  28  30
ATOM     30  O   UNL     1      10.047  -3.529  24.315  0.00  0.00    -0.303 OA
ATOM     31  H   UNL     1      10.226  -4.260  24.932  0.00  0.00    +0.222 HD
ENDBRANCH  28  30
BRANCH  28  32
ATOM     32  O   UNL     1       8.884  -3.125  26.356  0.00  0.00    -0.303 OA
ATOM     33  H   UNL     1       8.032  -3.537  26.597  0.00  0.00    +0.222 HD
ENDBRANCH  28  32
ENDBRANCH  27  28
ENDBRANCH   5  27
TORSDOF 15
ENDMDL
MODEL 6
REMARK VINA RESULT:      -5.4      2.360      6.604
REMARK  Name = 
REMARK  15 active torsions:
REMARK  status: ('A' for Active; 'I' for Inactive)
REMARK    1  A    between atoms: O_1  and  C_2
REMARK    2  A    between atoms: C_4  and  O_6
REMARK    3  A    between atoms: C_7  and  O_9
REMARK    4  A    between atoms: O_9  and  P_10
REMARK    5  A    between atoms: P_10  and  O_11
REMARK    6  A    between atoms: P_10  and  O_12
REMARK    7  A    between atoms: C_14  and  O_16
REMARK    8  A    between atoms: O_16  and  P_17
REMARK    9  A    between atoms: P_17  and  O_18
REMARK   10  A    between atoms: P_17  and  O_19
REMARK   11  A    between atoms: C_21  and  O_23
REMARK   12  A    between atoms: C_24  and  O_26
REMARK   13  A    between atoms: O_26  and  P_27
REMARK   14  A    between atoms: P_27  and  O_28
REMARK   15  A    between atoms: P_27  and  O_29
REMARK                            x       y       z     vdW  Elec       q    Type
REMARK                         _______ _______ _______ _____ _____    ______ ____
ROOT
ATOM      1  C   UNL     1       8.296  -4.313  23.844  0.00  0.00    +0.177 C 
ATOM      2  C   UNL     1       6.796  -4.315  24.167  0.00  0.00    +0.192 C 
ATOM      3  C   UNL     1       6.097  -3.139  23.471  0.00  0.00    +0.178 C 
ATOM      4  C   UNL     1       6.707  -1.829  23.976  0.00  0.00    +0.193 C 
ATOM      5  C   UNL     1       8.168  -1.816  23.566  0.00  0.00    +0.193 C 
ATOM      6  C   UNL     1       8.946  -2.978  24.196  0.00  0.00    +0.177 C 
ENDROOT
BRANCH   1   7
ATOM      7  O   UNL     1       8.982  -5.364  24.538  0.00  0.00    -0.386 OA
ATOM      8  H   UNL     1       9.845  -5.535  24.108  0.00  0.00    +0.210 HD
ENDBRANCH   1   7
BRANCH   3   9
ATOM      9  O   UNL     1       4.694  -3.160  23.736  0.00  0.00    -0.386 OA
ATOM     10  H   UNL     1       4.220  -3.027  22.889  0.00  0.00    +0.210 HD
ENDBRANCH   3   9
BRANCH   6  11
ATOM     11  O   UNL     1      10.293  -2.968  23.709  0.00  0.00    -0.386 OA
ATOM     12  H   UNL     1      10.327  -2.354  22.946  0.00  0.00    +0.210 HD
ENDBRANCH   6  11
BRANCH   2  13
ATOM     13  O   UNL     1       6.203  -5.511  23.675  0.00  0.00    -0.278 OA
BRANCH  13  14
ATOM     14  P   UNL     1       6.082  -5.543  21.949  0.00  0.00    +0.473 P 
ATOM     15  O   UNL     1       5.974  -5.570  20.405  0.00  0.00    -0.228 OA
BRANCH  14  16
ATOM     16  O   UNL     1       4.509  -5.922  22.210  0.00  0.00    -0.303 OA
ATOM     17  H   UNL     1       4.050  -6.107  21.373  0.00  0.00    +0.222 HD
ENDBRANCH  14  16
BRANCH  14  18
ATOM     18  O   UNL     1       6.590  -7.094  22.083  0.00  0.00    -0.303 OA
ATOM     19  H   UNL     1       7.373  -7.057  22.667  0.00  0.00    +0.222 HD
ENDBRANCH  14  18
ENDBRANCH  13  14
ENDBRANCH   2  13
BRANCH   4  20
ATOM     20  O   UNL     1       6.607  -1.712  25.432  0.00  0.00    -0.278 OA
BRANCH  20  21
ATOM     21  P   UNL     1       5.649  -0.332  25.844  0.00  0.00    +0.473 P 
ATOM     22  O   UNL     1       4.791   0.904  26.212  0.00  0.00    -0.228 OA
BRANCH  21  23
ATOM     23  O   UNL     1       4.364  -1.347  25.904  0.00  0.00    -0.303 OA
ATOM     24  H   UNL     1       4.688  -2.229  25.650  0.00  0.00    +0.222 HD
ENDBRANCH  21  23
BRANCH  21  25
ATOM     25  O   UNL     1       5.569  -0.064  24.232  0.00  0.00    -0.303 OA
ATOM     26  H   UNL     1       4.808   0.525  24.059  0.00  0.00    +0.222 HD
ENDBRANCH  21  25
ENDBRANCH  20  21
ENDBRANCH   4  20
BRANCH   5  27
ATOM     27  O   UNL     1       8.665  -0.596  24.041  0.00  0.00    -0.278 OA
BRANCH  27  28
ATOM     28  P   UNL     1       9.292   0.456  22.817  0.00  0.00    +0.473 P 
ATOM     29  O   UNL     1       9.852   1.396  21.722  0.00  0.00    -0.228 OA
BRANCH  28  30
ATOM     30  O   UNL     1       9.159  -0.868  21.856  0.00  0.00    -0.303 OA
ATOM     31  H   UNL     1       9.138  -0.606  20.919  0.00  0.00    +0.222 HD
ENDBRANCH  28  30
BRANCH  28  32
ATOM     32  O   UNL     1      10.746  -0.007  23.413  0.00  0.00    -0.303 OA
ATOM     33  H   UNL     1      10.570  -0.848  23.878  0.00  0.00    +0.222 HD
ENDBRANCH  28  32
ENDBRANCH  27  28
ENDBRANCH   5  27
TORSDOF 15
ENDMDL
MODEL 7
REMARK VINA RESULT:      -5.4      2.877      4.480
REMARK  Name = 
REMARK  15 active torsions:
REMARK  status: ('A' for Active; 'I' for Inactive)
REMARK    1  A    between atoms: O_1  and  C_2
REMARK    2  A    between atoms: C_4  and  O_6
REMARK    3  A    between atoms: C_7  and  O_9
REMARK    4  A    between atoms: O_9  and  P_10
REMARK    5  A    between atoms: P_10  and  O_11
REMARK    6  A    between atoms: P_10  and  O_12
REMARK    7  A    between atoms: C_14  and  O_16
REMARK    8  A    between atoms: O_16  and  P_17
REMARK    9  A    between atoms: P_17  and  O_18
REMARK   10  A    between atoms: P_17  and  O_19
REMARK   11  A    between atoms: C_21  and  O_23
REMARK   12  A    between atoms: C_24  and  O_26
REMARK   13  A    between atoms: O_26  and  P_27
REMARK   14  A    between atoms: P_27  and  O_28
REMARK   15  A    between atoms: P_27  and  O_29
REMARK                            x       y       z     vdW  Elec       q    Type
REMARK                         _______ _______ _______ _____ _____    ______ ____
ROOT
ATOM      1  C   UNL     1       9.775  -2.548  24.218  0.00  0.00    +0.177 C 
ATOM      2  C   UNL     1       9.314  -1.126  24.566  0.00  0.00    +0.192 C 
ATOM      3  C   UNL     1       8.748  -1.080  25.992  0.00  0.00    +0.178 C 
ATOM      4  C   UNL     1       7.544  -2.023  26.079  0.00  0.00    +0.193 C 
ATOM      5  C   UNL     1       8.045  -3.431  25.818  0.00  0.00    +0.193 C 
ATOM      6  C   UNL     1       8.657  -3.566  24.417  0.00  0.00    +0.177 C 
ENDROOT
BRANCH   1   7
ATOM      7  O   UNL     1      10.246  -2.629  22.867  0.00  0.00    -0.386 OA
ATOM      8  H   UNL     1      10.622  -3.518  22.701  0.00  0.00    +0.210 HD
ENDBRANCH   1   7
BRANCH   3   9
ATOM      9  O   UNL     1       8.355   0.249  26.334  0.00  0.00    -0.386 OA
ATOM     10  H   UNL     1       9.020   0.869  25.970  0.00  0.00    +0.210 HD
ENDBRANCH   3   9
BRANCH   6  11
ATOM     11  O   UNL     1       9.188  -4.886  24.257  0.00  0.00    -0.386 OA
ATOM     12  H   UNL     1       8.950  -5.194  23.358  0.00  0.00    +0.210 HD
ENDBRANCH   6  11
BRANCH   2  13
ATOM     13  O   UNL     1      10.426  -0.240  24.524  0.00  0.00    -0.278 OA
BRANCH  13  14
ATOM     14  P   UNL     1      10.291   0.952  23.277  0.00  0.00    +0.473 P 
ATOM     15  O   UNL     1      10.172   2.018  22.161  0.00  0.00    -0.228 OA
BRANCH  14  16
ATOM     16  O   UNL     1      10.055   2.007  24.509  0.00  0.00    -0.303 OA
ATOM     17  H   UNL     1       9.647   2.831  24.192  0.00  0.00    +0.222 HD
ENDBRANCH  14  16
BRANCH  14  18
ATOM     18  O   UNL     1       8.716   0.506  23.215  0.00  0.00    -0.303 OA
ATOM     19  H   UNL     1       8.324   1.052  22.506  0.00  0.00    +0.222 HD
ENDBRANCH  14  18
ENDBRANCH  13  14
ENDBRANCH   2  13
BRANCH   4  20
ATOM     20  O   UNL     1       6.517  -1.679  25.095  0.00  0.00    -0.278 OA
BRANCH  20  21
ATOM     21  P   UNL     1       5.122  -1.049  25.901  0.00  0.00    +0.473 P 
ATOM     22  O   UNL     1       3.873  -0.485  26.623  0.00  0.00    -0.228 OA
BRANCH  21  23
ATOM     23  O   UNL     1       5.655  -1.819  27.245  0.00  0.00    -0.303 OA
ATOM     24  H   UNL     1       6.247  -2.532  26.947  0.00  0.00    +0.222 HD
ENDBRANCH  21  23
BRANCH  21  25
ATOM     25  O   UNL     1       4.333  -2.338  25.276  0.00  0.00    -0.303 OA
ATOM     26  H   UNL     1       4.362  -3.060  25.934  0.00  0.00    +0.222 HD
ENDBRANCH  21  25
ENDBRANCH  20  21
ENDBRANCH   4  20
BRANCH   5  27
ATOM     27  O   UNL     1       6.909  -4.243  25.924  0.00  0.00    -0.278 OA
BRANCH  27  28
ATOM     28  P   UNL     1       6.894  -5.290  27.302  0.00  0.00    +0.473 P 
ATOM     29  O   UNL     1       6.881  -6.225  28.535  0.00  0.00    -0.228 OA
BRANCH  28  30
ATOM     30  O   UNL     1       8.326  -5.818  26.700  0.00  0.00    -0.303 OA
ATOM     31  H   UNL     1       8.553  -5.331  25.888  0.00  0.00    +0.222 HD
ENDBRANCH  28  30
BRANCH  28  32
ATOM     32  O   UNL     1       6.015  -6.270  26.328  0.00  0.00    -0.303 OA
ATOM     33  H   UNL     1       6.501  -6.282  25.480  0.00  0.00    +0.222 HD
ENDBRANCH  28  32
ENDBRANCH  27  28
ENDBRANCH   5  27
TORSDOF 15
ENDMDL
MODEL 8
REMARK VINA RESULT:      -5.3      2.936      4.774
REMARK  Name = 
REMARK  15 active torsions:
REMARK  status: ('A' for Active; 'I' for Inactive)
REMARK    1  A    between atoms: O_1  and  C_2
REMARK    2  A    between atoms: C_4  and  O_6
REMARK    3  A    between atoms: C_7  and  O_9
REMARK    4  A    between atoms: O_9  and  P_10
REMARK    5  A    between atoms: P_10  and  O_11
REMARK    6  A    between atoms: P_10  and  O_12
REMARK    7  A    between atoms: C_14  and  O_16
REMARK    8  A    between atoms: O_16  and  P_17
REMARK    9  A    between atoms: P_17  and  O_18
REMARK   10  A    between atoms: P_17  and  O_19
REMARK   11  A    between atoms: C_21  and  O_23
REMARK   12  A    between atoms: C_24  and  O_26
REMARK   13  A    between atoms: O_26  and  P_27
REMARK   14  A    between atoms: P_27  and  O_28
REMARK   15  A    between atoms: P_27  and  O_29
REMARK                            x       y       z     vdW  Elec       q    Type
REMARK                         _______ _______ _______ _____ _____    ______ ____
ROOT
ATOM      1  C   UNL     1       9.138  -0.483  22.388  0.00  0.00    +0.177 C 
ATOM      2  C   UNL     1       7.660  -0.073  22.458  0.00  0.00    +0.192 C 
ATOM      3  C   UNL     1       7.045  -0.513  23.793  0.00  0.00    +0.178 C 
ATOM      4  C   UNL     1       7.138  -2.037  23.905  0.00  0.00    +0.193 C 
ATOM      5  C   UNL     1       8.610  -2.406  23.922  0.00  0.00    +0.193 C 
ATOM      6  C   UNL     1       9.318  -1.979  22.629  0.00  0.00    +0.177 C 
ENDROOT
BRANCH   1   7
ATOM      7  O   UNL     1       9.716  -0.142  21.121  0.00  0.00    -0.386 OA
ATOM      8  H   UNL     1       9.031  -0.185  20.423  0.00  0.00    +0.210 HD
ENDBRANCH   1   7
BRANCH   3   9
ATOM      9  O   UNL     1       5.682  -0.098  23.880  0.00  0.00    -0.386 OA
ATOM     10  H   UNL     1       5.141  -0.708  23.336  0.00  0.00    +0.210 HD
ENDBRANCH   3   9
BRANCH   6  11
ATOM     11  O   UNL     1      10.716  -2.273  22.734  0.00  0.00    -0.386 OA
ATOM     12  H   UNL     1      11.153  -1.492  23.133  0.00  0.00    +0.210 HD
ENDBRANCH   6  11
BRANCH   2  13
ATOM     13  O   UNL     1       7.555   1.344  22.390  0.00  0.00    -0.278 OA
BRANCH  13  14
ATOM     14  P   UNL     1       8.593   2.152  23.514  0.00  0.00    +0.473 P 
ATOM     15  O   UNL     1       9.522   2.874  24.521  0.00  0.00    -0.228 OA
BRANCH  14  16
ATOM     16  O   UNL     1       7.386   3.256  23.616  0.00  0.00    -0.303 OA
ATOM     17  H   UNL     1       7.032   3.470  22.735  0.00  0.00    +0.222 HD
ENDBRANCH  14  16
BRANCH  14  18
ATOM     18  O   UNL     1       9.259   2.843  22.187  0.00  0.00    -0.303 OA
ATOM     19  H   UNL     1       8.651   3.569  21.945  0.00  0.00    +0.222 HD
ENDBRANCH  14  18
ENDBRANCH  13  14
ENDBRANCH   2  13
BRANCH   4  20
ATOM     20  O   UNL     1       6.480  -2.702  22.779  0.00  0.00    -0.278 OA
BRANCH  20  21
ATOM     21  P   UNL     1       5.080  -3.551  23.338  0.00  0.00    +0.473 P 
ATOM     22  O   UNL     1       3.827  -4.311  23.839  0.00  0.00    -0.228 OA
BRANCH  21  23
ATOM     23  O   UNL     1       5.589  -3.217  24.860  0.00  0.00    -0.303 OA
ATOM     24  H   UNL     1       6.466  -3.628  24.962  0.00  0.00    +0.222 HD
ENDBRANCH  21  23
BRANCH  21  25
ATOM     25  O   UNL     1       5.983  -4.903  23.158  0.00  0.00    -0.303 OA
ATOM     26  H   UNL     1       5.746  -5.316  22.306  0.00  0.00    +0.222 HD
ENDBRANCH  21  25
ENDBRANCH  20  21
ENDBRANCH   4  20
BRANCH   5  27
ATOM     27  O   UNL     1       8.630  -3.802  24.038  0.00  0.00    -0.278 OA
BRANCH  27  28
ATOM     28  P   UNL     1       8.878  -4.390  25.647  0.00  0.00    +0.473 P 
ATOM     29  O   UNL     1       9.100  -4.916  27.085  0.00  0.00    -0.228 OA
BRANCH  28  30
ATOM     30  O   UNL     1      10.005  -5.348  24.937  0.00  0.00    -0.303 OA
ATOM     31  H   UNL     1       9.584  -6.135  24.546  0.00  0.00    +0.222 HD
ENDBRANCH  28  30
BRANCH  28  32
ATOM     32  O   UNL     1       7.646  -5.404  25.277  0.00  0.00    -0.303 OA
ATOM     33  H   UNL     1       7.437  -5.861  26.115  0.00  0.00    +0.222 HD
ENDBRANCH  28  32
ENDBRANCH  27  28
ENDBRANCH   5  27
TORSDOF 15
ENDMDL
MODEL 9
REMARK VINA RESULT:      -5.3      2.370      5.996
REMARK  Name = 
REMARK  15 active torsions:
REMARK  status: ('A' for Active; 'I' for Inactive)
REMARK    1  A    between atoms: O_1  and  C_2
REMARK    2  A    between atoms: C_4  and  O_6
REMARK    3  A    between atoms: C_7  and  O_9
REMARK    4  A    between atoms: O_9  and  P_10
REMARK    5  A    between atoms: P_10  and  O_11
REMARK    6  A    between atoms: P_10  and  O_12
REMARK    7  A    between atoms: C_14  and  O_16
REMARK    8  A    between atoms: O_16  and  P_17
REMARK    9  A    between atoms: P_17  and  O_18
REMARK   10  A    between atoms: P_17  and  O_19
REMARK   11  A    between atoms: C_21  and  O_23
REMARK   12  A    between atoms: C_24  and  O_26
REMARK   13  A    between atoms: O_26  and  P_27
REMARK   14  A    between atoms: P_27  and  O_28
REMARK   15  A    between atoms: P_27  and  O_29
REMARK                            x       y       z     vdW  Elec       q    Type
REMARK                         _______ _______ _______ _____ _____    ______ ____
ROOT
ATOM      1  C   UNL     1       7.526  -5.471  26.498  0.00  0.00    +0.177 C 
ATOM      2  C   UNL     1       6.042  -5.112  26.335  0.00  0.00    +0.192 C 
ATOM      3  C   UNL     1       5.807  -4.400  24.997  0.00  0.00    +0.178 C 
ATOM      4  C   UNL     1       6.631  -3.110  24.969  0.00  0.00    +0.193 C 
ATOM      5  C   UNL     1       8.095  -3.499  25.042  0.00  0.00    +0.193 C 
ATOM      6  C   UNL     1       8.421  -4.245  26.343  0.00  0.00    +0.177 C 
ENDROOT
BRANCH   1   7
ATOM      7  O   UNL     1       7.781  -6.077  27.772  0.00  0.00    -0.386 OA
ATOM      8  H   UNL     1       7.589  -7.036  27.726  0.00  0.00    +0.210 HD
ENDBRANCH   1   7
BRANCH   3   9
ATOM      9  O   UNL     1       4.422  -4.101  24.823  0.00  0.00    -0.386 OA
ATOM     10  H   UNL     1       4.210  -3.311  25.363  0.00  0.00    +0.210 HD
ENDBRANCH   3   9
BRANCH   6  11
ATOM     11  O   UNL     1       9.791  -4.662  26.321  0.00  0.00    -0.386 OA
ATOM     12  H   UNL     1       9.895  -5.297  25.582  0.00  0.00    +0.210 HD
ENDBRANCH   6  11
BRANCH   2  13
ATOM     13  O   UNL     1       5.262  -6.302  26.325  0.00  0.00    -0.278 OA
BRANCH  13  14
ATOM     14  P   UNL     1       4.215  -6.434  27.696  0.00  0.00    +0.473 P 
ATOM     15  O   UNL     1       3.279  -6.551  28.923  0.00  0.00    -0.228 OA
BRANCH  14  16
ATOM     16  O   UNL     1       5.279  -7.566  28.219  0.00  0.00    -0.303 OA
ATOM     17  H   UNL     1       4.857  -8.183  28.841  0.00  0.00    +0.222 HD
ENDBRANCH  14  16
BRANCH  14  18
ATOM     18  O   UNL     1       3.374  -7.495  26.774  0.00  0.00    -0.303 OA
ATOM     19  H   UNL     1       3.940  -7.662  25.995  0.00  0.00    +0.222 HD
ENDBRANCH  14  18
ENDBRANCH  13  14
ENDBRANCH   2  13
BRANCH   4  20
ATOM     20  O   UNL     1       6.301  -2.234  26.094  0.00  0.00    -0.278 OA
BRANCH  20  21
ATOM     21  P   UNL     1       5.631  -0.752  25.506  0.00  0.00    +0.473 P 
ATOM     22  O   UNL     1       5.031   0.576  24.979  0.00  0.00    -0.228 OA
BRANCH  21  23
ATOM     23  O   UNL     1       5.790  -1.376  23.999  0.00  0.00    -0.303 OA
ATOM     24  H   UNL     1       6.439  -0.821  23.530  0.00  0.00    +0.222 HD
ENDBRANCH  21  23
BRANCH  21  25
ATOM     25  O   UNL     1       7.156  -0.169  25.603  0.00  0.00    -0.303 OA
ATOM     26  H   UNL     1       7.236   0.580  24.981  0.00  0.00    +0.222 HD
ENDBRANCH  21  25
ENDBRANCH  20  21
ENDBRANCH   4  20
BRANCH   5  27
ATOM     27  O   UNL     1       8.794  -2.286  25.000  0.00  0.00    -0.278 OA
BRANCH  27  28
ATOM     28  P   UNL     1       9.759  -2.057  23.582  0.00  0.00    +0.473 P 
ATOM     29  O   UNL     1      10.624  -1.852  22.314  0.00  0.00    -0.228 OA
BRANCH  28  30
ATOM     30  O   UNL     1      10.349  -0.764  24.403  0.00  0.00    -0.303 OA
ATOM     31  H   UNL     1      11.103  -1.030  24.959  0.00  0.00    +0.222 HD
ENDBRANCH  28  30
BRANCH  28  32
ATOM     32  O   UNL     1       8.452  -1.235  23.038  0.00  0.00    -0.303 OA
ATOM     33  H   UNL     1       8.724  -0.297  23.045  0.00  0.00    +0.222 HD
ENDBRANCH  28  32
ENDBRANCH  27  28
ENDBRANCH   5  27
TORSDOF 15
ENDMDL
