MODEL 1
REMARK VINA RESULT:      -6.4      0.000      0.000
REMARK  Name = 
REMARK  6 active torsions:
REMARK  status: ('A' for Active; 'I' for Inactive)
REMARK    1  A    between atoms: C_1  and  C_2
REMARK    2  A    between atoms: C_2  and  C_4
REMARK    3  A    between atoms: C_2  and  O_16
REMARK    4  A    between atoms: C_4  and  N_5
REMARK    5  A    between atoms: O_16  and  C_17
REMARK    6  A    between atoms: C_17  and  P_18
REMARK                            x       y       z     vdW  Elec       q    Type
REMARK                         _______ _______ _______ _____ _____    ______ ____
ROOT
ATOM      1  N   UNL     1       8.272  -1.778  22.838  0.00  0.00    -0.312 N 
ATOM      2  C   UNL     1       7.938  -0.460  22.636  0.00  0.00    +0.167 A 
ATOM      3  N   UNL     1       6.742   0.138  22.821  0.00  0.00    -0.195 NA
ATOM      4  C   UNL     1       6.811   1.460  22.605  0.00  0.00    +0.216 A 
ATOM      5  N   UNL     1       7.889   2.176  22.234  0.00  0.00    -0.198 NA
ATOM      6  C   UNL     1       9.057   1.527  22.009  0.00  0.00    +0.149 A 
ATOM      7  N   UNL     1      10.177   2.277  21.641  0.00  0.00    -0.341 N 
ATOM      8  H   UNL     1      11.022   1.762  21.878  0.00  0.00    +0.144 HD
ATOM      9  H   UNL     1      10.105   3.205  22.037  0.00  0.00    +0.144 HD
ATOM     10  N   UNL     1       5.657   2.179  22.876  0.00  0.00    -0.327 N 
ATOM     11  H   UNL     1       5.944   3.103  23.172  0.00  0.00    +0.145 HD
ATOM     12  H   UNL     1       5.130   1.641  23.556  0.00  0.00    +0.145 HD
ATOM     13  C   UNL     1       9.107   0.141  22.216  0.00  0.00    +0.147 A 
ATOM     14  N   UNL     1      10.127  -0.780  22.095  0.00  0.00    -0.231 NA
ATOM     15  C   UNL     1       9.596  -1.912  22.518  0.00  0.00    +0.201 A 
ENDROOT
BRANCH   1  16
ATOM     16  C   UNL     1       7.334  -2.815  23.209  0.00  0.00    +0.156 C 
BRANCH  16  18
ATOM     17  C   UNL     1       6.197  -4.573  21.867  0.00  0.00    +0.040 C 
ATOM     18  C   UNL     1       7.511  -4.201  22.569  0.00  0.00    +0.135 C 
BRANCH  18  19
ATOM     19  O   UNL     1       7.854  -5.159  23.570  0.00  0.00    -0.368 OA
BRANCH  19  20
ATOM     20  C   UNL     1       7.216  -4.863  24.834  0.00  0.00    +0.229 C 
BRANCH  20  21
ATOM     21  P   UNL     1       8.403  -4.706  26.299  0.00  0.00    +0.134 P 
ATOM     22  O   UNL     1       7.818  -5.610  27.380  0.00  0.00    -0.458 OA
ATOM     23  O   UNL     1       8.392  -3.209  26.601  0.00  0.00    -0.356 OA
ATOM     24  O   UNL     1       9.702  -5.215  25.680  0.00  0.00    -0.356 OA
ENDBRANCH  20  21
ENDBRANCH  19  20
ENDBRANCH  18  19
ENDBRANCH  16  18
ENDBRANCH   1  16
TORSDOF 5
ENDMDL
MODEL 2
REMARK VINA RESULT:      -6.3      0.582      1.194
REMARK  Name = 
REMARK  6 active torsions:
REMARK  status: ('A' for Active; 'I' for Inactive)
REMARK    1  A    between atoms: C_1  and  C_2
REMARK    2  A    between atoms: C_2  and  C_4
REMARK    3  A    between atoms: C_2  and  O_16
REMARK    4  A    between atoms: C_4  and  N_5
REMARK    5  A    between atoms: O_16  and  C_17
REMARK    6  A    between atoms: C_17  and  P_18
REMARK                            x       y       z     vdW  Elec       q    Type
REMARK                         _______ _______ _______ _____ _____    ______ ____
ROOT
ATOM      1  N   UNL     1       8.398  -1.707  23.141  0.00  0.00    -0.312 N 
ATOM      2  C   UNL     1       8.033  -0.428  22.796  0.00  0.00    +0.167 A 
ATOM      3  N   UNL     1       6.812   0.143  22.873  0.00  0.00    -0.195 NA
ATOM      4  C   UNL     1       6.849   1.439  22.529  0.00  0.00    +0.216 A 
ATOM      5  N   UNL     1       7.920   2.153  22.131  0.00  0.00    -0.198 NA
ATOM      6  C   UNL     1       9.115   1.525  22.018  0.00  0.00    +0.149 A 
ATOM      7  N   UNL     1      10.227   2.274  21.621  0.00  0.00    -0.341 N 
ATOM      8  H   UNL     1      11.077   1.814  21.941  0.00  0.00    +0.144 HD
ATOM      9  H   UNL     1      10.109   3.233  21.919  0.00  0.00    +0.144 HD
ATOM     10  N   UNL     1       5.663   2.141  22.681  0.00  0.00    -0.327 N 
ATOM     11  H   UNL     1       5.909   3.099  22.894  0.00  0.00    +0.145 HD
ATOM     12  H   UNL     1       5.125   1.654  23.391  0.00  0.00    +0.145 HD
ATOM     13  C   UNL     1       9.200   0.169  22.365  0.00  0.00    +0.147 A 
ATOM     14  N   UNL     1      10.251  -0.723  22.377  0.00  0.00    -0.231 NA
ATOM     15  C   UNL     1       9.738  -1.826  22.888  0.00  0.00    +0.201 A 
ENDROOT
BRANCH   1  16
ATOM     16  C   UNL     1       7.477  -2.735  23.577  0.00  0.00    +0.156 C 
BRANCH  16  18
ATOM     17  C   UNL     1       6.261  -4.530  22.358  0.00  0.00    +0.040 C 
ATOM     18  C   UNL     1       7.620  -4.133  22.955  0.00  0.00    +0.135 C 
BRANCH  18  19
ATOM     19  O   UNL     1       8.043  -5.066  23.948  0.00  0.00    -0.368 OA
BRANCH  19  20
ATOM     20  C   UNL     1       7.053  -5.222  24.992  0.00  0.00    +0.229 C 
BRANCH  20  21
ATOM     21  P   UNL     1       7.680  -4.844  26.736  0.00  0.00    +0.134 P 
ATOM     22  O   UNL     1       9.182  -4.635  26.579  0.00  0.00    -0.458 OA
ATOM     23  O   UNL     1       7.255  -6.074  27.535  0.00  0.00    -0.356 OA
ATOM     24  O   UNL     1       6.892  -3.578  27.063  0.00  0.00    -0.356 OA
ENDBRANCH  20  21
ENDBRANCH  19  20
ENDBRANCH  18  19
ENDBRANCH  16  18
ENDBRANCH   1  16
TORSDOF 5
ENDMDL
MODEL 3
REMARK VINA RESULT:      -6.2      2.331      3.245
REMARK  Name = 
REMARK  6 active torsions:
REMARK  status: ('A' for Active; 'I' for Inactive)
REMARK    1  A    between atoms: C_1  and  C_2
REMARK    2  A    between atoms: C_2  and  C_4
REMARK    3  A    between atoms: C_2  and  O_16
REMARK    4  A    between atoms: C_4  and  N_5
REMARK    5  A    between atoms: O_16  and  C_17
REMARK    6  A    between atoms: C_17  and  P_18
REMARK                            x       y       z     vdW  Elec       q    Type
REMARK                         _______ _______ _______ _____ _____    ______ ____
ROOT
ATOM      1  N   UNL     1       9.636  -1.734  23.867  0.00  0.00    -0.312 N 
ATOM      2  C   UNL     1       9.287  -0.413  24.016  0.00  0.00    +0.167 A 
ATOM      3  N   UNL     1       8.680   0.179  25.067  0.00  0.00    -0.195 NA
ATOM      4  C   UNL     1       8.575   1.504  24.895  0.00  0.00    +0.216 A 
ATOM      5  N   UNL     1       8.982   2.231  23.837  0.00  0.00    -0.198 NA
ATOM      6  C   UNL     1       9.539   1.588  22.782  0.00  0.00    +0.149 A 
ATOM      7  N   UNL     1       9.976   2.349  21.693  0.00  0.00    -0.341 N 
ATOM      8  H   UNL     1      10.688   1.830  21.182  0.00  0.00    +0.144 HD
ATOM      9  H   UNL     1      10.249   3.268  22.013  0.00  0.00    +0.144 HD
ATOM     10  N   UNL     1       8.063   2.215  25.970  0.00  0.00    -0.327 N 
ATOM     11  H   UNL     1       8.487   3.134  25.949  0.00  0.00    +0.145 HD
ATOM     12  H   UNL     1       8.248   1.663  26.801  0.00  0.00    +0.145 HD
ATOM     13  C   UNL     1       9.713   0.199  22.855  0.00  0.00    +0.147 A 
ATOM     14  N   UNL     1      10.252  -0.717  21.976  0.00  0.00    -0.231 NA
ATOM     15  C   UNL     1      10.227  -1.858  22.638  0.00  0.00    +0.201 A 
ENDROOT
BRANCH   1  16
ATOM     16  C   UNL     1       9.313  -2.780  24.813  0.00  0.00    +0.156 C 
BRANCH  16  18
ATOM     17  C   UNL     1       7.613  -4.176  25.973  0.00  0.00    +0.040 C 
ATOM     18  C   UNL     1       7.977  -3.518  24.633  0.00  0.00    +0.135 C 
BRANCH  18  19
ATOM     19  O   UNL     1       8.092  -4.488  23.593  0.00  0.00    -0.368 OA
BRANCH  19  20
ATOM     20  C   UNL     1       7.279  -4.140  22.447  0.00  0.00    +0.229 C 
BRANCH  20  21
ATOM     21  P   UNL     1       5.716  -5.187  22.243  0.00  0.00    +0.134 P 
ATOM     22  O   UNL     1       5.755  -6.183  23.397  0.00  0.00    -0.458 OA
ATOM     23  O   UNL     1       5.870  -5.777  20.843  0.00  0.00    -0.356 OA
ATOM     24  O   UNL     1       4.631  -4.119  22.361  0.00  0.00    -0.356 OA
ENDBRANCH  20  21
ENDBRANCH  19  20
ENDBRANCH  18  19
ENDBRANCH  16  18
ENDBRANCH   1  16
TORSDOF 5
ENDMDL
MODEL 4
REMARK VINA RESULT:      -6.1      3.926      6.006
REMARK  Name = 
REMARK  6 active torsions:
REMARK  status: ('A' for Active; 'I' for Inactive)
REMARK    1  A    between atoms: C_1  and  C_2
REMARK    2  A    between atoms: C_2  and  C_4
REMARK    3  A    between atoms: C_2  and  O_16
REMARK    4  A    between atoms: C_4  and  N_5
REMARK    5  A    between atoms: O_16  and  C_17
REMARK    6  A    between atoms: C_17  and  P_18
REMARK                            x       y       z     vdW  Elec       q    Type
REMARK                         _______ _______ _______ _____ _____    ______ ____
ROOT
ATOM      1  N   UNL     1       8.227  -2.048  23.424  0.00  0.00    -0.312 N 
ATOM      2  C   UNL     1       7.922  -3.070  24.291  0.00  0.00    +0.167 A 
ATOM      3  N   UNL     1       6.715  -3.412  24.790  0.00  0.00    -0.195 NA
ATOM      4  C   UNL     1       6.786  -4.520  25.541  0.00  0.00    +0.216 A 
ATOM      5  N   UNL     1       7.880  -5.252  25.825  0.00  0.00    -0.198 NA
ATOM      6  C   UNL     1       9.080  -4.841  25.345  0.00  0.00    +0.149 A 
ATOM      7  N   UNL     1      10.211  -5.613  25.629  0.00  0.00    -0.341 N 
ATOM      8  H   UNL     1      10.927  -5.433  24.928  0.00  0.00    +0.144 HD
ATOM      9  H   UNL     1       9.938  -6.580  25.738  0.00  0.00    +0.144 HD
ATOM     10  N   UNL     1       5.578  -5.014  26.009  0.00  0.00    -0.327 N 
ATOM     11  H   UNL     1       5.675  -6.018  26.084  0.00  0.00    +0.145 HD
ATOM     12  H   UNL     1       4.861  -4.686  25.369  0.00  0.00    +0.145 HD
ATOM     13  C   UNL     1       9.126  -3.698  24.534  0.00  0.00    +0.147 A 
ATOM     14  N   UNL     1      10.164  -3.055  23.894  0.00  0.00    -0.231 NA
ATOM     15  C   UNL     1       9.577  -2.095  23.205  0.00  0.00    +0.201 A 
ENDROOT
BRANCH   1  16
ATOM     16  C   UNL     1       7.279  -1.062  22.951  0.00  0.00    +0.156 C 
BRANCH  16  18
ATOM     17  C   UNL     1       6.642   1.342  22.949  0.00  0.00    +0.040 C 
ATOM     18  C   UNL     1       7.002   0.152  23.851  0.00  0.00    +0.135 C 
BRANCH  18  19
ATOM     19  O   UNL     1       8.148   0.437  24.652  0.00  0.00    -0.368 OA
BRANCH  19  20
ATOM     20  C   UNL     1       8.689   1.748  24.363  0.00  0.00    +0.229 C 
BRANCH  20  21
ATOM     21  P   UNL     1      10.425   1.737  23.609  0.00  0.00    +0.134 P 
ATOM     22  O   UNL     1      11.233   0.794  24.494  0.00  0.00    -0.458 OA
ATOM     23  O   UNL     1      10.833   3.208  23.649  0.00  0.00    -0.356 OA
ATOM     24  O   UNL     1      10.133   1.202  22.210  0.00  0.00    -0.356 OA
ENDBRANCH  20  21
ENDBRANCH  19  20
ENDBRANCH  18  19
ENDBRANCH  16  18
ENDBRANCH   1  16
TORSDOF 5
ENDMDL
MODEL 5
REMARK VINA RESULT:      -6.1      1.739      2.043
REMARK  Name = 
REMARK  6 active torsions:
REMARK  status: ('A' for Active; 'I' for Inactive)
REMARK    1  A    between atoms: C_1  and  C_2
REMARK    2  A    between atoms: C_2  and  C_4
REMARK    3  A    between atoms: C_2  and  O_16
REMARK    4  A    between atoms: C_4  and  N_5
REMARK    5  A    between atoms: O_16  and  C_17
REMARK    6  A    between atoms: C_17  and  P_18
REMARK                            x       y       z     vdW  Elec       q    Type
REMARK                         _______ _______ _______ _____ _____    ______ ____
ROOT
ATOM      1  N   UNL     1       9.062  -1.736  23.476  0.00  0.00    -0.312 N 
ATOM      2  C   UNL     1       8.923  -0.400  23.768  0.00  0.00    +0.167 A 
ATOM      3  N   UNL     1       8.349   0.165  24.851  0.00  0.00    -0.195 NA
ATOM      4  C   UNL     1       8.472   1.500  24.837  0.00  0.00    +0.216 A 
ATOM      5  N   UNL     1       9.064   2.260  23.897  0.00  0.00    -0.198 NA
ATOM      6  C   UNL     1       9.581   1.655  22.800  0.00  0.00    +0.149 A 
ATOM      7  N   UNL     1      10.209   2.447  21.834  0.00  0.00    -0.341 N 
ATOM      8  H   UNL     1      10.860   1.876  21.300  0.00  0.00    +0.144 HD
ATOM      9  H   UNL     1      10.605   3.265  22.277  0.00  0.00    +0.144 HD
ATOM     10  N   UNL     1       8.009   2.163  25.964  0.00  0.00    -0.327 N 
ATOM     11  H   UNL     1       8.577   2.993  26.075  0.00  0.00    +0.145 HD
ATOM     12  H   UNL     1       8.044   1.498  26.729  0.00  0.00    +0.145 HD
ATOM     13  C   UNL     1       9.521   0.257  22.711  0.00  0.00    +0.147 A 
ATOM     14  N   UNL     1       9.964  -0.633  21.756  0.00  0.00    -0.231 NA
ATOM     15  C   UNL     1       9.708  -1.820  22.272  0.00  0.00    +0.201 A 
ENDROOT
BRANCH   1  16
ATOM     16  C   UNL     1       8.510  -2.812  24.271  0.00  0.00    +0.156 C 
BRANCH  16  18
ATOM     17  C   UNL     1       6.305  -3.518  23.364  0.00  0.00    +0.040 C 
ATOM     18  C   UNL     1       7.772  -3.939  23.532  0.00  0.00    +0.135 C 
BRANCH  18  19
ATOM     19  O   UNL     1       7.881  -5.157  24.269  0.00  0.00    -0.368 OA
BRANCH  19  20
ATOM     20  C   UNL     1       8.180  -4.912  25.664  0.00  0.00    +0.229 C 
BRANCH  20  21
ATOM     21  P   UNL     1       6.730  -5.204  26.844  0.00  0.00    +0.134 P 
ATOM     22  O   UNL     1       6.199  -3.811  27.168  0.00  0.00    -0.458 OA
ATOM     23  O   UNL     1       7.370  -5.963  28.004  0.00  0.00    -0.356 OA
ATOM     24  O   UNL     1       5.806  -6.049  25.970  0.00  0.00    -0.356 OA
ENDBRANCH  20  21
ENDBRANCH  19  20
ENDBRANCH  18  19
ENDBRANCH  16  18
ENDBRANCH   1  16
TORSDOF 5
ENDMDL
MODEL 6
REMARK VINA RESULT:      -6.1      4.053      6.362
REMARK  Name = 
REMARK  6 active torsions:
REMARK  status: ('A' for Active; 'I' for Inactive)
REMARK    1  A    between atoms: C_1  and  C_2
REMARK    2  A    between atoms: C_2  and  C_4
REMARK    3  A    between atoms: C_2  and  O_16
REMARK    4  A    between atoms: C_4  and  N_5
REMARK    5  A    between atoms: O_16  and  C_17
REMARK    6  A    between atoms: C_17  and  P_18
REMARK                            x       y       z     vdW  Elec       q    Type
REMARK                         _______ _______ _______ _____ _____    ______ ____
ROOT
ATOM      1  N   UNL     1       5.224  -4.104  24.126  0.00  0.00    -0.312 N 
ATOM      2  C   UNL     1       6.054  -4.689  25.052  0.00  0.00    +0.167 A 
ATOM      3  N   UNL     1       7.364  -4.446  25.273  0.00  0.00    -0.195 NA
ATOM      4  C   UNL     1       7.827  -5.146  26.319  0.00  0.00    +0.216 A 
ATOM      5  N   UNL     1       7.147  -6.012  27.094  0.00  0.00    -0.198 NA
ATOM      6  C   UNL     1       5.848  -6.265  26.803  0.00  0.00    +0.149 A 
ATOM      7  N   UNL     1       5.141  -7.152  27.620  0.00  0.00    -0.341 N 
ATOM      8  H   UNL     1       4.145  -6.960  27.545  0.00  0.00    +0.144 HD
ATOM      9  H   UNL     1       5.523  -7.123  28.556  0.00  0.00    +0.144 HD
ATOM     10  N   UNL     1       9.136  -4.881  26.693  0.00  0.00    -0.327 N 
ATOM     11  H   UNL     1       9.196  -5.030  27.693  0.00  0.00    +0.145 HD
ATOM     12  H   UNL     1       9.347  -3.942  26.373  0.00  0.00    +0.145 HD
ATOM     13  C   UNL     1       5.251  -5.579  25.735  0.00  0.00    +0.147 A 
ATOM     14  N   UNL     1       3.974  -5.601  25.215  0.00  0.00    -0.231 NA
ATOM     15  C   UNL     1       3.988  -4.672  24.278  0.00  0.00    +0.201 A 
ENDROOT
BRANCH   1  16
ATOM     16  C   UNL     1       5.653  -3.154  23.123  0.00  0.00    +0.156 C 
BRANCH  16  18
ATOM     17  C   UNL     1       6.041  -5.144  21.682  0.00  0.00    +0.040 C 
ATOM     18  C   UNL     1       6.465  -3.689  21.932  0.00  0.00    +0.135 C 
BRANCH  18  19
ATOM     19  O   UNL     1       7.860  -3.596  22.213  0.00  0.00    -0.368 OA
BRANCH  19  20
ATOM     20  C   UNL     1       8.291  -2.219  22.332  0.00  0.00    +0.229 C 
BRANCH  20  21
ATOM     21  P   UNL     1       9.559  -1.905  23.701  0.00  0.00    +0.134 P 
ATOM     22  O   UNL     1      10.158  -3.274  24.006  0.00  0.00    -0.458 OA
ATOM     23  O   UNL     1       8.724  -1.276  24.814  0.00  0.00    -0.356 OA
ATOM     24  O   UNL     1      10.510  -0.936  23.002  0.00  0.00    -0.356 OA
ENDBRANCH  20  21
ENDBRANCH  19  20
ENDBRANCH  18  19
ENDBRANCH  16  18
ENDBRANCH   1  16
TORSDOF 5
ENDMDL
MODEL 7
REMARK VINA RESULT:      -6.0      4.568      7.021
REMARK  Name = 
REMARK  6 active torsions:
REMARK  status: ('A' for Active; 'I' for Inactive)
REMARK    1  A    between atoms: C_1  and  C_2
REMARK    2  A    between atoms: C_2  and  C_4
REMARK    3  A    between atoms: C_2  and  O_16
REMARK    4  A    between atoms: C_4  and  N_5
REMARK    5  A    between atoms: O_16  and  C_17
REMARK    6  A    between atoms: C_17  and  P_18
REMARK                            x       y       z     vdW  Elec       q    Type
REMARK                         _______ _______ _______ _____ _____    ______ ____
ROOT
ATOM      1  N   UNL     1       8.141  -4.305  25.393  0.00  0.00    -0.312 N 
ATOM      2  C   UNL     1       6.982  -4.994  25.121  0.00  0.00    +0.167 A 
ATOM      3  N   UNL     1       6.323  -5.091  23.947  0.00  0.00    -0.195 NA
ATOM      4  C   UNL     1       5.273  -5.919  24.037  0.00  0.00    +0.216 A 
ATOM      5  N   UNL     1       4.850  -6.595  25.122  0.00  0.00    -0.198 NA
ATOM      6  C   UNL     1       5.511  -6.426  26.293  0.00  0.00    +0.149 A 
ATOM      7  N   UNL     1       5.079  -7.143  27.412  0.00  0.00    -0.341 N 
ATOM      8  H   UNL     1       5.846  -7.231  28.075  0.00  0.00    +0.144 HD
ATOM      9  H   UNL     1       4.658  -8.012  27.113  0.00  0.00    +0.144 HD
ATOM     10  N   UNL     1       4.596  -6.169  22.853  0.00  0.00    -0.327 N 
ATOM     11  H   UNL     1       4.220  -7.107  22.917  0.00  0.00    +0.145 HD
ATOM     12  H   UNL     1       5.256  -6.009  22.099  0.00  0.00    +0.145 HD
ATOM     13  C   UNL     1       6.637  -5.591  26.316  0.00  0.00    +0.147 A 
ATOM     14  N   UNL     1       7.512  -5.239  27.322  0.00  0.00    -0.231 NA
ATOM     15  C   UNL     1       8.424  -4.501  26.718  0.00  0.00    +0.201 A 
ENDROOT
BRANCH   1  16
ATOM     16  C   UNL     1       8.832  -3.455  24.448  0.00  0.00    +0.156 C 
BRANCH  16  18
ATOM     17  C   UNL     1       7.646  -1.327  24.949  0.00  0.00    +0.040 C 
ATOM     18  C   UNL     1       9.031  -1.979  24.829  0.00  0.00    +0.135 C 
BRANCH  18  19
ATOM     19  O   UNL     1       9.829  -1.325  23.843  0.00  0.00    -0.368 OA
BRANCH  19  20
ATOM     20  C   UNL     1       9.529   0.089  23.765  0.00  0.00    +0.229 C 
BRANCH  20  21
ATOM     21  P   UNL     1       9.224   0.735  22.013  0.00  0.00    +0.134 P 
ATOM     22  O   UNL     1       9.398  -0.481  21.108  0.00  0.00    -0.458 OA
ATOM     23  O   UNL     1      10.267   1.839  21.860  0.00  0.00    -0.356 OA
ATOM     24  O   UNL     1       7.787   1.237  22.132  0.00  0.00    -0.356 OA
ENDBRANCH  20  21
ENDBRANCH  19  20
ENDBRANCH  18  19
ENDBRANCH  16  18
ENDBRANCH   1  16
TORSDOF 5
ENDMDL
MODEL 8
REMARK VINA RESULT:      -5.9      2.030      2.691
REMARK  Name = 
REMARK  6 active torsions:
REMARK  status: ('A' for Active; 'I' for Inactive)
REMARK    1  A    between atoms: C_1  and  C_2
REMARK    2  A    between atoms: C_2  and  C_4
REMARK    3  A    between atoms: C_2  and  O_16
REMARK    4  A    between atoms: C_4  and  N_5
REMARK    5  A    between atoms: O_16  and  C_17
REMARK    6  A    between atoms: C_17  and  P_18
REMARK                            x       y       z     vdW  Elec       q    Type
REMARK                         _______ _______ _______ _____ _____    ______ ____
ROOT
ATOM      1  N   UNL     1       9.528   0.624  24.118  0.00  0.00    -0.312 N 
ATOM      2  C   UNL     1       8.553   1.499  23.702  0.00  0.00    +0.167 A 
ATOM      3  N   UNL     1       7.241   1.255  23.501  0.00  0.00    -0.195 NA
ATOM      4  C   UNL     1       6.574   2.373  23.177  0.00  0.00    +0.216 A 
ATOM      5  N   UNL     1       7.073   3.615  23.035  0.00  0.00    -0.198 NA
ATOM      6  C   UNL     1       8.405   3.804  23.195  0.00  0.00    +0.149 A 
ATOM      7  N   UNL     1       8.916   5.099  23.062  0.00  0.00    -0.341 N 
ATOM      8  H   UNL     1       9.798   5.167  23.566  0.00  0.00    +0.144 HD
ATOM      9  H   UNL     1       8.207   5.768  23.328  0.00  0.00    +0.144 HD
ATOM     10  N   UNL     1       5.198   2.244  23.058  0.00  0.00    -0.327 N 
ATOM     11  H   UNL     1       4.792   3.132  23.324  0.00  0.00    +0.145 HD
ATOM     12  H   UNL     1       4.929   1.448  23.626  0.00  0.00    +0.145 HD
ATOM     13  C   UNL     1       9.203   2.706  23.548  0.00  0.00    +0.147 A 
ATOM     14  N   UNL     1      10.554   2.582  23.796  0.00  0.00    -0.231 NA
ATOM     15  C   UNL     1      10.702   1.327  24.176  0.00  0.00    +0.201 A 
ENDROOT
BRANCH   1  16
ATOM     16  C   UNL     1       9.324  -0.792  24.331  0.00  0.00    +0.156 C 
BRANCH  16  18
ATOM     17  C   UNL     1       9.706  -1.466  21.967  0.00  0.00    +0.040 C 
ATOM     18  C   UNL     1      10.089  -1.769  23.423  0.00  0.00    +0.135 C 
BRANCH  18  19
ATOM     19  O   UNL     1       9.768  -3.114  23.775  0.00  0.00    -0.368 OA
BRANCH  19  20
ATOM     20  C   UNL     1       8.757  -3.168  24.810  0.00  0.00    +0.229 C 
BRANCH  20  21
ATOM     21  P   UNL     1       8.446  -4.895  25.518  0.00  0.00    +0.134 P 
ATOM     22  O   UNL     1       6.983  -5.194  25.203  0.00  0.00    -0.458 OA
ATOM     23  O   UNL     1       8.793  -4.735  26.997  0.00  0.00    -0.356 OA
ATOM     24  O   UNL     1       9.450  -5.724  24.721  0.00  0.00    -0.356 OA
ENDBRANCH  20  21
ENDBRANCH  19  20
ENDBRANCH  18  19
ENDBRANCH  16  18
ENDBRANCH   1  16
TORSDOF 5
ENDMDL
MODEL 9
REMARK VINA RESULT:      -5.9      2.150      2.632
REMARK  Name = 
REMARK  6 active torsions:
REMARK  status: ('A' for Active; 'I' for Inactive)
REMARK    1  A    between atoms: C_1  and  C_2
REMARK    2  A    between atoms: C_2  and  C_4
REMARK    3  A    between atoms: C_2  and  O_16
REMARK    4  A    between atoms: C_4  and  N_5
REMARK    5  A    between atoms: O_16  and  C_17
REMARK    6  A    between atoms: C_17  and  P_18
REMARK                            x       y       z     vdW  Elec       q    Type
REMARK                         _______ _______ _______ _____ _____    ______ ____
ROOT
ATOM      1  N   UNL     1       8.565  -1.582  23.733  0.00  0.00    -0.312 N 
ATOM      2  C   UNL     1       8.133  -0.390  23.201  0.00  0.00    +0.167 A 
ATOM      3  N   UNL     1       6.881   0.114  23.185  0.00  0.00    -0.195 NA
ATOM      4  C   UNL     1       6.851   1.345  22.654  0.00  0.00    +0.216 A 
ATOM      5  N   UNL     1       7.885   2.053  22.162  0.00  0.00    -0.198 NA
ATOM      6  C   UNL     1       9.116   1.486  22.151  0.00  0.00    +0.149 A 
ATOM      7  N   UNL     1      10.189   2.232  21.655  0.00  0.00    -0.341 N 
ATOM      8  H   UNL     1      11.058   1.874  22.045  0.00  0.00    +0.144 HD
ATOM      9  H   UNL     1      10.013   3.216  21.808  0.00  0.00    +0.144 HD
ATOM     10  N   UNL     1       5.625   1.991  22.693  0.00  0.00    -0.327 N 
ATOM     11  H   UNL     1       5.813   2.983  22.765  0.00  0.00    +0.145 HD
ATOM     12  H   UNL     1       5.104   1.584  23.463  0.00  0.00    +0.145 HD
ATOM     13  C   UNL     1       9.271   0.203  22.694  0.00  0.00    +0.147 A 
ATOM     14  N   UNL     1      10.371  -0.615  22.844  0.00  0.00    -0.231 NA
ATOM     15  C   UNL     1       9.914  -1.658  23.509  0.00  0.00    +0.201 A 
ENDROOT
BRANCH   1  16
ATOM     16  C   UNL     1       7.697  -2.586  24.310  0.00  0.00    +0.156 C 
BRANCH  16  18
ATOM     17  C   UNL     1       7.097  -3.754  22.197  0.00  0.00    +0.040 C 
ATOM     18  C   UNL     1       7.636  -3.958  23.621  0.00  0.00    +0.135 C 
BRANCH  18  19
ATOM     19  O   UNL     1       6.803  -4.843  24.369  0.00  0.00    -0.368 OA
BRANCH  19  20
ATOM     20  C   UNL     1       6.064  -5.739  23.505  0.00  0.00    +0.229 C 
BRANCH  20  21
ATOM     21  P   UNL     1       4.272  -6.043  24.033  0.00  0.00    +0.134 P 
ATOM     22  O   UNL     1       4.212  -7.525  24.390  0.00  0.00    -0.458 OA
ATOM     23  O   UNL     1       3.469  -5.617  22.806  0.00  0.00    -0.356 OA
ATOM     24  O   UNL     1       4.152  -5.096  25.224  0.00  0.00    -0.356 OA
ENDBRANCH  20  21
ENDBRANCH  19  20
ENDBRANCH  18  19
ENDBRANCH  16  18
ENDBRANCH   1  16
TORSDOF 5
ENDMDL
