MODEL 1
REMARK VINA RESULT:      -3.8      0.000      0.000
REMARK  Name = 
REMARK  2 active torsions:
REMARK  status: ('A' for Active; 'I' for Inactive)
REMARK    1  A    between atoms: O_1  and  C_2
REMARK    2  A    between atoms: C_2  and  CA_4
REMARK                            x       y       z     vdW  Elec       q    Type
REMARK                         _______ _______ _______ _____ _____    ______ ____
ROOT
ATOM      1  CA  PRO A   1       9.030   1.154  23.328  0.00  0.00    +0.163 C 
ATOM      2  N   PRO A   1       8.714  -0.234  23.794  0.00  0.00    -0.304 NA
ATOM      3  H   PRO A   1       7.756  -0.239  24.161  0.00  0.00    +0.123 HD
ATOM      4  CD  PRO A   1       9.625  -0.537  24.910  0.00  0.00    +0.082 C 
ATOM      5  CG  PRO A   1      10.760   0.461  24.827  0.00  0.00    +0.017 C 
ATOM      6  CB  PRO A   1      10.105   1.700  24.252  0.00  0.00    +0.031 C 
ENDROOT
BRANCH   1   7
ATOM      7  C   PRO A   1       9.514   1.079  21.869  0.00  0.00    +0.322 C 
ATOM      8  OXT PRO A   1       9.365   0.121  21.128  0.00  0.00    -0.249 OA
BRANCH   7   9
ATOM      9  O   PRO A   1      10.152   2.219  21.499  0.00  0.00    -0.480 OA
ATOM     10  H   PRO A   1      10.431   2.070  20.561  0.00  0.00    +0.295 HD
ENDBRANCH   7   9
ENDBRANCH   1   7
TORSDOF 2
ENDMDL
MODEL 2
REMARK VINA RESULT:      -3.7      2.321      2.840
REMARK  Name = 
REMARK  2 active torsions:
REMARK  status: ('A' for Active; 'I' for Inactive)
REMARK    1  A    between atoms: O_1  and  C_2
REMARK    2  A    between atoms: C_2  and  CA_4
REMARK                            x       y       z     vdW  Elec       q    Type
REMARK                         _______ _______ _______ _____ _____    ______ ____
ROOT
ATOM      1  CA  PRO A   1       9.763   0.717  21.720  0.00  0.00    +0.163 C 
ATOM      2  N   PRO A   1       8.631   1.506  21.138  0.00  0.00    -0.304 NA
ATOM      3  H   PRO A   1       8.973   1.986  20.298  0.00  0.00    +0.123 HD
ATOM      4  CD  PRO A   1       8.263   2.535  22.125  0.00  0.00    +0.082 C 
ATOM      5  CG  PRO A   1       8.850   2.094  23.449  0.00  0.00    +0.017 C 
ATOM      6  CB  PRO A   1      10.112   1.356  23.053  0.00  0.00    +0.031 C 
ENDROOT
BRANCH   1   7
ATOM      7  C   PRO A   1       9.303  -0.742  21.889  0.00  0.00    +0.322 C 
ATOM      8  OXT PRO A   1       8.219  -1.090  22.330  0.00  0.00    -0.249 OA
BRANCH   7   9
ATOM      9  O   PRO A   1      10.266  -1.614  21.497  0.00  0.00    -0.480 OA
ATOM     10  H   PRO A   1       9.934  -2.007  20.651  0.00  0.00    +0.295 HD
ENDBRANCH   7   9
ENDBRANCH   1   7
TORSDOF 2
ENDMDL
MODEL 3
REMARK VINA RESULT:      -3.7      1.981      2.819
REMARK  Name = 
REMARK  2 active torsions:
REMARK  status: ('A' for Active; 'I' for Inactive)
REMARK    1  A    between atoms: O_1  and  C_2
REMARK    2  A    between atoms: C_2  and  CA_4
REMARK                            x       y       z     vdW  Elec       q    Type
REMARK                         _______ _______ _______ _____ _____    ______ ____
ROOT
ATOM      1  CA  PRO A   1       8.913  -0.205  22.827  0.00  0.00    +0.163 C 
ATOM      2  N   PRO A   1       9.351   0.566  24.033  0.00  0.00    -0.304 NA
ATOM      3  H   PRO A   1       8.532   0.716  24.633  0.00  0.00    +0.123 HD
ATOM      4  CD  PRO A   1       9.813   1.884  23.565  0.00  0.00    +0.082 C 
ATOM      5  CG  PRO A   1      10.072   1.748  22.079  0.00  0.00    +0.017 C 
ATOM      6  CB  PRO A   1       9.054   0.720  21.631  0.00  0.00    +0.031 C 
ENDROOT
BRANCH   1   7
ATOM      7  C   PRO A   1       9.807  -1.450  22.694  0.00  0.00    +0.322 C 
ATOM      8  OXT PRO A   1      10.118  -2.193  23.612  0.00  0.00    -0.249 OA
BRANCH   7   9
ATOM      9  O   PRO A   1      10.232  -1.622  21.416  0.00  0.00    -0.480 OA
ATOM     10  H   PRO A   1      10.942  -0.945  21.283  0.00  0.00    +0.295 HD
ENDBRANCH   7   9
ENDBRANCH   1   7
TORSDOF 2
ENDMDL
MODEL 4
REMARK VINA RESULT:      -3.7      2.048      2.549
REMARK  Name = 
REMARK  2 active torsions:
REMARK  status: ('A' for Active; 'I' for Inactive)
REMARK    1  A    between atoms: O_1  and  C_2
REMARK    2  A    between atoms: C_2  and  CA_4
REMARK                            x       y       z     vdW  Elec       q    Type
REMARK                         _______ _______ _______ _____ _____    ______ ____
ROOT
ATOM      1  CA  PRO A   1       9.045   0.445  21.640  0.00  0.00    +0.163 C 
ATOM      2  N   PRO A   1       9.674  -0.885  21.359  0.00  0.00    -0.304 NA
ATOM      3  H   PRO A   1       9.563  -1.088  20.359  0.00  0.00    +0.123 HD
ATOM      4  CD  PRO A   1       8.913  -1.896  22.111  0.00  0.00    +0.082 C 
ATOM      5  CG  PRO A   1       8.131  -1.150  23.171  0.00  0.00    +0.017 C 
ATOM      6  CB  PRO A   1       7.836   0.187  22.522  0.00  0.00    +0.031 C 
ENDROOT
BRANCH   1   7
ATOM      7  C   PRO A   1      10.084   1.336  22.342  0.00  0.00    +0.322 C 
ATOM      8  OXT PRO A   1      10.599   1.098  23.423  0.00  0.00    -0.249 OA
BRANCH   7   9
ATOM      9  O   PRO A   1      10.356   2.449  21.613  0.00  0.00    -0.480 OA
ATOM     10  H   PRO A   1      10.387   3.190  22.269  0.00  0.00    +0.295 HD
ENDBRANCH   7   9
ENDBRANCH   1   7
TORSDOF 2
ENDMDL
MODEL 5
REMARK VINA RESULT:      -3.6      2.021      2.764
REMARK  Name = 
REMARK  2 active torsions:
REMARK  status: ('A' for Active; 'I' for Inactive)
REMARK    1  A    between atoms: O_1  and  C_2
REMARK    2  A    between atoms: C_2  and  CA_4
REMARK                            x       y       z     vdW  Elec       q    Type
REMARK                         _______ _______ _______ _____ _____    ______ ____
ROOT
ATOM      1  CA  PRO A   1      10.578  -0.227  23.398  0.00  0.00    +0.163 C 
ATOM      2  N   PRO A   1       9.945   0.789  22.498  0.00  0.00    -0.304 NA
ATOM      3  H   PRO A   1      10.667   1.463  22.218  0.00  0.00    +0.123 HD
ATOM      4  CD  PRO A   1       8.940   1.512  23.294  0.00  0.00    +0.082 C 
ATOM      5  CG  PRO A   1       8.654   0.657  24.511  0.00  0.00    +0.017 C 
ATOM      6  CB  PRO A   1       9.974  -0.036  24.779  0.00  0.00    +0.031 C 
ENDROOT
BRANCH   1   7
ATOM      7  C   PRO A   1      10.283  -1.628  22.834  0.00  0.00    +0.322 C 
ATOM      8  OXT PRO A   1      10.225  -2.653  23.494  0.00  0.00    -0.249 OA
BRANCH   7   9
ATOM      9  O   PRO A   1      10.105  -1.593  21.488  0.00  0.00    -0.480 OA
ATOM     10  H   PRO A   1       9.131  -1.468  21.357  0.00  0.00    +0.295 HD
ENDBRANCH   7   9
ENDBRANCH   1   7
TORSDOF 2
ENDMDL
MODEL 6
REMARK VINA RESULT:      -3.5      1.566      2.214
REMARK  Name = 
REMARK  2 active torsions:
REMARK  status: ('A' for Active; 'I' for Inactive)
REMARK    1  A    between atoms: O_1  and  C_2
REMARK    2  A    between atoms: C_2  and  CA_4
REMARK                            x       y       z     vdW  Elec       q    Type
REMARK                         _______ _______ _______ _____ _____    ______ ____
ROOT
ATOM      1  CA  PRO A   1      10.721   0.899  23.661  0.00  0.00    +0.163 C 
ATOM      2  N   PRO A   1      10.309   0.845  25.100  0.00  0.00    -0.304 NA
ATOM      3  H   PRO A   1      11.148   0.679  25.667  0.00  0.00    +0.123 HD
ATOM      4  CD  PRO A   1       9.421  -0.319  25.257  0.00  0.00    +0.082 C 
ATOM      5  CG  PRO A   1       8.948  -0.692  23.868  0.00  0.00    +0.017 C 
ATOM      6  CB  PRO A   1      10.114  -0.315  22.979  0.00  0.00    +0.031 C 
ENDROOT
BRANCH   1   7
ATOM      7  C   PRO A   1      10.201   2.214  23.054  0.00  0.00    +0.322 C 
ATOM      8  OXT PRO A   1       9.817   3.180  23.695  0.00  0.00    -0.249 OA
BRANCH   7   9
ATOM      9  O   PRO A   1      10.204   2.170  21.697  0.00  0.00    -0.480 OA
ATOM     10  H   PRO A   1      10.724   1.360  21.464  0.00  0.00    +0.295 HD
ENDBRANCH   7   9
ENDBRANCH   1   7
TORSDOF 2
ENDMDL
MODEL 7
REMARK VINA RESULT:      -3.5      5.622      6.659
REMARK  Name = 
REMARK  2 active torsions:
REMARK  status: ('A' for Active; 'I' for Inactive)
REMARK    1  A    between atoms: O_1  and  C_2
REMARK    2  A    between atoms: C_2  and  CA_4
REMARK                            x       y       z     vdW  Elec       q    Type
REMARK                         _______ _______ _______ _____ _____    ______ ____
ROOT
ATOM      1  CA  PRO A   1       7.654  -4.333  24.808  0.00  0.00    +0.163 C 
ATOM      2  N   PRO A   1       8.138  -3.272  23.869  0.00  0.00    -0.304 NA
ATOM      3  H   PRO A   1       7.742  -2.374  24.168  0.00  0.00    +0.123 HD
ATOM      4  CD  PRO A   1       7.592  -3.584  22.538  0.00  0.00    +0.082 C 
ATOM      5  CG  PRO A   1       7.164  -5.036  22.576  0.00  0.00    +0.017 C 
ATOM      6  CB  PRO A   1       6.736  -5.246  24.013  0.00  0.00    +0.031 C 
ENDROOT
BRANCH   1   7
ATOM      7  C   PRO A   1       8.875  -5.090  25.359  0.00  0.00    +0.322 C 
ATOM      8  OXT PRO A   1      10.008  -5.016  24.911  0.00  0.00    -0.249 OA
BRANCH   7   9
ATOM      9  O   PRO A   1       8.537  -5.877  26.413  0.00  0.00    -0.480 OA
ATOM     10  H   PRO A   1       7.610  -5.617  26.646  0.00  0.00    +0.295 HD
ENDBRANCH   7   9
ENDBRANCH   1   7
TORSDOF 2
ENDMDL
MODEL 8
REMARK VINA RESULT:      -3.4      2.423      3.119
REMARK  Name = 
REMARK  2 active torsions:
REMARK  status: ('A' for Active; 'I' for Inactive)
REMARK    1  A    between atoms: O_1  and  C_2
REMARK    2  A    between atoms: C_2  and  CA_4
REMARK                            x       y       z     vdW  Elec       q    Type
REMARK                         _______ _______ _______ _____ _____    ______ ____
ROOT
ATOM      1  CA  PRO A   1      10.441   1.484  23.622  0.00  0.00    +0.163 C 
ATOM      2  N   PRO A   1      10.501  -0.012  23.665  0.00  0.00    -0.304 NA
ATOM      3  H   PRO A   1      11.476  -0.290  23.819  0.00  0.00    +0.123 HD
ATOM      4  CD  PRO A   1      10.096  -0.504  22.338  0.00  0.00    +0.082 C 
ATOM      5  CG  PRO A   1       9.378   0.640  21.653  0.00  0.00    +0.017 C 
ATOM      6  CB  PRO A   1      10.063   1.873  22.204  0.00  0.00    +0.031 C 
ENDROOT
BRANCH   1   7
ATOM      7  C   PRO A   1       9.392   1.959  24.643  0.00  0.00    +0.322 C 
ATOM      8  OXT PRO A   1       9.050   3.118  24.811  0.00  0.00    -0.249 OA
BRANCH   7   9
ATOM      9  O   PRO A   1       8.892   0.919  25.361  0.00  0.00    -0.480 OA
ATOM     10  H   PRO A   1       9.223   0.105  24.906  0.00  0.00    +0.295 HD
ENDBRANCH   7   9
ENDBRANCH   1   7
TORSDOF 2
ENDMDL
MODEL 9
REMARK VINA RESULT:      -3.4      2.739      3.176
REMARK  Name = 
REMARK  2 active torsions:
REMARK  status: ('A' for Active; 'I' for Inactive)
REMARK    1  A    between atoms: O_1  and  C_2
REMARK    2  A    between atoms: C_2  and  CA_4
REMARK                            x       y       z     vdW  Elec       q    Type
REMARK                         _______ _______ _______ _____ _____    ______ ____
ROOT
ATOM      1  CA  PRO A   1       8.574   2.543  22.377  0.00  0.00    +0.163 C 
ATOM      2  N   PRO A   1       9.618   1.923  21.502  0.00  0.00    -0.304 NA
ATOM      3  H   PRO A   1       9.504   2.296  20.553  0.00  0.00    +0.123 HD
ATOM      4  CD  PRO A   1       9.346   0.477  21.454  0.00  0.00    +0.082 C 
ATOM      5  CG  PRO A   1       8.438   0.169  22.625  0.00  0.00    +0.017 C 
ATOM      6  CB  PRO A   1       7.621   1.434  22.788  0.00  0.00    +0.031 C 
ENDROOT
BRANCH   1   7
ATOM      7  C   PRO A   1       9.271   3.177  23.594  0.00  0.00    +0.322 C 
ATOM      8  OXT PRO A   1       8.946   3.006  24.758  0.00  0.00    -0.249 OA
BRANCH   7   9
ATOM      9  O   PRO A   1      10.301   3.976  23.214  0.00  0.00    -0.480 OA
ATOM     10  H   PRO A   1      10.445   4.595  23.974  0.00  0.00    +0.295 HD
ENDBRANCH   7   9
ENDBRANCH   1   7
TORSDOF 2
ENDMDL
