MODEL 1
REMARK VINA RESULT:      -5.7      0.000      0.000
REMARK  Name = 
REMARK  7 active torsions:
REMARK  status: ('A' for Active; 'I' for Inactive)
REMARK    1  A    between atoms: O_1  and  P_2
REMARK    2  A    between atoms: P_2  and  O_4
REMARK    3  A    between atoms: P_2  and  O_12
REMARK    4  A    between atoms: O_4  and  C_5
REMARK    5  A    between atoms: C_5  and  C_6
REMARK    6  A    between atoms: O_12  and  C_13
REMARK    7  A    between atoms: C_14  and  C_15
REMARK                            x       y       z     vdW  Elec       q    Type
REMARK                         _______ _______ _______ _____ _____    ______ ____
ROOT
ATOM      1  P   UNL     1       8.054  -4.983  26.359  0.00  0.00    +0.531 P 
ATOM      2  O   UNL     1       7.543  -5.791  27.551  0.00  0.00    -0.215 OA
ENDROOT
BRANCH   1   3
ATOM      3  O   UNL     1       9.565  -4.771  27.176  0.00  0.00    -0.293 OA
ATOM      4  H   UNL     1      10.017  -3.955  26.894  0.00  0.00    +0.223 HD
ENDBRANCH   1   3
BRANCH   1   5
ATOM      5  O   UNL     1       6.544  -5.195  25.543  0.00  0.00    -0.403 OA
BRANCH   5   6
ATOM      6  C   UNL     1       6.406  -4.746  24.254  0.00  0.00    +0.142 A 
ATOM      7  C   UNL     1       7.250  -5.185  23.231  0.00  0.00    +0.047 A 
ATOM      8  C   UNL     1       7.060  -4.733  21.923  0.00  0.00    +0.004 A 
ATOM      9  C   UNL     1       6.034  -3.834  21.633  0.00  0.00    +0.001 A 
ATOM     10  C   UNL     1       5.212  -3.364  22.654  0.00  0.00    +0.015 A 
ATOM     11  C   UNL     1       5.405  -3.809  23.972  0.00  0.00    +0.056 A 
BRANCH  11  12
ATOM     12  C   UNL     1       4.540  -3.259  25.038  0.00  0.00    +0.262 C 
ATOM     13  O   UNL     1       3.332  -3.141  24.891  0.00  0.00    -0.296 OA
ENDBRANCH  11  12
ENDBRANCH   5   6
ENDBRANCH   1   5
BRANCH   1  14
ATOM     14  O   UNL     1       7.716  -3.377  26.587  0.00  0.00    -0.272 OA
BRANCH  14  15
ATOM     15  C   UNL     1       8.673  -2.351  26.279  0.00  0.00    +0.208 C 
BRANCH  15  16
ATOM     16  C   UNL     1       8.636  -1.996  24.796  0.00  0.00    -0.021 A 
ATOM     17  C   UNL     1       7.674  -1.100  24.292  0.00  0.00    +0.006 A 
ATOM     18  C   UNL     1       7.771  -0.619  22.981  0.00  0.00    +0.000 A 
ATOM     19  C   UNL     1       8.820  -1.030  22.161  0.00  0.00    +0.000 A 
ATOM     20  C   UNL     1       9.756  -1.946  22.637  0.00  0.00    +0.000 A 
ATOM     21  C   UNL     1       9.653  -2.442  23.939  0.00  0.00    +0.006 A 
ENDBRANCH  15  16
ENDBRANCH  14  15
ENDBRANCH   1  14
TORSDOF 7
ENDMDL
MODEL 2
REMARK VINA RESULT:      -5.5      1.656      1.955
REMARK  Name = 
REMARK  7 active torsions:
REMARK  status: ('A' for Active; 'I' for Inactive)
REMARK    1  A    between atoms: O_1  and  P_2
REMARK    2  A    between atoms: P_2  and  O_4
REMARK    3  A    between atoms: P_2  and  O_12
REMARK    4  A    between atoms: O_4  and  C_5
REMARK    5  A    between atoms: C_5  and  C_6
REMARK    6  A    between atoms: O_12  and  C_13
REMARK    7  A    between atoms: C_14  and  C_15
REMARK                            x       y       z     vdW  Elec       q    Type
REMARK                         _______ _______ _______ _____ _____    ______ ____
ROOT
ATOM      1  P   UNL     1       9.066  -5.025  25.301  0.00  0.00    +0.531 P 
ATOM      2  O   UNL     1       8.846  -4.643  26.763  0.00  0.00    -0.215 OA
ENDROOT
BRANCH   1   3
ATOM      3  O   UNL     1      10.665  -5.552  25.699  0.00  0.00    -0.293 OA
ATOM      4  H   UNL     1      11.179  -4.849  26.137  0.00  0.00    +0.223 HD
ENDBRANCH   1   3
BRANCH   1   5
ATOM      5  O   UNL     1       7.467  -4.498  24.902  0.00  0.00    -0.403 OA
BRANCH   5   6
ATOM      6  C   UNL     1       7.028  -4.599  23.607  0.00  0.00    +0.142 A 
ATOM      7  C   UNL     1       7.448  -5.636  22.770  0.00  0.00    +0.047 A 
ATOM      8  C   UNL     1       6.954  -5.728  21.466  0.00  0.00    +0.004 A 
ATOM      9  C   UNL     1       6.047  -4.781  20.991  0.00  0.00    +0.001 A 
ATOM     10  C   UNL     1       5.653  -3.724  21.808  0.00  0.00    +0.015 A 
ATOM     11  C   UNL     1       6.153  -3.623  23.115  0.00  0.00    +0.056 A 
BRANCH  11  12
ATOM     12  C   UNL     1       5.744  -2.467  23.942  0.00  0.00    +0.262 C 
ATOM     13  O   UNL     1       6.209  -1.350  23.763  0.00  0.00    -0.296 OA
ENDBRANCH  11  12
ENDBRANCH   5   6
ENDBRANCH   1   5
BRANCH   1  14
ATOM     14  O   UNL     1       9.706  -3.737  24.476  0.00  0.00    -0.272 OA
BRANCH  14  15
ATOM     15  C   UNL     1       9.483  -2.383  24.899  0.00  0.00    +0.208 C 
BRANCH  15  16
ATOM     16  C   UNL     1       9.714  -1.406  23.750  0.00  0.00    -0.021 A 
ATOM     17  C   UNL     1       9.327  -1.732  22.436  0.00  0.00    +0.006 A 
ATOM     18  C   UNL     1       9.350  -0.760  21.429  0.00  0.00    +0.000 A 
ATOM     19  C   UNL     1       9.763   0.538  21.719  0.00  0.00    +0.000 A 
ATOM     20  C   UNL     1      10.184   0.863  23.007  0.00  0.00    +0.000 A 
ATOM     21  C   UNL     1      10.179  -0.109  24.012  0.00  0.00    +0.006 A 
ENDBRANCH  15  16
ENDBRANCH  14  15
ENDBRANCH   1  14
TORSDOF 7
ENDMDL
MODEL 3
REMARK VINA RESULT:      -5.5      2.179      2.969
REMARK  Name = 
REMARK  7 active torsions:
REMARK  status: ('A' for Active; 'I' for Inactive)
REMARK    1  A    between atoms: O_1  and  P_2
REMARK    2  A    between atoms: P_2  and  O_4
REMARK    3  A    between atoms: P_2  and  O_12
REMARK    4  A    between atoms: O_4  and  C_5
REMARK    5  A    between atoms: C_5  and  C_6
REMARK    6  A    between atoms: O_12  and  C_13
REMARK    7  A    between atoms: C_14  and  C_15
REMARK                            x       y       z     vdW  Elec       q    Type
REMARK                         _______ _______ _______ _____ _____    ______ ____
ROOT
ATOM      1  P   UNL     1       8.961  -4.951  25.185  0.00  0.00    +0.531 P 
ATOM      2  O   UNL     1       8.929  -4.384  26.603  0.00  0.00    -0.215 OA
ENDROOT
BRANCH   1   3
ATOM      3  O   UNL     1      10.582  -5.489  25.458  0.00  0.00    -0.293 OA
ATOM      4  H   UNL     1      11.229  -4.773  25.321  0.00  0.00    +0.223 HD
ENDBRANCH   1   3
BRANCH   1   5
ATOM      5  O   UNL     1       7.340  -4.412  24.912  0.00  0.00    -0.403 OA
BRANCH   5   6
ATOM      6  C   UNL     1       6.302  -5.298  25.053  0.00  0.00    +0.142 A 
ATOM      7  C   UNL     1       5.973  -5.850  26.293  0.00  0.00    +0.047 A 
ATOM      8  C   UNL     1       4.889  -6.724  26.406  0.00  0.00    +0.004 A 
ATOM      9  C   UNL     1       4.137  -7.059  25.281  0.00  0.00    +0.001 A 
ATOM     10  C   UNL     1       4.482  -6.541  24.035  0.00  0.00    +0.015 A 
ATOM     11  C   UNL     1       5.576  -5.669  23.915  0.00  0.00    +0.056 A 
BRANCH  11  12
ATOM     12  C   UNL     1       5.938  -5.170  22.571  0.00  0.00    +0.262 C 
ATOM     13  O   UNL     1       5.240  -4.364  21.973  0.00  0.00    -0.296 OA
ENDBRANCH  11  12
ENDBRANCH   5   6
ENDBRANCH   1   5
BRANCH   1  14
ATOM     14  O   UNL     1       9.529  -3.800  24.136  0.00  0.00    -0.272 OA
BRANCH  14  15
ATOM     15  C   UNL     1       8.646  -2.890  23.461  0.00  0.00    +0.208 C 
BRANCH  15  16
ATOM     16  C   UNL     1       9.336  -1.555  23.194  0.00  0.00    -0.021 A 
ATOM     17  C   UNL     1       9.265  -0.947  21.926  0.00  0.00    +0.006 A 
ATOM     18  C   UNL     1       9.719   0.364  21.742  0.00  0.00    +0.000 A 
ATOM     19  C   UNL     1      10.250   1.077  22.815  0.00  0.00    +0.000 A 
ATOM     20  C   UNL     1      10.360   0.472  24.065  0.00  0.00    +0.000 A 
ATOM     21  C   UNL     1       9.925  -0.843  24.249  0.00  0.00    +0.006 A 
ENDBRANCH  15  16
ENDBRANCH  14  15
ENDBRANCH   1  14
TORSDOF 7
ENDMDL
MODEL 4
REMARK VINA RESULT:      -5.4      1.641      4.195
REMARK  Name = 
REMARK  7 active torsions:
REMARK  status: ('A' for Active; 'I' for Inactive)
REMARK    1  A    between atoms: O_1  and  P_2
REMARK    2  A    between atoms: P_2  and  O_4
REMARK    3  A    between atoms: P_2  and  O_12
REMARK    4  A    between atoms: O_4  and  C_5
REMARK    5  A    between atoms: C_5  and  C_6
REMARK    6  A    between atoms: O_12  and  C_13
REMARK    7  A    between atoms: C_14  and  C_15
REMARK                            x       y       z     vdW  Elec       q    Type
REMARK                         _______ _______ _______ _____ _____    ______ ____
ROOT
ATOM      1  P   UNL     1       6.137  -5.073  27.586  0.00  0.00    +0.531 P 
ATOM      2  O   UNL     1       6.588  -5.838  28.829  0.00  0.00    -0.215 OA
ENDROOT
BRANCH   1   3
ATOM      3  O   UNL     1       4.531  -5.671  27.825  0.00  0.00    -0.293 OA
ATOM      4  H   UNL     1       3.994  -5.601  27.014  0.00  0.00    +0.223 HD
ENDBRANCH   1   3
BRANCH   1   5
ATOM      5  O   UNL     1       7.743  -4.476  27.348  0.00  0.00    -0.403 OA
BRANCH   5   6
ATOM      6  C   UNL     1       7.972  -3.524  26.388  0.00  0.00    +0.142 A 
ATOM      7  C   UNL     1       7.263  -2.321  26.366  0.00  0.00    +0.047 A 
ATOM      8  C   UNL     1       7.545  -1.358  25.393  0.00  0.00    +0.004 A 
ATOM      9  C   UNL     1       8.528  -1.597  24.434  0.00  0.00    +0.001 A 
ATOM     10  C   UNL     1       9.213  -2.810  24.427  0.00  0.00    +0.015 A 
ATOM     11  C   UNL     1       8.927  -3.783  25.398  0.00  0.00    +0.056 A 
BRANCH  11  12
ATOM     12  C   UNL     1       9.645  -5.074  25.338  0.00  0.00    +0.262 C 
ATOM     13  O   UNL     1       9.521  -5.838  24.391  0.00  0.00    -0.296 OA
ENDBRANCH  11  12
ENDBRANCH   5   6
ENDBRANCH   1   5
BRANCH   1  14
ATOM     14  O   UNL     1       6.288  -6.041  26.249  0.00  0.00    -0.272 OA
BRANCH  14  15
ATOM     15  C   UNL     1       5.243  -6.147  25.271  0.00  0.00    +0.208 C 
BRANCH  15  16
ATOM     16  C   UNL     1       5.531  -5.259  24.063  0.00  0.00    -0.021 A 
ATOM     17  C   UNL     1       4.975  -3.970  23.966  0.00  0.00    +0.006 A 
ATOM     18  C   UNL     1       5.404  -3.087  22.968  0.00  0.00    +0.000 A 
ATOM     19  C   UNL     1       6.381  -3.482  22.057  0.00  0.00    +0.000 A 
ATOM     20  C   UNL     1       6.910  -4.769  22.120  0.00  0.00    +0.000 A 
ATOM     21  C   UNL     1       6.473  -5.660  23.105  0.00  0.00    +0.006 A 
ENDBRANCH  15  16
ENDBRANCH  14  15
ENDBRANCH   1  14
TORSDOF 7
ENDMDL
MODEL 5
REMARK VINA RESULT:      -5.3      2.822      4.637
REMARK  Name = 
REMARK  7 active torsions:
REMARK  status: ('A' for Active; 'I' for Inactive)
REMARK    1  A    between atoms: O_1  and  P_2
REMARK    2  A    between atoms: P_2  and  O_4
REMARK    3  A    between atoms: P_2  and  O_12
REMARK    4  A    between atoms: O_4  and  C_5
REMARK    5  A    between atoms: C_5  and  C_6
REMARK    6  A    between atoms: O_12  and  C_13
REMARK    7  A    between atoms: C_14  and  C_15
REMARK                            x       y       z     vdW  Elec       q    Type
REMARK                         _______ _______ _______ _____ _____    ______ ____
ROOT
ATOM      1  P   UNL     1       9.815  -1.707  23.200  0.00  0.00    +0.531 P 
ATOM      2  O   UNL     1      10.366  -0.298  23.407  0.00  0.00    -0.215 OA
ENDROOT
BRANCH   1   3
ATOM      3  O   UNL     1      10.095  -1.547  21.500  0.00  0.00    -0.293 OA
ATOM      4  H   UNL     1       9.262  -1.562  20.993  0.00  0.00    +0.223 HD
ENDBRANCH   1   3
BRANCH   1   5
ATOM      5  O   UNL     1       9.535  -1.868  24.900  0.00  0.00    -0.403 OA
BRANCH   5   6
ATOM      6  C   UNL     1       8.928  -3.001  25.379  0.00  0.00    +0.142 A 
ATOM      7  C   UNL     1       9.372  -4.276  25.022  0.00  0.00    +0.047 A 
ATOM      8  C   UNL     1       8.751  -5.409  25.555  0.00  0.00    +0.004 A 
ATOM      9  C   UNL     1       7.679  -5.273  26.437  0.00  0.00    +0.001 A 
ATOM     10  C   UNL     1       7.208  -4.004  26.767  0.00  0.00    +0.015 A 
ATOM     11  C   UNL     1       7.823  -2.864  26.228  0.00  0.00    +0.056 A 
BRANCH  11  12
ATOM     12  C   UNL     1       7.272  -1.534  26.568  0.00  0.00    +0.262 C 
ATOM     13  O   UNL     1       6.429  -0.988  25.871  0.00  0.00    -0.296 OA
ENDBRANCH  11  12
ENDBRANCH   5   6
ENDBRANCH   1   5
BRANCH   1  14
ATOM     14  O   UNL     1       8.181  -1.635  22.929  0.00  0.00    -0.272 OA
BRANCH  14  15
ATOM     15  C   UNL     1       7.546  -2.437  21.921  0.00  0.00    +0.208 C 
BRANCH  15  16
ATOM     16  C   UNL     1       6.788  -3.604  22.548  0.00  0.00    -0.021 A 
ATOM     17  C   UNL     1       5.658  -3.379  23.357  0.00  0.00    +0.006 A 
ATOM     18  C   UNL     1       4.848  -4.449  23.757  0.00  0.00    +0.000 A 
ATOM     19  C   UNL     1       5.160  -5.747  23.361  0.00  0.00    +0.000 A 
ATOM     20  C   UNL     1       6.296  -5.986  22.592  0.00  0.00    +0.000 A 
ATOM     21  C   UNL     1       7.117  -4.923  22.205  0.00  0.00    +0.006 A 
ENDBRANCH  15  16
ENDBRANCH  14  15
ENDBRANCH   1  14
TORSDOF 7
ENDMDL
MODEL 6
REMARK VINA RESULT:      -5.3      2.256      3.219
REMARK  Name = 
REMARK  7 active torsions:
REMARK  status: ('A' for Active; 'I' for Inactive)
REMARK    1  A    between atoms: O_1  and  P_2
REMARK    2  A    between atoms: P_2  and  O_4
REMARK    3  A    between atoms: P_2  and  O_12
REMARK    4  A    between atoms: O_4  and  C_5
REMARK    5  A    between atoms: C_5  and  C_6
REMARK    6  A    between atoms: O_12  and  C_13
REMARK    7  A    between atoms: C_14  and  C_15
REMARK                            x       y       z     vdW  Elec       q    Type
REMARK                         _______ _______ _______ _____ _____    ______ ____
ROOT
ATOM      1  P   UNL     1       8.739  -4.588  25.368  0.00  0.00    +0.531 P 
ATOM      2  O   UNL     1       9.200  -4.531  26.823  0.00  0.00    -0.215 OA
ENDROOT
BRANCH   1   3
ATOM      3  O   UNL     1      10.368  -4.915  24.885  0.00  0.00    -0.293 OA
ATOM      4  H   UNL     1      10.423  -5.165  23.944  0.00  0.00    +0.223 HD
ENDBRANCH   1   3
BRANCH   1   5
ATOM      5  O   UNL     1       7.111  -4.261  25.851  0.00  0.00    -0.403 OA
BRANCH   5   6
ATOM      6  C   UNL     1       6.133  -5.190  25.597  0.00  0.00    +0.142 A 
ATOM      7  C   UNL     1       5.642  -5.402  24.307  0.00  0.00    +0.047 A 
ATOM      8  C   UNL     1       4.670  -6.380  24.079  0.00  0.00    +0.004 A 
ATOM      9  C   UNL     1       4.178  -7.140  25.139  0.00  0.00    +0.001 A 
ATOM     10  C   UNL     1       4.636  -6.908  26.434  0.00  0.00    +0.015 A 
ATOM     11  C   UNL     1       5.607  -5.921  26.669  0.00  0.00    +0.056 A 
BRANCH  11  12
ATOM     12  C   UNL     1       6.042  -5.674  28.060  0.00  0.00    +0.262 C 
ATOM     13  O   UNL     1       6.951  -6.310  28.574  0.00  0.00    -0.296 OA
ENDBRANCH  11  12
ENDBRANCH   5   6
ENDBRANCH   1   5
BRANCH   1  14
ATOM     14  O   UNL     1       8.850  -3.080  24.688  0.00  0.00    -0.272 OA
BRANCH  14  15
ATOM     15  C   UNL     1       9.978  -2.692  23.888  0.00  0.00    +0.208 C 
BRANCH  15  16
ATOM     16  C   UNL     1       9.898  -1.216  23.510  0.00  0.00    -0.021 A 
ATOM     17  C   UNL     1      10.223  -0.213  24.442  0.00  0.00    +0.006 A 
ATOM     18  C   UNL     1      10.348   1.120  24.034  0.00  0.00    +0.000 A 
ATOM     19  C   UNL     1      10.146   1.465  22.700  0.00  0.00    +0.000 A 
ATOM     20  C   UNL     1       9.788   0.487  21.776  0.00  0.00    +0.000 A 
ATOM     21  C   UNL     1       9.644  -0.843  22.182  0.00  0.00    +0.006 A 
ENDBRANCH  15  16
ENDBRANCH  14  15
ENDBRANCH   1  14
TORSDOF 7
ENDMDL
MODEL 7
REMARK VINA RESULT:      -5.2      2.035      3.235
REMARK  Name = 
REMARK  7 active torsions:
REMARK  status: ('A' for Active; 'I' for Inactive)
REMARK    1  A    between atoms: O_1  and  P_2
REMARK    2  A    between atoms: P_2  and  O_4
REMARK    3  A    between atoms: P_2  and  O_12
REMARK    4  A    between atoms: O_4  and  C_5
REMARK    5  A    between atoms: C_5  and  C_6
REMARK    6  A    between atoms: O_12  and  C_13
REMARK    7  A    between atoms: C_14  and  C_15
REMARK                            x       y       z     vdW  Elec       q    Type
REMARK                         _______ _______ _______ _____ _____    ______ ____
ROOT
ATOM      1  P   UNL     1       8.709  -4.317  24.952  0.00  0.00    +0.531 P 
ATOM      2  O   UNL     1       8.628  -4.597  26.451  0.00  0.00    -0.215 OA
ENDROOT
BRANCH   1   3
ATOM      3  O   UNL     1      10.310  -4.973  24.936  0.00  0.00    -0.293 OA
ATOM      4  H   UNL     1      10.927  -4.408  24.435  0.00  0.00    +0.223 HD
ENDBRANCH   1   3
BRANCH   1   5
ATOM      5  O   UNL     1       7.109  -3.660  24.969  0.00  0.00    -0.403 OA
BRANCH   5   6
ATOM      6  C   UNL     1       6.930  -2.315  24.770  0.00  0.00    +0.142 A 
ATOM      7  C   UNL     1       7.051  -1.397  25.816  0.00  0.00    +0.047 A 
ATOM      8  C   UNL     1       6.895  -0.031  25.571  0.00  0.00    +0.004 A 
ATOM      9  C   UNL     1       6.608   0.424  24.285  0.00  0.00    +0.001 A 
ATOM     10  C   UNL     1       6.449  -0.489  23.244  0.00  0.00    +0.015 A 
ATOM     11  C   UNL     1       6.596  -1.864  23.487  0.00  0.00    +0.056 A 
BRANCH  11  12
ATOM     12  C   UNL     1       6.382  -2.807  22.369  0.00  0.00    +0.262 C 
ATOM     13  O   UNL     1       5.275  -3.261  22.111  0.00  0.00    -0.296 OA
ENDBRANCH  11  12
ENDBRANCH   5   6
ENDBRANCH   1   5
BRANCH   1  14
ATOM     14  O   UNL     1       9.337  -2.803  24.701  0.00  0.00    -0.272 OA
BRANCH  14  15
ATOM     15  C   UNL     1      10.177  -2.511  23.574  0.00  0.00    +0.208 C 
BRANCH  15  16
ATOM     16  C   UNL     1      10.202  -1.013  23.283  0.00  0.00    -0.021 A 
ATOM     17  C   UNL     1       9.873  -0.521  22.005  0.00  0.00    +0.006 A 
ATOM     18  C   UNL     1       9.696   0.853  21.800  0.00  0.00    +0.000 A 
ATOM     19  C   UNL     1       9.851   1.744  22.859  0.00  0.00    +0.000 A 
ATOM     20  C   UNL     1      10.213   1.271  24.118  0.00  0.00    +0.000 A 
ATOM     21  C   UNL     1      10.408  -0.097  24.324  0.00  0.00    +0.006 A 
ENDBRANCH  15  16
ENDBRANCH  14  15
ENDBRANCH   1  14
TORSDOF 7
ENDMDL
MODEL 8
REMARK VINA RESULT:      -5.1      2.595      4.426
REMARK  Name = 
REMARK  7 active torsions:
REMARK  status: ('A' for Active; 'I' for Inactive)
REMARK    1  A    between atoms: O_1  and  P_2
REMARK    2  A    between atoms: P_2  and  O_4
REMARK    3  A    between atoms: P_2  and  O_12
REMARK    4  A    between atoms: O_4  and  C_5
REMARK    5  A    between atoms: C_5  and  C_6
REMARK    6  A    between atoms: O_12  and  C_13
REMARK    7  A    between atoms: C_14  and  C_15
REMARK                            x       y       z     vdW  Elec       q    Type
REMARK                         _______ _______ _______ _____ _____    ______ ____
ROOT
ATOM      1  P   UNL     1       6.150  -4.609  22.178  0.00  0.00    +0.531 P 
ATOM      2  O   UNL     1       6.366  -5.681  21.111  0.00  0.00    -0.215 OA
ENDROOT
BRANCH   1   3
ATOM      3  O   UNL     1       5.585  -3.530  20.950  0.00  0.00    -0.293 OA
ATOM      4  H   UNL     1       5.886  -2.615  21.105  0.00  0.00    +0.223 HD
ENDBRANCH   1   3
BRANCH   1   5
ATOM      5  O   UNL     1       6.716  -5.689  23.405  0.00  0.00    -0.403 OA
BRANCH   5   6
ATOM      6  C   UNL     1       6.639  -5.312  24.722  0.00  0.00    +0.142 A 
ATOM      7  C   UNL     1       5.421  -4.983  25.320  0.00  0.00    +0.047 A 
ATOM      8  C   UNL     1       5.375  -4.635  26.672  0.00  0.00    +0.004 A 
ATOM      9  C   UNL     1       6.545  -4.605  27.429  0.00  0.00    +0.001 A 
ATOM     10  C   UNL     1       7.768  -4.897  26.830  0.00  0.00    +0.015 A 
ATOM     11  C   UNL     1       7.820  -5.239  25.470  0.00  0.00    +0.056 A 
BRANCH  11  12
ATOM     12  C   UNL     1       9.140  -5.504  24.856  0.00  0.00    +0.262 C 
ATOM     13  O   UNL     1      10.152  -4.927  25.229  0.00  0.00    -0.296 OA
ENDBRANCH  11  12
ENDBRANCH   5   6
ENDBRANCH   1   5
BRANCH   1  14
ATOM     14  O   UNL     1       7.523  -3.695  22.337  0.00  0.00    -0.272 OA
BRANCH  14  15
ATOM     15  C   UNL     1       7.476  -2.260  22.369  0.00  0.00    +0.208 C 
BRANCH  15  16
ATOM     16  C   UNL     1       7.463  -1.745  23.806  0.00  0.00    -0.021 A 
ATOM     17  C   UNL     1       6.251  -1.423  24.446  0.00  0.00    +0.006 A 
ATOM     18  C   UNL     1       6.225  -1.151  25.819  0.00  0.00    +0.000 A 
ATOM     19  C   UNL     1       7.403  -1.193  26.562  0.00  0.00    +0.000 A 
ATOM     20  C   UNL     1       8.613  -1.473  25.932  0.00  0.00    +0.000 A 
ATOM     21  C   UNL     1       8.646  -1.728  24.558  0.00  0.00    +0.006 A 
ENDBRANCH  15  16
ENDBRANCH  14  15
ENDBRANCH   1  14
TORSDOF 7
ENDMDL
MODEL 9
REMARK VINA RESULT:      -5.0      2.749      3.963
REMARK  Name = 
REMARK  7 active torsions:
REMARK  status: ('A' for Active; 'I' for Inactive)
REMARK    1  A    between atoms: O_1  and  P_2
REMARK    2  A    between atoms: P_2  and  O_4
REMARK    3  A    between atoms: P_2  and  O_12
REMARK    4  A    between atoms: O_4  and  C_5
REMARK    5  A    between atoms: C_5  and  C_6
REMARK    6  A    between atoms: O_12  and  C_13
REMARK    7  A    between atoms: C_14  and  C_15
REMARK                            x       y       z     vdW  Elec       q    Type
REMARK                         _______ _______ _______ _____ _____    ______ ____
ROOT
ATOM      1  P   UNL     1       6.726  -2.815  23.245  0.00  0.00    +0.531 P 
ATOM      2  O   UNL     1       6.491  -3.218  21.790  0.00  0.00    -0.215 OA
ENDROOT
BRANCH   1   3
ATOM      3  O   UNL     1       6.302  -1.187  22.841  0.00  0.00    -0.293 OA
ATOM      4  H   UNL     1       5.393  -0.970  23.121  0.00  0.00    +0.223 HD
ENDBRANCH   1   3
BRANCH   1   5
ATOM      5  O   UNL     1       7.151  -4.442  23.648  0.00  0.00    -0.403 OA
BRANCH   5   6
ATOM      6  C   UNL     1       6.217  -5.256  24.237  0.00  0.00    +0.142 A 
ATOM      7  C   UNL     1       5.181  -5.835  23.500  0.00  0.00    +0.047 A 
ATOM      8  C   UNL     1       4.267  -6.686  24.126  0.00  0.00    +0.004 A 
ATOM      9  C   UNL     1       4.377  -6.954  25.489  0.00  0.00    +0.001 A 
ATOM     10  C   UNL     1       5.385  -6.351  26.237  0.00  0.00    +0.015 A 
ATOM     11  C   UNL     1       6.301  -5.489  25.615  0.00  0.00    +0.056 A 
BRANCH  11  12
ATOM     12  C   UNL     1       7.335  -4.835  26.446  0.00  0.00    +0.262 C 
ATOM     13  O   UNL     1       7.535  -5.167  27.606  0.00  0.00    -0.296 OA
ENDBRANCH  11  12
ENDBRANCH   5   6
ENDBRANCH   1   5
BRANCH   1  14
ATOM     14  O   UNL     1       8.303  -2.344  23.446  0.00  0.00    -0.272 OA
BRANCH  14  15
ATOM     15  C   UNL     1       9.097  -1.873  22.347  0.00  0.00    +0.208 C 
BRANCH  15  16
ATOM     16  C   UNL     1       9.725  -0.519  22.666  0.00  0.00    -0.021 A 
ATOM     17  C   UNL     1       9.664   0.541  21.741  0.00  0.00    +0.006 A 
ATOM     18  C   UNL     1      10.055   1.832  22.116  0.00  0.00    +0.000 A 
ATOM     19  C   UNL     1      10.514   2.076  23.409  0.00  0.00    +0.000 A 
ATOM     20  C   UNL     1      10.614   1.027  24.320  0.00  0.00    +0.000 A 
ATOM     21  C   UNL     1      10.242  -0.267  23.945  0.00  0.00    +0.006 A 
ENDBRANCH  15  16
ENDBRANCH  14  15
ENDBRANCH   1  14
TORSDOF 7
ENDMDL
