MODEL 1
REMARK VINA RESULT:      -3.8      0.000      0.000
REMARK  Name = 
REMARK  6 active torsions:
REMARK  status: ('A' for Active; 'I' for Inactive)
REMARK    1  A    between atoms: O_1  and  C_2
REMARK    2  A    between atoms: C_2  and  C_3
REMARK    3  A    between atoms: C_3  and  C_4
REMARK    4  A    between atoms: C_4  and  C_5
REMARK    5  A    between atoms: C_5  and  C_6
REMARK    6  A    between atoms: C_6  and  O_7
REMARK                            x       y       z     vdW  Elec       q    Type
REMARK                         _______ _______ _______ _____ _____    ______ ____
ROOT
ATOM      1  C   UNL     1      10.581   0.234  24.512  0.00  0.00    +0.013 C 
ENDROOT
BRANCH   1   2
ATOM      2  C   UNL     1      10.607   1.648  23.923  0.00  0.00    +0.028 C 
BRANCH   2   3
ATOM      3  C   UNL     1       9.578   1.827  22.815  0.00  0.00    +0.156 C 
BRANCH   3   4
ATOM      4  O   UNL     1      10.233   2.214  21.614  0.00  0.00    -0.395 OA
ATOM      5  H   UNL     1      10.511   1.397  21.166  0.00  0.00    +0.209 HD
ENDBRANCH   3   4
ENDBRANCH   2   3
ENDBRANCH   1   2
BRANCH   1   6
ATOM      6  C   UNL     1       9.502  -0.618  23.850  0.00  0.00    +0.120 C 
BRANCH   6   7
ATOM      7  C   UNL     1      10.081  -1.844  23.187  0.00  0.00    +0.305 C 
ATOM      8  O   UNL     1      10.238  -2.914  23.757  0.00  0.00    -0.251 OA
BRANCH   7   9
ATOM      9  O   UNL     1      10.447  -1.646  21.902  0.00  0.00    -0.481 OA
ATOM     10  H   UNL     1      11.287  -1.161  21.800  0.00  0.00    +0.295 HD
ENDBRANCH   7   9
ENDBRANCH   6   7
ENDBRANCH   1   6
TORSDOF 6
ENDMDL
MODEL 2
REMARK VINA RESULT:      -3.7      1.362      3.710
REMARK  Name = 
REMARK  6 active torsions:
REMARK  status: ('A' for Active; 'I' for Inactive)
REMARK    1  A    between atoms: O_1  and  C_2
REMARK    2  A    between atoms: C_2  and  C_3
REMARK    3  A    between atoms: C_3  and  C_4
REMARK    4  A    between atoms: C_4  and  C_5
REMARK    5  A    between atoms: C_5  and  C_6
REMARK    6  A    between atoms: C_6  and  O_7
REMARK                            x       y       z     vdW  Elec       q    Type
REMARK                         _______ _______ _______ _____ _____    ______ ____
ROOT
ATOM      1  C   UNL     1      10.637   0.366  24.236  0.00  0.00    +0.013 C 
ENDROOT
BRANCH   1   2
ATOM      2  C   UNL     1       9.798  -0.833  23.784  0.00  0.00    +0.028 C 
BRANCH   2   3
ATOM      3  C   UNL     1      10.348  -1.471  22.515  0.00  0.00    +0.156 C 
BRANCH   3   4
ATOM      4  O   UNL     1       9.910  -0.733  21.382  0.00  0.00    -0.395 OA
ATOM      5  H   UNL     1       9.780  -1.372  20.660  0.00  0.00    +0.209 HD
ENDBRANCH   3   4
ENDBRANCH   2   3
ENDBRANCH   1   2
BRANCH   1   6
ATOM      6  C   UNL     1       9.872   1.674  24.055  0.00  0.00    +0.120 C 
BRANCH   6   7
ATOM      7  C   UNL     1      10.515   2.565  23.020  0.00  0.00    +0.305 C 
ATOM      8  O   UNL     1      11.216   3.526  23.295  0.00  0.00    -0.251 OA
BRANCH   7   9
ATOM      9  O   UNL     1      10.215   2.224  21.748  0.00  0.00    -0.481 OA
ATOM     10  H   UNL     1       9.950   1.291  21.640  0.00  0.00    +0.295 HD
ENDBRANCH   7   9
ENDBRANCH   6   7
ENDBRANCH   1   6
TORSDOF 6
ENDMDL
MODEL 3
REMARK VINA RESULT:      -3.5      5.692      6.877
REMARK  Name = 
REMARK  6 active torsions:
REMARK  status: ('A' for Active; 'I' for Inactive)
REMARK    1  A    between atoms: O_1  and  C_2
REMARK    2  A    between atoms: C_2  and  C_3
REMARK    3  A    between atoms: C_3  and  C_4
REMARK    4  A    between atoms: C_4  and  C_5
REMARK    5  A    between atoms: C_5  and  C_6
REMARK    6  A    between atoms: C_6  and  O_7
REMARK                            x       y       z     vdW  Elec       q    Type
REMARK                         _______ _______ _______ _____ _____    ______ ____
ROOT
ATOM      1  C   UNL     1       7.077  -5.217  23.672  0.00  0.00    +0.013 C 
ENDROOT
BRANCH   1   2
ATOM      2  C   UNL     1       8.349  -4.528  24.176  0.00  0.00    +0.028 C 
BRANCH   2   3
ATOM      3  C   UNL     1       8.862  -5.146  25.470  0.00  0.00    +0.156 C 
BRANCH   3   4
ATOM      4  O   UNL     1      10.095  -5.808  25.226  0.00  0.00    -0.395 OA
ATOM      5  H   UNL     1      10.654  -5.191  24.724  0.00  0.00    +0.209 HD
ENDBRANCH   3   4
ENDBRANCH   2   3
ENDBRANCH   1   2
BRANCH   1   6
ATOM      6  C   UNL     1       7.293  -5.834  22.294  0.00  0.00    +0.120 C 
BRANCH   6   7
ATOM      7  C   UNL     1       6.022  -5.858  21.481  0.00  0.00    +0.305 C 
ATOM      8  O   UNL     1       5.958  -5.509  20.312  0.00  0.00    -0.251 OA
BRANCH   7   9
ATOM      9  O   UNL     1       4.940  -6.270  22.177  0.00  0.00    -0.481 OA
ATOM     10  H   UNL     1       4.678  -5.666  22.896  0.00  0.00    +0.295 HD
ENDBRANCH   7   9
ENDBRANCH   6   7
ENDBRANCH   1   6
TORSDOF 6
ENDMDL
MODEL 4
REMARK VINA RESULT:      -3.5      1.981      2.543
REMARK  Name = 
REMARK  6 active torsions:
REMARK  status: ('A' for Active; 'I' for Inactive)
REMARK    1  A    between atoms: O_1  and  C_2
REMARK    2  A    between atoms: C_2  and  C_3
REMARK    3  A    between atoms: C_3  and  C_4
REMARK    4  A    between atoms: C_4  and  C_5
REMARK    5  A    between atoms: C_5  and  C_6
REMARK    6  A    between atoms: C_6  and  O_7
REMARK                            x       y       z     vdW  Elec       q    Type
REMARK                         _______ _______ _______ _____ _____    ______ ____
ROOT
ATOM      1  C   UNL     1      10.123   1.433  22.057  0.00  0.00    +0.013 C 
ENDROOT
BRANCH   1   2
ATOM      2  C   UNL     1       9.833   1.624  23.550  0.00  0.00    +0.028 C 
BRANCH   2   3
ATOM      3  C   UNL     1      10.886   0.959  24.427  0.00  0.00    +0.156 C 
BRANCH   3   4
ATOM      4  O   UNL     1      10.264   0.397  25.575  0.00  0.00    -0.395 OA
ATOM      5  H   UNL     1       9.393   0.821  25.663  0.00  0.00    +0.209 HD
ENDBRANCH   3   4
ENDBRANCH   2   3
ENDBRANCH   1   2
BRANCH   1   6
ATOM      6  C   UNL     1       9.050   0.575  21.394  0.00  0.00    +0.120 C 
BRANCH   6   7
ATOM      7  C   UNL     1       9.130  -0.867  21.832  0.00  0.00    +0.305 C 
ATOM      8  O   UNL     1       8.273  -1.421  22.504  0.00  0.00    -0.251 OA
BRANCH   7   9
ATOM      9  O   UNL     1      10.263  -1.491  21.442  0.00  0.00    -0.481 OA
ATOM     10  H   UNL     1      10.124  -2.174  20.759  0.00  0.00    +0.295 HD
ENDBRANCH   7   9
ENDBRANCH   6   7
ENDBRANCH   1   6
TORSDOF 6
ENDMDL
MODEL 5
REMARK VINA RESULT:      -3.4      2.773      4.084
REMARK  Name = 
REMARK  6 active torsions:
REMARK  status: ('A' for Active; 'I' for Inactive)
REMARK    1  A    between atoms: O_1  and  C_2
REMARK    2  A    between atoms: C_2  and  C_3
REMARK    3  A    between atoms: C_3  and  C_4
REMARK    4  A    between atoms: C_4  and  C_5
REMARK    5  A    between atoms: C_5  and  C_6
REMARK    6  A    between atoms: C_6  and  O_7
REMARK                            x       y       z     vdW  Elec       q    Type
REMARK                         _______ _______ _______ _____ _____    ______ ____
ROOT
ATOM      1  C   UNL     1       9.663  -3.122  24.257  0.00  0.00    +0.013 C 
ENDROOT
BRANCH   1   2
ATOM      2  C   UNL     1       9.052  -1.839  23.685  0.00  0.00    +0.028 C 
BRANCH   2   3
ATOM      3  C   UNL     1       8.952  -1.880  22.166  0.00  0.00    +0.156 C 
BRANCH   3   4
ATOM      4  O   UNL     1      10.222  -1.596  21.595  0.00  0.00    -0.395 OA
ATOM      5  H   UNL     1      10.804  -1.316  22.323  0.00  0.00    +0.209 HD
ENDBRANCH   3   4
ENDBRANCH   2   3
ENDBRANCH   1   2
BRANCH   1   6
ATOM      6  C   UNL     1       8.625  -4.237  24.340  0.00  0.00    +0.120 C 
BRANCH   6   7
ATOM      7  C   UNL     1       8.991  -5.272  25.375  0.00  0.00    +0.305 C 
ATOM      8  O   UNL     1       8.199  -5.736  26.181  0.00  0.00    -0.251 OA
BRANCH   7   9
ATOM      9  O   UNL     1      10.296  -5.621  25.357  0.00  0.00    -0.481 OA
ATOM     10  H   UNL     1      10.511  -6.382  25.928  0.00  0.00    +0.295 HD
ENDBRANCH   7   9
ENDBRANCH   6   7
ENDBRANCH   1   6
TORSDOF 6
ENDMDL
MODEL 6
REMARK VINA RESULT:      -3.4      2.265      3.626
REMARK  Name = 
REMARK  6 active torsions:
REMARK  status: ('A' for Active; 'I' for Inactive)
REMARK    1  A    between atoms: O_1  and  C_2
REMARK    2  A    between atoms: C_2  and  C_3
REMARK    3  A    between atoms: C_3  and  C_4
REMARK    4  A    between atoms: C_4  and  C_5
REMARK    5  A    between atoms: C_5  and  C_6
REMARK    6  A    between atoms: C_6  and  O_7
REMARK                            x       y       z     vdW  Elec       q    Type
REMARK                         _______ _______ _______ _____ _____    ______ ____
ROOT
ATOM      1  C   UNL     1       8.947  -0.940  22.645  0.00  0.00    +0.013 C 
ENDROOT
BRANCH   1   2
ATOM      2  C   UNL     1       9.970  -1.103  23.773  0.00  0.00    +0.028 C 
BRANCH   2   3
ATOM      3  C   UNL     1       9.611  -0.271  24.997  0.00  0.00    +0.156 C 
BRANCH   3   4
ATOM      4  O   UNL     1      10.571   0.763  25.169  0.00  0.00    -0.395 OA
ATOM      5  H   UNL     1      10.113   1.606  25.007  0.00  0.00    +0.209 HD
ENDBRANCH   3   4
ENDBRANCH   2   3
ENDBRANCH   1   2
BRANCH   1   6
ATOM      6  C   UNL     1       9.523  -0.125  21.491  0.00  0.00    +0.120 C 
BRANCH   6   7
ATOM      7  C   UNL     1       9.120   1.327  21.571  0.00  0.00    +0.305 C 
ATOM      8  O   UNL     1       7.960   1.712  21.550  0.00  0.00    -0.251 OA
BRANCH   7   9
ATOM      9  O   UNL     1      10.167   2.179  21.632  0.00  0.00    -0.481 OA
ATOM     10  H   UNL     1      11.010   1.753  21.875  0.00  0.00    +0.295 HD
ENDBRANCH   7   9
ENDBRANCH   6   7
ENDBRANCH   1   6
TORSDOF 6
ENDMDL
MODEL 7
REMARK VINA RESULT:      -3.3      5.163      6.231
REMARK  Name = 
REMARK  6 active torsions:
REMARK  status: ('A' for Active; 'I' for Inactive)
REMARK    1  A    between atoms: O_1  and  C_2
REMARK    2  A    between atoms: C_2  and  C_3
REMARK    3  A    between atoms: C_3  and  C_4
REMARK    4  A    between atoms: C_4  and  C_5
REMARK    5  A    between atoms: C_5  and  C_6
REMARK    6  A    between atoms: C_6  and  O_7
REMARK                            x       y       z     vdW  Elec       q    Type
REMARK                         _______ _______ _______ _____ _____    ______ ____
ROOT
ATOM      1  C   UNL     1       6.979  -4.763  23.570  0.00  0.00    +0.013 C 
ENDROOT
BRANCH   1   2
ATOM      2  C   UNL     1       7.420  -5.737  22.473  0.00  0.00    +0.028 C 
BRANCH   2   3
ATOM      3  C   UNL     1       6.390  -5.848  21.357  0.00  0.00    +0.156 C 
BRANCH   3   4
ATOM      4  O   UNL     1       5.830  -4.568  21.095  0.00  0.00    -0.395 OA
ATOM      5  H   UNL     1       6.443  -3.909  21.465  0.00  0.00    +0.209 HD
ENDBRANCH   3   4
ENDBRANCH   2   3
ENDBRANCH   1   2
BRANCH   1   6
ATOM      6  C   UNL     1       7.676  -5.069  24.892  0.00  0.00    +0.120 C 
BRANCH   6   7
ATOM      7  C   UNL     1       9.171  -4.887  24.796  0.00  0.00    +0.305 C 
ATOM      8  O   UNL     1       9.707  -3.852  24.427  0.00  0.00    -0.251 OA
BRANCH   7   9
ATOM      9  O   UNL     1       9.875  -5.992  25.124  0.00  0.00    -0.481 OA
ATOM     10  H   UNL     1      10.788  -5.808  25.415  0.00  0.00    +0.295 HD
ENDBRANCH   7   9
ENDBRANCH   6   7
ENDBRANCH   1   6
TORSDOF 6
ENDMDL
MODEL 8
REMARK VINA RESULT:      -3.3      2.183      4.076
REMARK  Name = 
REMARK  6 active torsions:
REMARK  status: ('A' for Active; 'I' for Inactive)
REMARK    1  A    between atoms: O_1  and  C_2
REMARK    2  A    between atoms: C_2  and  C_3
REMARK    3  A    between atoms: C_3  and  C_4
REMARK    4  A    between atoms: C_4  and  C_5
REMARK    5  A    between atoms: C_5  and  C_6
REMARK    6  A    between atoms: C_6  and  O_7
REMARK                            x       y       z     vdW  Elec       q    Type
REMARK                         _______ _______ _______ _____ _____    ______ ____
ROOT
ATOM      1  C   UNL     1       9.985   1.965  22.178  0.00  0.00    +0.013 C 
ENDROOT
BRANCH   1   2
ATOM      2  C   UNL     1       9.486   0.637  21.600  0.00  0.00    +0.028 C 
BRANCH   2   3
ATOM      3  C   UNL     1      10.020  -0.561  22.374  0.00  0.00    +0.156 C 
BRANCH   3   4
ATOM      4  O   UNL     1      10.191  -1.662  21.492  0.00  0.00    -0.395 OA
ATOM      5  H   UNL     1       9.758  -2.428  21.906  0.00  0.00    +0.209 HD
ENDBRANCH   3   4
ENDBRANCH   2   3
ENDBRANCH   1   2
BRANCH   1   6
ATOM      6  C   UNL     1      10.369   1.818  23.647  0.00  0.00    +0.120 C 
BRANCH   6   7
ATOM      7  C   UNL     1       9.298   2.355  24.565  0.00  0.00    +0.305 C 
ATOM      8  O   UNL     1       8.901   3.510  24.542  0.00  0.00    -0.251 OA
BRANCH   7   9
ATOM      9  O   UNL     1       8.836   1.446  25.451  0.00  0.00    -0.481 OA
ATOM     10  H   UNL     1       9.531   1.043  26.005  0.00  0.00    +0.295 HD
ENDBRANCH   7   9
ENDBRANCH   6   7
ENDBRANCH   1   6
TORSDOF 6
ENDMDL
MODEL 9
REMARK VINA RESULT:      -3.3      2.486      5.024
REMARK  Name = 
REMARK  6 active torsions:
REMARK  status: ('A' for Active; 'I' for Inactive)
REMARK    1  A    between atoms: O_1  and  C_2
REMARK    2  A    between atoms: C_2  and  C_3
REMARK    3  A    between atoms: C_3  and  C_4
REMARK    4  A    between atoms: C_4  and  C_5
REMARK    5  A    between atoms: C_5  and  C_6
REMARK    6  A    between atoms: C_6  and  O_7
REMARK                            x       y       z     vdW  Elec       q    Type
REMARK                         _______ _______ _______ _____ _____    ______ ____
ROOT
ATOM      1  C   UNL     1       8.591  -3.001  24.337  0.00  0.00    +0.013 C 
ENDROOT
BRANCH   1   2
ATOM      2  C   UNL     1       8.543  -4.528  24.227  0.00  0.00    +0.028 C 
BRANCH   2   3
ATOM      3  C   UNL     1       9.023  -5.210  25.502  0.00  0.00    +0.156 C 
BRANCH   3   4
ATOM      4  O   UNL     1      10.386  -5.588  25.356  0.00  0.00    -0.395 OA
ATOM      5  H   UNL     1      10.395  -6.445  24.897  0.00  0.00    +0.209 HD
ENDBRANCH   3   4
ENDBRANCH   2   3
ENDBRANCH   1   2
BRANCH   1   6
ATOM      6  C   UNL     1       9.896  -2.448  23.774  0.00  0.00    +0.120 C 
BRANCH   6   7
ATOM      7  C   UNL     1       9.654  -1.373  22.742  0.00  0.00    +0.305 C 
ATOM      8  O   UNL     1       9.036  -0.343  22.967  0.00  0.00    -0.251 OA
BRANCH   7   9
ATOM      9  O   UNL     1      10.156  -1.667  21.523  0.00  0.00    -0.481 OA
ATOM     10  H   UNL     1      11.099  -1.441  21.418  0.00  0.00    +0.295 HD
ENDBRANCH   7   9
ENDBRANCH   6   7
ENDBRANCH   1   6
TORSDOF 6
ENDMDL
