MODEL 1
REMARK VINA RESULT:      -4.9      0.000      0.000
REMARK  Name = 
REMARK  5 active torsions:
REMARK  status: ('A' for Active; 'I' for Inactive)
REMARK    1  A    between atoms: N_1  and  CA_2
REMARK    2  A    between atoms: CA_2  and  CB_4
REMARK    3  A    between atoms: CA_2  and  C_11
REMARK    4  A    between atoms: CB_4  and  CG_5
REMARK    5  A    between atoms: C_11  and  O_12
REMARK                            x       y       z     vdW  Elec       q    Type
REMARK                         _______ _______ _______ _____ _____    ______ ____
ROOT
ATOM      1  CA  PHE A   1       8.903  -5.304  25.335  0.00  0.00    +0.165 C 
ENDROOT
BRANCH   1   2
ATOM      2  N   PHE A   1      10.366  -5.546  25.558  0.00  0.00    -0.318 NA
ATOM      3  H1  PHE A   1      10.845  -5.461  24.659  0.00  0.00    +0.119 HD
ATOM      4  H2  PHE A   1      10.734  -4.750  26.093  0.00  0.00    +0.119 HD
ENDBRANCH   1   2
BRANCH   1   5
ATOM      5  C   PHE A   1       8.301  -4.898  26.698  0.00  0.00    +0.322 C 
ATOM      6  OXT PHE A   1       8.078  -3.759  27.074  0.00  0.00    -0.249 OA
BRANCH   5   7
ATOM      7  O   PHE A   1       8.023  -5.998  27.449  0.00  0.00    -0.480 OA
ATOM      8  H   PHE A   1       7.616  -5.655  28.285  0.00  0.00    +0.295 HD
ENDBRANCH   5   7
ENDBRANCH   1   5
BRANCH   1   9
ATOM      9  CB  PHE A   1       8.587  -4.209  24.299  0.00  0.00    +0.065 C 
BRANCH   9  10
ATOM     10  CG  PHE A   1       7.656  -4.515  23.145  0.00  0.00    -0.045 A 
ATOM     11  CD2 PHE A   1       6.883  -3.452  22.645  0.00  0.00    +0.004 A 
ATOM     12  CE2 PHE A   1       6.017  -3.630  21.566  0.00  0.00    +0.000 A 
ATOM     13  CZ  PHE A   1       5.913  -4.879  20.962  0.00  0.00    +0.000 A 
ATOM     14  CE1 PHE A   1       6.644  -5.952  21.464  0.00  0.00    +0.000 A 
ATOM     15  CD1 PHE A   1       7.495  -5.778  22.561  0.00  0.00    +0.004 A 
ENDBRANCH   9  10
ENDBRANCH   1   9
TORSDOF 5
ENDMDL
MODEL 2
REMARK VINA RESULT:      -4.9      3.716      4.673
REMARK  Name = 
REMARK  5 active torsions:
REMARK  status: ('A' for Active; 'I' for Inactive)
REMARK    1  A    between atoms: N_1  and  CA_2
REMARK    2  A    between atoms: CA_2  and  CB_4
REMARK    3  A    between atoms: CA_2  and  C_11
REMARK    4  A    between atoms: CB_4  and  CG_5
REMARK    5  A    between atoms: C_11  and  O_12
REMARK                            x       y       z     vdW  Elec       q    Type
REMARK                         _______ _______ _______ _____ _____    ______ ____
ROOT
ATOM      1  CA  PHE A   1       8.839  -3.257  24.377  0.00  0.00    +0.165 C 
ENDROOT
BRANCH   1   2
ATOM      2  N   PHE A   1       7.961  -3.971  23.394  0.00  0.00    -0.318 NA
ATOM      3  H1  PHE A   1       7.003  -3.960  23.753  0.00  0.00    +0.119 HD
ATOM      4  H2  PHE A   1       7.900  -3.387  22.551  0.00  0.00    +0.119 HD
ENDBRANCH   1   2
BRANCH   1   5
ATOM      5  C   PHE A   1       9.278  -4.298  25.428  0.00  0.00    +0.322 C 
ATOM      6  OXT PHE A   1       8.924  -4.334  26.596  0.00  0.00    -0.249 OA
BRANCH   5   7
ATOM      7  O   PHE A   1      10.121  -5.215  24.877  0.00  0.00    -0.480 OA
ATOM      8  H   PHE A   1      10.188  -5.948  25.540  0.00  0.00    +0.295 HD
ENDBRANCH   5   7
ENDBRANCH   1   5
BRANCH   1   9
ATOM      9  CB  PHE A   1      10.091  -2.606  23.759  0.00  0.00    +0.065 C 
BRANCH   9  10
ATOM     10  CG  PHE A   1      10.016  -1.190  23.227  0.00  0.00    -0.045 A 
ATOM     11  CD2 PHE A   1       9.525  -1.021  21.920  0.00  0.00    +0.004 A 
ATOM     12  CE2 PHE A   1       9.393   0.247  21.354  0.00  0.00    +0.000 A 
ATOM     13  CZ  PHE A   1       9.745   1.373  22.091  0.00  0.00    +0.000 A 
ATOM     14  CE1 PHE A   1      10.264   1.225  23.374  0.00  0.00    +0.000 A 
ATOM     15  CD1 PHE A   1      10.419  -0.049  23.932  0.00  0.00    +0.004 A 
ENDBRANCH   9  10
ENDBRANCH   1   9
TORSDOF 5
ENDMDL
MODEL 3
REMARK VINA RESULT:      -4.9      2.628      3.542
REMARK  Name = 
REMARK  5 active torsions:
REMARK  status: ('A' for Active; 'I' for Inactive)
REMARK    1  A    between atoms: N_1  and  CA_2
REMARK    2  A    between atoms: CA_2  and  CB_4
REMARK    3  A    between atoms: CA_2  and  C_11
REMARK    4  A    between atoms: CB_4  and  CG_5
REMARK    5  A    between atoms: C_11  and  O_12
REMARK                            x       y       z     vdW  Elec       q    Type
REMARK                         _______ _______ _______ _____ _____    ______ ____
ROOT
ATOM      1  CA  PHE A   1       8.902  -4.642  24.925  0.00  0.00    +0.165 C 
ENDROOT
BRANCH   1   2
ATOM      2  N   PHE A   1      10.144  -5.419  25.241  0.00  0.00    -0.318 NA
ATOM      3  H1  PHE A   1      10.518  -5.079  26.130  0.00  0.00    +0.119 HD
ATOM      4  H2  PHE A   1       9.861  -6.381  25.462  0.00  0.00    +0.119 HD
ENDBRANCH   1   2
BRANCH   1   5
ATOM      5  C   PHE A   1       7.768  -5.237  25.786  0.00  0.00    +0.322 C 
ATOM      6  OXT PHE A   1       6.580  -5.251  25.500  0.00  0.00    -0.249 OA
BRANCH   5   7
ATOM      7  O   PHE A   1       8.264  -5.777  26.932  0.00  0.00    -0.480 OA
ATOM      8  H   PHE A   1       8.906  -6.474  26.643  0.00  0.00    +0.295 HD
ENDBRANCH   5   7
ENDBRANCH   1   5
BRANCH   1   9
ATOM      9  CB  PHE A   1       9.007  -3.131  25.203  0.00  0.00    +0.065 C 
BRANCH   9  10
ATOM     10  CG  PHE A   1       9.258  -2.173  24.056  0.00  0.00    -0.045 A 
ATOM     11  CD2 PHE A   1       9.957  -0.989  24.351  0.00  0.00    +0.004 A 
ATOM     12  CE2 PHE A   1      10.259  -0.059  23.356  0.00  0.00    +0.000 A 
ATOM     13  CZ  PHE A   1       9.871  -0.301  22.043  0.00  0.00    +0.000 A 
ATOM     14  CE1 PHE A   1       9.148  -1.451  21.737  0.00  0.00    +0.000 A 
ATOM     15  CD1 PHE A   1       8.825  -2.372  22.740  0.00  0.00    +0.004 A 
ENDBRANCH   9  10
ENDBRANCH   1   9
TORSDOF 5
ENDMDL
MODEL 4
REMARK VINA RESULT:      -4.8      1.952      2.252
REMARK  Name = 
REMARK  5 active torsions:
REMARK  status: ('A' for Active; 'I' for Inactive)
REMARK    1  A    between atoms: N_1  and  CA_2
REMARK    2  A    between atoms: CA_2  and  CB_4
REMARK    3  A    between atoms: CA_2  and  C_11
REMARK    4  A    between atoms: CB_4  and  CG_5
REMARK    5  A    between atoms: C_11  and  O_12
REMARK                            x       y       z     vdW  Elec       q    Type
REMARK                         _______ _______ _______ _____ _____    ______ ____
ROOT
ATOM      1  CA  PHE A   1       8.487  -4.456  26.344  0.00  0.00    +0.165 C 
ENDROOT
BRANCH   1   2
ATOM      2  N   PHE A   1       8.049  -5.635  27.161  0.00  0.00    -0.318 NA
ATOM      3  H1  PHE A   1       8.865  -6.228  27.330  0.00  0.00    +0.119 HD
ATOM      4  H2  PHE A   1       7.814  -5.291  28.100  0.00  0.00    +0.119 HD
ENDBRANCH   1   2
BRANCH   1   5
ATOM      5  C   PHE A   1       9.601  -4.954  25.398  0.00  0.00    +0.322 C 
ATOM      6  OXT PHE A   1      10.249  -4.265  24.626  0.00  0.00    -0.249 OA
BRANCH   5   7
ATOM      7  O   PHE A   1       9.794  -6.294  25.542  0.00  0.00    -0.480 OA
ATOM      8  H   PHE A   1       8.963  -6.641  25.955  0.00  0.00    +0.295 HD
ENDBRANCH   5   7
ENDBRANCH   1   5
BRANCH   1   9
ATOM      9  CB  PHE A   1       7.368  -3.809  25.507  0.00  0.00    +0.065 C 
BRANCH   9  10
ATOM     10  CG  PHE A   1       6.853  -4.513  24.269  0.00  0.00    -0.045 A 
ATOM     11  CD2 PHE A   1       5.869  -5.501  24.454  0.00  0.00    +0.004 A 
ATOM     12  CE2 PHE A   1       5.316  -6.184  23.372  0.00  0.00    +0.000 A 
ATOM     13  CZ  PHE A   1       5.734  -5.887  22.079  0.00  0.00    +0.000 A 
ATOM     14  CE1 PHE A   1       6.731  -4.937  21.877  0.00  0.00    +0.000 A 
ATOM     15  CD1 PHE A   1       7.303  -4.269  22.966  0.00  0.00    +0.004 A 
ENDBRANCH   9  10
ENDBRANCH   1   9
TORSDOF 5
ENDMDL
MODEL 5
REMARK VINA RESULT:      -4.8      4.199      5.220
REMARK  Name = 
REMARK  5 active torsions:
REMARK  status: ('A' for Active; 'I' for Inactive)
REMARK    1  A    between atoms: N_1  and  CA_2
REMARK    2  A    between atoms: CA_2  and  CB_4
REMARK    3  A    between atoms: CA_2  and  C_11
REMARK    4  A    between atoms: CB_4  and  CG_5
REMARK    5  A    between atoms: C_11  and  O_12
REMARK                            x       y       z     vdW  Elec       q    Type
REMARK                         _______ _______ _______ _____ _____    ______ ____
ROOT
ATOM      1  CA  PHE A   1       9.010  -2.818  24.587  0.00  0.00    +0.165 C 
ENDROOT
BRANCH   1   2
ATOM      2  N   PHE A   1       7.612  -2.357  24.303  0.00  0.00    -0.318 NA
ATOM      3  H1  PHE A   1       7.094  -2.341  25.185  0.00  0.00    +0.119 HD
ATOM      4  H2  PHE A   1       7.659  -1.364  24.045  0.00  0.00    +0.119 HD
ENDBRANCH   1   2
BRANCH   1   5
ATOM      5  C   PHE A   1       9.003  -4.359  24.497  0.00  0.00    +0.322 C 
ATOM      6  OXT PHE A   1       8.071  -5.052  24.121  0.00  0.00    -0.249 OA
BRANCH   5   7
ATOM      7  O   PHE A   1      10.203  -4.871  24.883  0.00  0.00    -0.480 OA
ATOM      8  H   PHE A   1      10.282  -5.744  24.422  0.00  0.00    +0.295 HD
ENDBRANCH   5   7
ENDBRANCH   1   5
BRANCH   1   9
ATOM      9  CB  PHE A   1      10.073  -2.262  23.622  0.00  0.00    +0.065 C 
BRANCH   9  10
ATOM     10  CG  PHE A   1      10.078  -0.786  23.280  0.00  0.00    -0.045 A 
ATOM     11  CD2 PHE A   1      10.536   0.101  24.270  0.00  0.00    +0.004 A 
ATOM     12  CE2 PHE A   1      10.602   1.475  24.038  0.00  0.00    +0.000 A 
ATOM     13  CZ  PHE A   1      10.216   1.987  22.805  0.00  0.00    +0.000 A 
ATOM     14  CE1 PHE A   1       9.727   1.129  21.823  0.00  0.00    +0.000 A 
ATOM     15  CD1 PHE A   1       9.639  -0.246  22.065  0.00  0.00    +0.004 A 
ENDBRANCH   9  10
ENDBRANCH   1   9
TORSDOF 5
ENDMDL
MODEL 6
REMARK VINA RESULT:      -4.7      3.300      4.554
REMARK  Name = 
REMARK  5 active torsions:
REMARK  status: ('A' for Active; 'I' for Inactive)
REMARK    1  A    between atoms: N_1  and  CA_2
REMARK    2  A    between atoms: CA_2  and  CB_4
REMARK    3  A    between atoms: CA_2  and  C_11
REMARK    4  A    between atoms: CB_4  and  CG_5
REMARK    5  A    between atoms: C_11  and  O_12
REMARK                            x       y       z     vdW  Elec       q    Type
REMARK                         _______ _______ _______ _____ _____    ______ ____
ROOT
ATOM      1  CA  PHE A   1       8.783  -3.995  26.175  0.00  0.00    +0.165 C 
ENDROOT
BRANCH   1   2
ATOM      2  N   PHE A   1       7.843  -4.689  27.114  0.00  0.00    -0.318 NA
ATOM      3  H1  PHE A   1       7.885  -4.214  28.019  0.00  0.00    +0.119 HD
ATOM      4  H2  PHE A   1       6.886  -4.495  26.795  0.00  0.00    +0.119 HD
ENDBRANCH   1   2
BRANCH   1   5
ATOM      5  C   PHE A   1       9.334  -5.069  25.214  0.00  0.00    +0.322 C 
ATOM      6  OXT PHE A   1       8.840  -5.401  24.147  0.00  0.00    -0.249 OA
BRANCH   5   7
ATOM      7  O   PHE A   1      10.483  -5.611  25.702  0.00  0.00    -0.480 OA
ATOM      8  H   PHE A   1      10.477  -5.420  26.674  0.00  0.00    +0.295 HD
ENDBRANCH   5   7
ENDBRANCH   1   5
BRANCH   1   9
ATOM      9  CB  PHE A   1       8.143  -2.862  25.352  0.00  0.00    +0.065 C 
BRANCH   9  10
ATOM     10  CG  PHE A   1       9.011  -1.742  24.815  0.00  0.00    -0.045 A 
ATOM     11  CD2 PHE A   1       9.520  -1.894  23.513  0.00  0.00    +0.004 A 
ATOM     12  CE2 PHE A   1      10.306  -0.904  22.923  0.00  0.00    +0.000 A 
ATOM     13  CZ  PHE A   1      10.592   0.262  23.625  0.00  0.00    +0.000 A 
ATOM     14  CE1 PHE A   1      10.125   0.416  24.927  0.00  0.00    +0.000 A 
ATOM     15  CD1 PHE A   1       9.357  -0.588  25.527  0.00  0.00    +0.004 A 
ENDBRANCH   9  10
ENDBRANCH   1   9
TORSDOF 5
ENDMDL
MODEL 7
REMARK VINA RESULT:      -4.7      7.772      8.916
REMARK  Name = 
REMARK  5 active torsions:
REMARK  status: ('A' for Active; 'I' for Inactive)
REMARK    1  A    between atoms: N_1  and  CA_2
REMARK    2  A    between atoms: CA_2  and  CB_4
REMARK    3  A    between atoms: CA_2  and  C_11
REMARK    4  A    between atoms: CB_4  and  CG_5
REMARK    5  A    between atoms: C_11  and  O_12
REMARK                            x       y       z     vdW  Elec       q    Type
REMARK                         _______ _______ _______ _____ _____    ______ ____
ROOT
ATOM      1  CA  PHE A   1       8.891   1.197  22.545  0.00  0.00    +0.165 C 
ENDROOT
BRANCH   1   2
ATOM      2  N   PHE A   1       8.988   1.980  21.271  0.00  0.00    -0.318 NA
ATOM      3  H1  PHE A   1       9.839   2.547  21.306  0.00  0.00    +0.119 HD
ATOM      4  H2  PHE A   1       9.183   1.317  20.512  0.00  0.00    +0.119 HD
ENDBRANCH   1   2
BRANCH   1   5
ATOM      5  C   PHE A   1       9.885   0.022  22.427  0.00  0.00    +0.322 C 
ATOM      6  OXT PHE A   1      10.701  -0.317  23.270  0.00  0.00    -0.249 OA
BRANCH   5   7
ATOM      7  O   PHE A   1       9.728  -0.626  21.240  0.00  0.00    -0.480 OA
ATOM      8  H   PHE A   1      10.322  -1.418  21.288  0.00  0.00    +0.295 HD
ENDBRANCH   5   7
ENDBRANCH   1   5
BRANCH   1   9
ATOM      9  CB  PHE A   1       9.213   2.004  23.816  0.00  0.00    +0.065 C 
BRANCH   9  10
ATOM     10  CG  PHE A   1       9.989   3.300  23.706  0.00  0.00    -0.045 A 
ATOM     11  CD2 PHE A   1       9.279   4.493  23.927  0.00  0.00    +0.004 A 
ATOM     12  CE2 PHE A   1       9.914   5.734  23.874  0.00  0.00    +0.000 A 
ATOM     13  CZ  PHE A   1      11.276   5.803  23.604  0.00  0.00    +0.000 A 
ATOM     14  CE1 PHE A   1      11.990   4.635  23.348  0.00  0.00    +0.000 A 
ATOM     15  CD1 PHE A   1      11.347   3.392  23.378  0.00  0.00    +0.004 A 
ENDBRANCH   9  10
ENDBRANCH   1   9
TORSDOF 5
ENDMDL
MODEL 8
REMARK VINA RESULT:      -4.7      4.893      5.901
REMARK  Name = 
REMARK  5 active torsions:
REMARK  status: ('A' for Active; 'I' for Inactive)
REMARK    1  A    between atoms: N_1  and  CA_2
REMARK    2  A    between atoms: CA_2  and  CB_4
REMARK    3  A    between atoms: CA_2  and  C_11
REMARK    4  A    between atoms: CB_4  and  CG_5
REMARK    5  A    between atoms: C_11  and  O_12
REMARK                            x       y       z     vdW  Elec       q    Type
REMARK                         _______ _______ _______ _____ _____    ______ ____
ROOT
ATOM      1  CA  PHE A   1       9.889   0.853  23.643  0.00  0.00    +0.165 C 
ENDROOT
BRANCH   1   2
ATOM      2  N   PHE A   1      10.591   0.868  24.967  0.00  0.00    -0.318 NA
ATOM      3  H1  PHE A   1      10.544  -0.073  25.366  0.00  0.00    +0.119 HD
ATOM      4  H2  PHE A   1      11.594   0.992  24.786  0.00  0.00    +0.119 HD
ENDBRANCH   1   2
BRANCH   1   5
ATOM      5  C   PHE A   1      10.333   2.122  22.884  0.00  0.00    +0.322 C 
ATOM      6  OXT PHE A   1      10.904   3.086  23.369  0.00  0.00    -0.249 OA
BRANCH   5   7
ATOM      7  O   PHE A   1      10.018   2.031  21.563  0.00  0.00    -0.480 OA
ATOM      8  H   PHE A   1       9.069   2.308  21.495  0.00  0.00    +0.295 HD
ENDBRANCH   5   7
ENDBRANCH   1   5
BRANCH   1   9
ATOM      9  CB  PHE A   1      10.189  -0.383  22.775  0.00  0.00    +0.065 C 
BRANCH   9  10
ATOM     10  CG  PHE A   1       9.393  -1.655  22.981  0.00  0.00    -0.045 A 
ATOM     11  CD2 PHE A   1       9.792  -2.499  24.032  0.00  0.00    +0.004 A 
ATOM     12  CE2 PHE A   1       9.104  -3.679  24.316  0.00  0.00    +0.000 A 
ATOM     13  CZ  PHE A   1       7.995  -4.033  23.555  0.00  0.00    +0.000 A 
ATOM     14  CE1 PHE A   1       7.604  -3.228  22.488  0.00  0.00    +0.000 A 
ATOM     15  CD1 PHE A   1       8.310  -2.057  22.189  0.00  0.00    +0.004 A 
ENDBRANCH   9  10
ENDBRANCH   1   9
TORSDOF 5
ENDMDL
MODEL 9
REMARK VINA RESULT:      -4.6      4.754      5.944
REMARK  Name = 
REMARK  5 active torsions:
REMARK  status: ('A' for Active; 'I' for Inactive)
REMARK    1  A    between atoms: N_1  and  CA_2
REMARK    2  A    between atoms: CA_2  and  CB_4
REMARK    3  A    between atoms: CA_2  and  C_11
REMARK    4  A    between atoms: CB_4  and  CG_5
REMARK    5  A    between atoms: C_11  and  O_12
REMARK                            x       y       z     vdW  Elec       q    Type
REMARK                         _______ _______ _______ _____ _____    ______ ____
ROOT
ATOM      1  CA  PHE A   1       7.273  -2.324  22.878  0.00  0.00    +0.165 C 
ENDROOT
BRANCH   1   2
ATOM      2  N   PHE A   1       6.266  -1.224  23.039  0.00  0.00    -0.318 NA
ATOM      3  H1  PHE A   1       6.418  -0.781  23.948  0.00  0.00    +0.119 HD
ATOM      4  H2  PHE A   1       6.510  -0.480  22.375  0.00  0.00    +0.119 HD
ENDBRANCH   1   2
BRANCH   1   5
ATOM      5  C   PHE A   1       6.595  -3.437  22.052  0.00  0.00    +0.322 C 
ATOM      6  OXT PHE A   1       5.528  -3.348  21.464  0.00  0.00    -0.249 OA
BRANCH   5   7
ATOM      7  O   PHE A   1       7.359  -4.564  22.040  0.00  0.00    -0.480 OA
ATOM      8  H   PHE A   1       7.673  -4.664  21.106  0.00  0.00    +0.295 HD
ENDBRANCH   5   7
ENDBRANCH   1   5
BRANCH   1   9
ATOM      9  CB  PHE A   1       8.576  -1.898  22.176  0.00  0.00    +0.065 C 
BRANCH   9  10
ATOM     10  CG  PHE A   1       9.282  -0.630  22.610  0.00  0.00    -0.045 A 
ATOM     11  CD2 PHE A   1       9.352   0.417  21.674  0.00  0.00    +0.004 A 
ATOM     12  CE2 PHE A   1       9.958   1.633  21.991  0.00  0.00    +0.000 A 
ATOM     13  CZ  PHE A   1      10.501   1.826  23.257  0.00  0.00    +0.000 A 
ATOM     14  CE1 PHE A   1      10.470   0.790  24.186  0.00  0.00    +0.000 A 
ATOM     15  CD1 PHE A   1       9.884  -0.438  23.859  0.00  0.00    +0.004 A 
ENDBRANCH   9  10
ENDBRANCH   1   9
TORSDOF 5
ENDMDL
