MODEL 1
REMARK VINA RESULT:      -7.1      0.000      0.000
REMARK  Name = 
REMARK  4 active torsions:
REMARK  status: ('A' for Active; 'I' for Inactive)
REMARK    1  A    between atoms: C_5  and  N_6
REMARK    2  A    between atoms: C_7  and  C_9
REMARK    3  A    between atoms: C_13  and  N_14
REMARK    4  A    between atoms: C_15  and  C_17
REMARK                            x       y       z     vdW  Elec       q    Type
REMARK                         _______ _______ _______ _____ _____    ______ ____
ROOT
ATOM      1  C   UNL     1       8.059  -4.852  24.806  0.00  0.00    +0.168 A 
ATOM      2  C   UNL     1       9.231  -4.041  24.683  0.00  0.00    +0.084 A 
ATOM      3  C   UNL     1      10.210  -4.755  25.326  0.00  0.00    +0.129 A 
ATOM      4  N   UNL     1       9.615  -5.876  25.815  0.00  0.00    -0.282 N 
ATOM      5  H   UNL     1      10.052  -6.624  26.342  0.00  0.00    +0.188 HD
ATOM      6  N   UNL     1       8.302  -5.972  25.520  0.00  0.00    -0.167 NA
ENDROOT
BRANCH   1   9
ATOM      7  N   UNL     1       5.662  -5.051  24.901  0.00  0.00    -0.280 N 
ATOM      8  H   UNL     1       5.881  -5.383  25.838  0.00  0.00    +0.155 HD
ATOM      9  C   UNL     1       6.755  -4.571  24.189  0.00  0.00    +0.270 C 
ATOM     10  O   UNL     1       6.701  -3.961  23.121  0.00  0.00    -0.268 OA
BRANCH   7  15
ATOM     11  F   UNL     1       0.443  -5.300  23.039  0.00  0.00    -0.205 F 
ATOM     12  C   UNL     1       1.704  -5.229  23.485  0.00  0.00    +0.124 A 
ATOM     13  C   UNL     1       2.665  -6.099  22.985  0.00  0.00    +0.040 A 
ATOM     14  C   UNL     1       3.985  -6.025  23.453  0.00  0.00    +0.026 A 
ATOM     15  C   UNL     1       4.333  -5.094  24.442  0.00  0.00    +0.034 A 
ATOM     16  C   UNL     1       3.348  -4.216  24.914  0.00  0.00    +0.026 A 
ATOM     17  C   UNL     1       2.036  -4.281  24.439  0.00  0.00    +0.040 A 
ENDBRANCH   7  15
ENDBRANCH   1   9
BRANCH   2  18
ATOM     18  N   UNL     1       9.348  -2.822  24.021  0.00  0.00    -0.278 N 
ATOM     19  H   UNL     1       9.687  -2.880  23.060  0.00  0.00    +0.155 HD
ATOM     20  C   UNL     1       9.061  -1.591  24.585  0.00  0.00    +0.254 C 
ATOM     21  O   UNL     1       8.602  -1.410  25.708  0.00  0.00    -0.270 OA
BRANCH  20  22
ATOM     22  C   UNL     1       9.355  -0.403  23.752  0.00  0.00    +0.107 A 
ATOM     23  C   UNL     1       8.637  -0.200  22.570  0.00  0.00    +0.138 A 
ATOM     24  F   UNL     1       7.650  -1.031  22.205  0.00  0.00    -0.205 F 
ATOM     25  C   UNL     1       8.896   0.897  21.746  0.00  0.00    +0.039 A 
ATOM     26  C   UNL     1       9.891   1.808  22.094  0.00  0.00    +0.006 A 
ATOM     27  C   UNL     1      10.622   1.612  23.265  0.00  0.00    +0.039 A 
ATOM     28  C   UNL     1      10.350   0.513  24.083  0.00  0.00    +0.138 A 
ATOM     29  F   UNL     1      11.084   0.355  25.195  0.00  0.00    -0.205 F 
ENDBRANCH  20  22
ENDBRANCH   2  18
TORSDOF 4
ENDMDL
MODEL 2
REMARK VINA RESULT:      -7.1      4.899      7.475
REMARK  Name = 
REMARK  4 active torsions:
REMARK  status: ('A' for Active; 'I' for Inactive)
REMARK    1  A    between atoms: C_5  and  N_6
REMARK    2  A    between atoms: C_7  and  C_9
REMARK    3  A    between atoms: C_13  and  N_14
REMARK    4  A    between atoms: C_15  and  C_17
REMARK                            x       y       z     vdW  Elec       q    Type
REMARK                         _______ _______ _______ _____ _____    ______ ____
ROOT
ATOM      1  C   UNL     1       6.271   3.063  22.340  0.00  0.00    +0.168 A 
ATOM      2  C   UNL     1       6.724   4.383  22.652  0.00  0.00    +0.084 A 
ATOM      3  C   UNL     1       5.575   5.125  22.750  0.00  0.00    +0.129 A 
ATOM      4  N   UNL     1       4.544   4.283  22.470  0.00  0.00    -0.282 N 
ATOM      5  H   UNL     1       3.554   4.506  22.456  0.00  0.00    +0.188 HD
ATOM      6  N   UNL     1       4.927   3.016  22.213  0.00  0.00    -0.167 NA
ENDROOT
BRANCH   1   9
ATOM      7  N   UNL     1       6.907   0.913  23.218  0.00  0.00    -0.280 N 
ATOM      8  H   UNL     1       6.079   1.073  23.787  0.00  0.00    +0.155 HD
ATOM      9  C   UNL     1       7.122   1.868  22.231  0.00  0.00    +0.270 C 
ATOM     10  O   UNL     1       7.945   1.784  21.321  0.00  0.00    -0.268 OA
BRANCH   7  15
ATOM     11  F   UNL     1      10.135  -3.482  24.231  0.00  0.00    -0.205 F 
ATOM     12  C   UNL     1       9.356  -2.423  23.975  0.00  0.00    +0.124 A 
ATOM     13  C   UNL     1       9.747  -1.158  24.398  0.00  0.00    +0.040 A 
ATOM     14  C   UNL     1       8.931  -0.050  24.131  0.00  0.00    +0.026 A 
ATOM     15  C   UNL     1       7.711  -0.216  23.461  0.00  0.00    +0.034 A 
ATOM     16  C   UNL     1       7.351  -1.499  23.028  0.00  0.00    +0.026 A 
ATOM     17  C   UNL     1       8.169  -2.602  23.284  0.00  0.00    +0.040 A 
ENDBRANCH   7  15
ENDBRANCH   1   9
BRANCH   2  18
ATOM     18  N   UNL     1       8.038   4.799  22.849  0.00  0.00    -0.278 N 
ATOM     19  H   UNL     1       8.442   5.339  22.084  0.00  0.00    +0.155 HD
ATOM     20  C   UNL     1       8.794   4.509  23.971  0.00  0.00    +0.254 C 
ATOM     21  O   UNL     1       8.395   3.913  24.967  0.00  0.00    -0.270 OA
BRANCH  20  22
ATOM     22  C   UNL     1      10.208   4.947  23.942  0.00  0.00    +0.107 A 
ATOM     23  C   UNL     1      10.556   6.175  24.512  0.00  0.00    +0.138 A 
ATOM     24  F   UNL     1       9.644   6.937  25.132  0.00  0.00    -0.205 F 
ATOM     25  C   UNL     1      11.874   6.635  24.488  0.00  0.00    +0.039 A 
ATOM     26  C   UNL     1      12.867   5.869  23.883  0.00  0.00    +0.006 A 
ATOM     27  C   UNL     1      12.532   4.646  23.301  0.00  0.00    +0.039 A 
ATOM     28  C   UNL     1      11.211   4.195  23.335  0.00  0.00    +0.138 A 
ATOM     29  F   UNL     1      10.928   3.019  22.754  0.00  0.00    -0.205 F 
ENDBRANCH  20  22
ENDBRANCH   2  18
TORSDOF 4
ENDMDL
MODEL 3
REMARK VINA RESULT:      -7.0      2.190      7.095
REMARK  Name = 
REMARK  4 active torsions:
REMARK  status: ('A' for Active; 'I' for Inactive)
REMARK    1  A    between atoms: C_5  and  N_6
REMARK    2  A    between atoms: C_7  and  C_9
REMARK    3  A    between atoms: C_13  and  N_14
REMARK    4  A    between atoms: C_15  and  C_17
REMARK                            x       y       z     vdW  Elec       q    Type
REMARK                         _______ _______ _______ _____ _____    ______ ____
ROOT
ATOM      1  C   UNL     1       8.777  -4.047  24.310  0.00  0.00    +0.168 A 
ATOM      2  C   UNL     1       7.935  -4.923  25.064  0.00  0.00    +0.084 A 
ATOM      3  C   UNL     1       8.802  -5.650  25.838  0.00  0.00    +0.129 A 
ATOM      4  N   UNL     1      10.056  -5.237  25.509  0.00  0.00    -0.282 N 
ATOM      5  H   UNL     1      10.934  -5.568  25.895  0.00  0.00    +0.188 HD
ATOM      6  N   UNL     1      10.083  -4.261  24.578  0.00  0.00    -0.167 NA
ENDROOT
BRANCH   1   9
ATOM      7  N   UNL     1       8.847  -1.730  23.660  0.00  0.00    -0.280 N 
ATOM      8  H   UNL     1       9.613  -1.725  24.329  0.00  0.00    +0.155 HD
ATOM      9  C   UNL     1       8.316  -2.989  23.400  0.00  0.00    +0.270 C 
ATOM     10  O   UNL     1       7.517  -3.257  22.503  0.00  0.00    -0.268 OA
BRANCH   7  15
ATOM     11  F   UNL     1       7.112   3.039  21.420  0.00  0.00    -0.205 F 
ATOM     12  C   UNL     1       7.531   1.882  21.950  0.00  0.00    +0.124 A 
ATOM     13  C   UNL     1       6.770   1.254  22.930  0.00  0.00    +0.040 A 
ATOM     14  C   UNL     1       7.210   0.044  23.485  0.00  0.00    +0.026 A 
ATOM     15  C   UNL     1       8.425  -0.521  23.076  0.00  0.00    +0.034 A 
ATOM     16  C   UNL     1       9.162   0.122  22.072  0.00  0.00    +0.026 A 
ATOM     17  C   UNL     1       8.719   1.322  21.510  0.00  0.00    +0.040 A 
ENDBRANCH   7  15
ENDBRANCH   1   9
BRANCH   2  18
ATOM     18  N   UNL     1       6.545  -4.985  25.038  0.00  0.00    -0.278 N 
ATOM     19  H   UNL     1       6.073  -4.476  25.787  0.00  0.00    +0.155 HD
ATOM     20  C   UNL     1       5.806  -5.689  24.103  0.00  0.00    +0.254 C 
ATOM     21  O   UNL     1       6.265  -6.290  23.138  0.00  0.00    -0.270 OA
BRANCH  20  22
ATOM     22  C   UNL     1       4.341  -5.722  24.313  0.00  0.00    +0.107 A 
ATOM     23  C   UNL     1       3.530  -4.814  23.625  0.00  0.00    +0.138 A 
ATOM     24  F   UNL     1       4.050  -3.950  22.740  0.00  0.00    -0.205 F 
ATOM     25  C   UNL     1       2.147  -4.797  23.808  0.00  0.00    +0.039 A 
ATOM     26  C   UNL     1       1.552  -5.693  24.694  0.00  0.00    +0.006 A 
ATOM     27  C   UNL     1       2.350  -6.598  25.394  0.00  0.00    +0.039 A 
ATOM     28  C   UNL     1       3.733  -6.607  25.199  0.00  0.00    +0.138 A 
ATOM     29  F   UNL     1       4.465  -7.485  25.900  0.00  0.00    -0.205 F 
ENDBRANCH  20  22
ENDBRANCH   2  18
TORSDOF 4
ENDMDL
MODEL 4
REMARK VINA RESULT:      -7.0      2.121      7.214
REMARK  Name = 
REMARK  4 active torsions:
REMARK  status: ('A' for Active; 'I' for Inactive)
REMARK    1  A    between atoms: C_5  and  N_6
REMARK    2  A    between atoms: C_7  and  C_9
REMARK    3  A    between atoms: C_13  and  N_14
REMARK    4  A    between atoms: C_15  and  C_17
REMARK                            x       y       z     vdW  Elec       q    Type
REMARK                         _______ _______ _______ _____ _____    ______ ____
ROOT
ATOM      1  C   UNL     1       8.879  -4.060  24.352  0.00  0.00    +0.168 A 
ATOM      2  C   UNL     1       8.015  -4.934  25.084  0.00  0.00    +0.084 A 
ATOM      3  C   UNL     1       8.864  -5.701  25.840  0.00  0.00    +0.129 A 
ATOM      4  N   UNL     1      10.128  -5.310  25.521  0.00  0.00    -0.282 N 
ATOM      5  H   UNL     1      10.997  -5.671  25.899  0.00  0.00    +0.188 HD
ATOM      6  N   UNL     1      10.179  -4.312  24.615  0.00  0.00    -0.167 NA
ENDROOT
BRANCH   1   9
ATOM      7  N   UNL     1       9.099  -1.760  23.676  0.00  0.00    -0.280 N 
ATOM      8  H   UNL     1       9.910  -1.819  24.287  0.00  0.00    +0.155 HD
ATOM      9  C   UNL     1       8.444  -2.969  23.468  0.00  0.00    +0.270 C 
ATOM     10  O   UNL     1       7.560  -3.170  22.636  0.00  0.00    -0.268 OA
BRANCH   7  15
ATOM     11  F   UNL     1       7.624   3.137  21.529  0.00  0.00    -0.205 F 
ATOM     12  C   UNL     1       7.978   1.949  22.037  0.00  0.00    +0.124 A 
ATOM     13  C   UNL     1       7.286   1.427  23.123  0.00  0.00    +0.040 A 
ATOM     14  C   UNL     1       7.658   0.184  23.655  0.00  0.00    +0.026 A 
ATOM     15  C   UNL     1       8.741  -0.521  23.113  0.00  0.00    +0.034 A 
ATOM     16  C   UNL     1       9.408   0.019  22.006  0.00  0.00    +0.026 A 
ATOM     17  C   UNL     1       9.031   1.251  21.467  0.00  0.00    +0.040 A 
ENDBRANCH   7  15
ENDBRANCH   1   9
BRANCH   2  18
ATOM     18  N   UNL     1       6.624  -4.962  25.056  0.00  0.00    -0.278 N 
ATOM     19  H   UNL     1       6.163  -4.448  25.808  0.00  0.00    +0.155 HD
ATOM     20  C   UNL     1       5.869  -5.641  24.114  0.00  0.00    +0.254 C 
ATOM     21  O   UNL     1       6.315  -6.245  23.144  0.00  0.00    -0.270 OA
BRANCH  20  22
ATOM     22  C   UNL     1       4.403  -5.639  24.322  0.00  0.00    +0.107 A 
ATOM     23  C   UNL     1       3.833  -6.580  25.185  0.00  0.00    +0.138 A 
ATOM     24  F   UNL     1       4.594  -7.447  25.869  0.00  0.00    -0.205 F 
ATOM     25  C   UNL     1       2.454  -6.626  25.394  0.00  0.00    +0.039 A 
ATOM     26  C   UNL     1       1.620  -5.728  24.731  0.00  0.00    +0.006 A 
ATOM     27  C   UNL     1       2.175  -4.791  23.860  0.00  0.00    +0.039 A 
ATOM     28  C   UNL     1       3.557  -4.753  23.662  0.00  0.00    +0.138 A 
ATOM     29  F   UNL     1       4.049  -3.843  22.807  0.00  0.00    -0.205 F 
ENDBRANCH  20  22
ENDBRANCH   2  18
TORSDOF 4
ENDMDL
MODEL 5
REMARK VINA RESULT:      -6.8      3.088      3.825
REMARK  Name = 
REMARK  4 active torsions:
REMARK  status: ('A' for Active; 'I' for Inactive)
REMARK    1  A    between atoms: C_5  and  N_6
REMARK    2  A    between atoms: C_7  and  C_9
REMARK    3  A    between atoms: C_13  and  N_14
REMARK    4  A    between atoms: C_15  and  C_17
REMARK                            x       y       z     vdW  Elec       q    Type
REMARK                         _______ _______ _______ _____ _____    ______ ____
ROOT
ATOM      1  C   UNL     1       5.986  -5.541  23.621  0.00  0.00    +0.168 A 
ATOM      2  C   UNL     1       6.864  -4.668  22.905  0.00  0.00    +0.084 A 
ATOM      3  C   UNL     1       6.967  -5.234  21.660  0.00  0.00    +0.129 A 
ATOM      4  N   UNL     1       6.226  -6.375  21.689  0.00  0.00    -0.282 N 
ATOM      5  H   UNL     1       6.084  -7.035  20.932  0.00  0.00    +0.188 HD
ATOM      6  N   UNL     1       5.613  -6.598  22.869  0.00  0.00    -0.167 NA
ENDROOT
BRANCH   1   9
ATOM      7  N   UNL     1       5.057  -6.464  25.641  0.00  0.00    -0.280 N 
ATOM      8  H   UNL     1       5.310  -7.333  25.177  0.00  0.00    +0.155 HD
ATOM      9  C   UNL     1       5.476  -5.315  24.982  0.00  0.00    +0.270 C 
ATOM     10  O   UNL     1       5.441  -4.174  25.441  0.00  0.00    -0.268 OA
BRANCH   7  15
ATOM     11  F   UNL     1       2.359  -6.636  30.484  0.00  0.00    -0.205 F 
ATOM     12  C   UNL     1       3.003  -6.603  29.311  0.00  0.00    +0.124 A 
ATOM     13  C   UNL     1       4.377  -6.812  29.270  0.00  0.00    +0.040 A 
ATOM     14  C   UNL     1       5.051  -6.776  28.041  0.00  0.00    +0.026 A 
ATOM     15  C   UNL     1       4.351  -6.506  26.858  0.00  0.00    +0.034 A 
ATOM     16  C   UNL     1       2.964  -6.319  26.926  0.00  0.00    +0.026 A 
ATOM     17  C   UNL     1       2.289  -6.366  28.148  0.00  0.00    +0.040 A 
ENDBRANCH   7  15
ENDBRANCH   1   9
BRANCH   2  18
ATOM     18  N   UNL     1       7.444  -3.490  23.367  0.00  0.00    -0.278 N 
ATOM     19  H   UNL     1       6.902  -2.643  23.196  0.00  0.00    +0.155 HD
ATOM     20  C   UNL     1       8.674  -3.414  23.996  0.00  0.00    +0.254 C 
ATOM     21  O   UNL     1       9.383  -4.370  24.295  0.00  0.00    -0.270 OA
BRANCH  20  22
ATOM     22  C   UNL     1       9.167  -2.054  24.313  0.00  0.00    +0.107 A 
ATOM     23  C   UNL     1       9.980  -1.388  23.391  0.00  0.00    +0.138 A 
ATOM     24  F   UNL     1      10.277  -1.937  22.203  0.00  0.00    -0.205 F 
ATOM     25  C   UNL     1      10.481  -0.114  23.658  0.00  0.00    +0.039 A 
ATOM     26  C   UNL     1      10.179   0.514  24.864  0.00  0.00    +0.006 A 
ATOM     27  C   UNL     1       9.376  -0.142  25.797  0.00  0.00    +0.039 A 
ATOM     28  C   UNL     1       8.878  -1.417  25.516  0.00  0.00    +0.138 A 
ATOM     29  F   UNL     1       8.119  -2.018  26.445  0.00  0.00    -0.205 F 
ENDBRANCH  20  22
ENDBRANCH   2  18
TORSDOF 4
ENDMDL
MODEL 6
REMARK VINA RESULT:      -6.8      3.361      4.810
REMARK  Name = 
REMARK  4 active torsions:
REMARK  status: ('A' for Active; 'I' for Inactive)
REMARK    1  A    between atoms: C_5  and  N_6
REMARK    2  A    between atoms: C_7  and  C_9
REMARK    3  A    between atoms: C_13  and  N_14
REMARK    4  A    between atoms: C_15  and  C_17
REMARK                            x       y       z     vdW  Elec       q    Type
REMARK                         _______ _______ _______ _____ _____    ______ ____
ROOT
ATOM      1  C   UNL     1       8.668  -1.321  22.931  0.00  0.00    +0.168 A 
ATOM      2  C   UNL     1       8.762   0.088  22.704  0.00  0.00    +0.084 A 
ATOM      3  C   UNL     1       9.377   0.198  21.484  0.00  0.00    +0.129 A 
ATOM      4  N   UNL     1       9.649  -1.069  21.070  0.00  0.00    -0.282 N 
ATOM      5  H   UNL     1      10.099  -1.350  20.206  0.00  0.00    +0.188 HD
ATOM      6  N   UNL     1       9.233  -2.025  21.926  0.00  0.00    -0.167 NA
ENDROOT
BRANCH   1   9
ATOM      7  N   UNL     1       8.160  -3.341  24.139  0.00  0.00    -0.280 N 
ATOM      8  H   UNL     1       8.867  -3.712  23.508  0.00  0.00    +0.155 HD
ATOM      9  C   UNL     1       7.989  -1.963  24.066  0.00  0.00    +0.270 C 
ATOM     10  O   UNL     1       7.329  -1.282  24.850  0.00  0.00    -0.268 OA
BRANCH   7  15
ATOM     11  F   UNL     1       5.363  -6.806  27.446  0.00  0.00    -0.205 F 
ATOM     12  C   UNL     1       6.037  -5.960  26.655  0.00  0.00    +0.124 A 
ATOM     13  C   UNL     1       5.591  -5.719  25.361  0.00  0.00    +0.040 A 
ATOM     14  C   UNL     1       6.298  -4.836  24.533  0.00  0.00    +0.026 A 
ATOM     15  C   UNL     1       7.465  -4.214  24.996  0.00  0.00    +0.034 A 
ATOM     16  C   UNL     1       7.880  -4.459  26.312  0.00  0.00    +0.026 A 
ATOM     17  C   UNL     1       7.171  -5.330  27.142  0.00  0.00    +0.040 A 
ENDBRANCH   7  15
ENDBRANCH   1   9
BRANCH   2  18
ATOM     18  N   UNL     1       8.293   1.107  23.528  0.00  0.00    -0.278 N 
ATOM     19  H   UNL     1       7.311   1.354  23.399  0.00  0.00    +0.155 HD
ATOM     20  C   UNL     1       9.064   1.786  24.455  0.00  0.00    +0.254 C 
ATOM     21  O   UNL     1      10.235   1.540  24.727  0.00  0.00    -0.270 OA
BRANCH  20  22
ATOM     22  C   UNL     1       8.408   2.914  25.156  0.00  0.00    +0.107 A 
ATOM     23  C   UNL     1       8.749   4.225  24.812  0.00  0.00    +0.138 A 
ATOM     24  F   UNL     1       9.618   4.481  23.823  0.00  0.00    -0.205 F 
ATOM     25  C   UNL     1       8.169   5.316  25.461  0.00  0.00    +0.039 A 
ATOM     26  C   UNL     1       7.238   5.107  26.476  0.00  0.00    +0.006 A 
ATOM     27  C   UNL     1       6.895   3.804  26.836  0.00  0.00    +0.039 A 
ATOM     28  C   UNL     1       7.480   2.720  26.176  0.00  0.00    +0.138 A 
ATOM     29  F   UNL     1       7.133   1.483  26.560  0.00  0.00    -0.205 F 
ENDBRANCH  20  22
ENDBRANCH   2  18
TORSDOF 4
ENDMDL
MODEL 7
REMARK VINA RESULT:      -6.7      2.905      3.866
REMARK  Name = 
REMARK  4 active torsions:
REMARK  status: ('A' for Active; 'I' for Inactive)
REMARK    1  A    between atoms: C_5  and  N_6
REMARK    2  A    between atoms: C_7  and  C_9
REMARK    3  A    between atoms: C_13  and  N_14
REMARK    4  A    between atoms: C_15  and  C_17
REMARK                            x       y       z     vdW  Elec       q    Type
REMARK                         _______ _______ _______ _____ _____    ______ ____
ROOT
ATOM      1  C   UNL     1       6.107  -5.206  23.567  0.00  0.00    +0.168 A 
ATOM      2  C   UNL     1       7.201  -4.763  22.759  0.00  0.00    +0.084 A 
ATOM      3  C   UNL     1       7.203  -5.618  21.687  0.00  0.00    +0.129 A 
ATOM      4  N   UNL     1       6.197  -6.510  21.901  0.00  0.00    -0.282 N 
ATOM      5  H   UNL     1       5.920  -7.279  21.300  0.00  0.00    +0.188 HD
ATOM      6  N   UNL     1       5.506  -6.293  23.038  0.00  0.00    -0.167 NA
ENDROOT
BRANCH   1   9
ATOM      7  N   UNL     1       4.721  -3.511  24.569  0.00  0.00    -0.280 N 
ATOM      8  H   UNL     1       4.375  -3.448  23.614  0.00  0.00    +0.155 HD
ATOM      9  C   UNL     1       5.622  -4.546  24.789  0.00  0.00    +0.270 C 
ATOM     10  O   UNL     1       6.027  -4.921  25.888  0.00  0.00    -0.268 OA
BRANCH   7  15
ATOM     11  F   UNL     1       2.992   0.153  28.357  0.00  0.00    -0.205 F 
ATOM     12  C   UNL     1       3.410  -0.740  27.451  0.00  0.00    +0.124 A 
ATOM     13  C   UNL     1       4.603  -0.529  26.770  0.00  0.00    +0.040 A 
ATOM     14  C   UNL     1       5.038  -1.464  25.820  0.00  0.00    +0.026 A 
ATOM     15  C   UNL     1       4.264  -2.597  25.536  0.00  0.00    +0.034 A 
ATOM     16  C   UNL     1       3.076  -2.795  26.252  0.00  0.00    +0.026 A 
ATOM     17  C   UNL     1       2.646  -1.870  27.207  0.00  0.00    +0.040 A 
ENDBRANCH   7  15
ENDBRANCH   1   9
BRANCH   2  18
ATOM     18  N   UNL     1       8.043  -3.681  22.999  0.00  0.00    -0.278 N 
ATOM     19  H   UNL     1       8.997  -3.924  23.267  0.00  0.00    +0.155 HD
ATOM     20  C   UNL     1       7.659  -2.354  22.919  0.00  0.00    +0.254 C 
ATOM     21  O   UNL     1       6.557  -1.950  22.561  0.00  0.00    -0.270 OA
BRANCH  20  22
ATOM     22  C   UNL     1       8.673  -1.352  23.321  0.00  0.00    +0.107 A 
ATOM     23  C   UNL     1       8.915  -1.130  24.680  0.00  0.00    +0.138 A 
ATOM     24  F   UNL     1       8.286  -1.845  25.624  0.00  0.00    -0.205 F 
ATOM     25  C   UNL     1       9.848  -0.181  25.101  0.00  0.00    +0.039 A 
ATOM     26  C   UNL     1      10.550   0.570  24.161  0.00  0.00    +0.006 A 
ATOM     27  C   UNL     1      10.312   0.365  22.802  0.00  0.00    +0.039 A 
ATOM     28  C   UNL     1       9.378  -0.591  22.393  0.00  0.00    +0.138 A 
ATOM     29  F   UNL     1       9.170  -0.748  21.077  0.00  0.00    -0.205 F 
ENDBRANCH  20  22
ENDBRANCH   2  18
TORSDOF 4
ENDMDL
MODEL 8
REMARK VINA RESULT:      -6.7      3.365      4.744
REMARK  Name = 
REMARK  4 active torsions:
REMARK  status: ('A' for Active; 'I' for Inactive)
REMARK    1  A    between atoms: C_5  and  N_6
REMARK    2  A    between atoms: C_7  and  C_9
REMARK    3  A    between atoms: C_13  and  N_14
REMARK    4  A    between atoms: C_15  and  C_17
REMARK                            x       y       z     vdW  Elec       q    Type
REMARK                         _______ _______ _______ _____ _____    ______ ____
ROOT
ATOM      1  C   UNL     1       8.653  -1.330  22.940  0.00  0.00    +0.168 A 
ATOM      2  C   UNL     1       8.765   0.078  22.717  0.00  0.00    +0.084 A 
ATOM      3  C   UNL     1       9.396   0.183  21.504  0.00  0.00    +0.129 A 
ATOM      4  N   UNL     1       9.659  -1.086  21.091  0.00  0.00    -0.282 N 
ATOM      5  H   UNL     1      10.116  -1.371  20.232  0.00  0.00    +0.188 HD
ATOM      6  N   UNL     1       9.222  -2.038  21.941  0.00  0.00    -0.167 NA
ENDROOT
BRANCH   1   9
ATOM      7  N   UNL     1       8.156  -3.338  24.173  0.00  0.00    -0.280 N 
ATOM      8  H   UNL     1       8.891  -3.704  23.572  0.00  0.00    +0.155 HD
ATOM      9  C   UNL     1       7.954  -1.967  24.067  0.00  0.00    +0.270 C 
ATOM     10  O   UNL     1       7.254  -1.286  24.816  0.00  0.00    -0.268 OA
BRANCH   7  15
ATOM     11  F   UNL     1       5.338  -6.803  27.462  0.00  0.00    -0.205 F 
ATOM     12  C   UNL     1       6.017  -5.957  26.675  0.00  0.00    +0.124 A 
ATOM     13  C   UNL     1       5.587  -5.727  25.373  0.00  0.00    +0.040 A 
ATOM     14  C   UNL     1       6.299  -4.843  24.550  0.00  0.00    +0.026 A 
ATOM     15  C   UNL     1       7.456  -4.211  25.026  0.00  0.00    +0.034 A 
ATOM     16  C   UNL     1       7.854  -4.445  26.348  0.00  0.00    +0.026 A 
ATOM     17  C   UNL     1       7.140  -5.317  27.173  0.00  0.00    +0.040 A 
ENDBRANCH   7  15
ENDBRANCH   1   9
BRANCH   2  18
ATOM     18  N   UNL     1       8.297   1.101  23.537  0.00  0.00    -0.278 N 
ATOM     19  H   UNL     1       7.323   1.365  23.390  0.00  0.00    +0.155 HD
ATOM     20  C   UNL     1       9.062   1.762  24.483  0.00  0.00    +0.254 C 
ATOM     21  O   UNL     1      10.223   1.494  24.776  0.00  0.00    -0.270 OA
BRANCH  20  22
ATOM     22  C   UNL     1       8.412   2.897  25.176  0.00  0.00    +0.107 A 
ATOM     23  C   UNL     1       7.469   2.640  26.176  0.00  0.00    +0.138 A 
ATOM     24  F   UNL     1       7.183   1.385  26.555  0.00  0.00    -0.205 F 
ATOM     25  C   UNL     1       6.818   3.680  26.841  0.00  0.00    +0.039 A 
ATOM     26  C   UNL     1       7.100   5.003  26.507  0.00  0.00    +0.006 A 
ATOM     27  C   UNL     1       8.032   5.274  25.505  0.00  0.00    +0.039 A 
ATOM     28  C   UNL     1       8.679   4.224  24.849  0.00  0.00    +0.138 A 
ATOM     29  F   UNL     1       9.559   4.528  23.884  0.00  0.00    -0.205 F 
ENDBRANCH  20  22
ENDBRANCH   2  18
TORSDOF 4
ENDMDL
MODEL 9
REMARK VINA RESULT:      -6.6      2.982      7.408
REMARK  Name = 
REMARK  4 active torsions:
REMARK  status: ('A' for Active; 'I' for Inactive)
REMARK    1  A    between atoms: C_5  and  N_6
REMARK    2  A    between atoms: C_7  and  C_9
REMARK    3  A    between atoms: C_13  and  N_14
REMARK    4  A    between atoms: C_15  and  C_17
REMARK                            x       y       z     vdW  Elec       q    Type
REMARK                         _______ _______ _______ _____ _____    ______ ____
ROOT
ATOM      1  C   UNL     1       6.794  -4.310  22.643  0.00  0.00    +0.168 A 
ATOM      2  C   UNL     1       6.032  -5.234  23.426  0.00  0.00    +0.084 A 
ATOM      3  C   UNL     1       6.015  -6.383  22.677  0.00  0.00    +0.129 A 
ATOM      4  N   UNL     1       6.690  -6.108  21.528  0.00  0.00    -0.282 N 
ATOM      5  H   UNL     1       6.868  -6.739  20.754  0.00  0.00    +0.188 HD
ATOM      6  N   UNL     1       7.180  -4.853  21.469  0.00  0.00    -0.167 NA
ENDROOT
BRANCH   1   9
ATOM      7  N   UNL     1       8.411  -2.529  22.560  0.00  0.00    -0.280 N 
ATOM      8  H   UNL     1       8.804  -3.127  21.836  0.00  0.00    +0.155 HD
ATOM      9  C   UNL     1       7.187  -2.955  23.060  0.00  0.00    +0.270 C 
ATOM     10  O   UNL     1       6.450  -2.305  23.800  0.00  0.00    -0.268 OA
BRANCH   7  15
ATOM     11  F   UNL     1      11.133   2.071  24.043  0.00  0.00    -0.205 F 
ATOM     12  C   UNL     1      10.485   0.953  23.688  0.00  0.00    +0.124 A 
ATOM     13  C   UNL     1      10.015   0.810  22.388  0.00  0.00    +0.040 A 
ATOM     14  C   UNL     1       9.335  -0.359  22.017  0.00  0.00    +0.026 A 
ATOM     15  C   UNL     1       9.107  -1.372  22.958  0.00  0.00    +0.034 A 
ATOM     16  C   UNL     1       9.610  -1.210  24.255  0.00  0.00    +0.026 A 
ATOM     17  C   UNL     1      10.297  -0.051  24.623  0.00  0.00    +0.040 A 
ENDBRANCH   7  15
ENDBRANCH   1   9
BRANCH   2  18
ATOM     18  N   UNL     1       5.473  -5.015  24.681  0.00  0.00    -0.278 N 
ATOM     19  H   UNL     1       4.524  -4.640  24.676  0.00  0.00    +0.155 HD
ATOM     20  C   UNL     1       6.121  -5.250  25.882  0.00  0.00    +0.254 C 
ATOM     21  O   UNL     1       7.237  -5.744  26.006  0.00  0.00    -0.270 OA
BRANCH  20  22
ATOM     22  C   UNL     1       5.396  -4.848  27.109  0.00  0.00    +0.107 A 
ATOM     23  C   UNL     1       4.810  -5.831  27.911  0.00  0.00    +0.138 A 
ATOM     24  F   UNL     1       4.937  -7.134  27.619  0.00  0.00    -0.205 F 
ATOM     25  C   UNL     1       4.101  -5.494  29.065  0.00  0.00    +0.039 A 
ATOM     26  C   UNL     1       3.963  -4.158  29.431  0.00  0.00    +0.006 A 
ATOM     27  C   UNL     1       4.535  -3.165  28.635  0.00  0.00    +0.039 A 
ATOM     28  C   UNL     1       5.245  -3.516  27.484  0.00  0.00    +0.138 A 
ATOM     29  F   UNL     1       5.770  -2.531  26.740  0.00  0.00    -0.205 F 
ENDBRANCH  20  22
ENDBRANCH   2  18
TORSDOF 4
ENDMDL
