MODEL 1
REMARK VINA RESULT:      -6.1      0.000      0.000
REMARK  Name = 
REMARK  7 active torsions:
REMARK  status: ('A' for Active; 'I' for Inactive)
REMARK    1  A    between atoms: C_2  and  O_3
REMARK    2  A    between atoms: C_2  and  C_4
REMARK    3  A    between atoms: C_2  and  C_16
REMARK    4  A    between atoms: C_4  and  N_5
REMARK    5  A    between atoms: N_8  and  C_9
REMARK    6  A    between atoms: C_9  and  C_10
REMARK    7  A    between atoms: C_16  and  O_17
REMARK                            x       y       z     vdW  Elec       q    Type
REMARK                         _______ _______ _______ _____ _____    ______ ____
ROOT
ATOM      1  N   UNL     1      11.114   3.766  22.922  0.00  0.00    -0.296 N 
ATOM      2  H   UNL     1      11.984   3.323  22.660  0.00  0.00    +0.150 HD
ATOM      3  C   UNL     1       9.994   3.000  22.747  0.00  0.00    +0.300 C 
ATOM      4  N   UNL     1      10.194   2.000  21.841  0.00  0.00    -0.295 N 
ATOM      5  H   UNL     1      10.829   2.212  21.086  0.00  0.00    +0.151 HD
ATOM      6  O   UNL     1       8.950   3.208  23.349  0.00  0.00    -0.253 OA
ENDROOT
BRANCH   1   7
ATOM      7  C   UNL     1      11.169   4.763  23.988  0.00  0.00    +0.148 C 
BRANCH   7   8
ATOM      8  C   UNL     1      12.118   5.926  23.671  0.00  0.00    +0.239 C 
BRANCH   8   9
ATOM      9  C   UNL     1      13.166   5.436  22.676  0.00  0.00    +0.335 C 
ATOM     10  O   UNL     1      13.081   5.525  21.460  0.00  0.00    -0.248 OA
BRANCH   9  11
ATOM     11  O   UNL     1      14.234   4.882  23.309  0.00  0.00    -0.479 OA
ATOM     12  H   UNL     1      14.248   3.925  23.059  0.00  0.00    +0.295 HD
ENDBRANCH   9  11
ENDBRANCH   8   9
BRANCH   8  13
ATOM     13  O   UNL     1      12.821   6.411  24.834  0.00  0.00    -0.379 OA
ATOM     14  H   UNL     1      12.383   7.247  25.119  0.00  0.00    +0.211 HD
ENDBRANCH   8  13
ENDBRANCH   7   8
ENDBRANCH   1   7
BRANCH   4  15
ATOM     15  C   UNL     1       9.128   1.072  21.531  0.00  0.00    +0.141 C 
BRANCH  15  16
ATOM     16  C   UNL     1       9.135  -0.101  22.477  0.00  0.00    -0.030 A 
ATOM     17  C   UNL     1      10.160  -1.057  22.430  0.00  0.00    +0.005 A 
ATOM     18  C   UNL     1      10.140  -2.159  23.289  0.00  0.00    +0.000 A 
ATOM     19  C   UNL     1       9.099  -2.316  24.203  0.00  0.00    +0.000 A 
ATOM     20  C   UNL     1       8.073  -1.375  24.255  0.00  0.00    +0.000 A 
ATOM     21  C   UNL     1       8.088  -0.276  23.396  0.00  0.00    +0.005 A 
ENDBRANCH  15  16
ENDBRANCH   4  15
TORSDOF 7
ENDMDL
MODEL 2
REMARK VINA RESULT:      -6.0      5.053      7.912
REMARK  Name = 
REMARK  7 active torsions:
REMARK  status: ('A' for Active; 'I' for Inactive)
REMARK    1  A    between atoms: C_2  and  O_3
REMARK    2  A    between atoms: C_2  and  C_4
REMARK    3  A    between atoms: C_2  and  C_16
REMARK    4  A    between atoms: C_4  and  N_5
REMARK    5  A    between atoms: N_8  and  C_9
REMARK    6  A    between atoms: C_9  and  C_10
REMARK    7  A    between atoms: C_16  and  O_17
REMARK                            x       y       z     vdW  Elec       q    Type
REMARK                         _______ _______ _______ _____ _____    ______ ____
ROOT
ATOM      1  N   UNL     1       9.177  -3.295  24.022  0.00  0.00    -0.296 N 
ATOM      2  H   UNL     1      10.128  -3.336  24.363  0.00  0.00    +0.150 HD
ATOM      3  C   UNL     1       8.977  -2.464  22.952  0.00  0.00    +0.300 C 
ATOM      4  N   UNL     1       9.955  -1.518  22.849  0.00  0.00    -0.295 N 
ATOM      5  H   UNL     1      10.347  -1.195  23.721  0.00  0.00    +0.151 HD
ATOM      6  O   UNL     1       8.026  -2.583  22.193  0.00  0.00    -0.253 OA
ENDROOT
BRANCH   1   7
ATOM      7  C   UNL     1       8.355  -4.489  24.194  0.00  0.00    +0.148 C 
BRANCH   7   8
ATOM      8  C   UNL     1       8.874  -5.418  25.300  0.00  0.00    +0.239 C 
BRANCH   8   9
ATOM      9  C   UNL     1       8.460  -4.839  26.650  0.00  0.00    +0.335 C 
ATOM     10  O   UNL     1       8.530  -3.659  26.963  0.00  0.00    -0.248 OA
BRANCH   9  11
ATOM     11  O   UNL     1       7.987  -5.803  27.482  0.00  0.00    -0.479 OA
ATOM     12  H   UNL     1       8.700  -5.983  28.144  0.00  0.00    +0.295 HD
ENDBRANCH   9  11
ENDBRANCH   8   9
BRANCH   8  13
ATOM     13  O   UNL     1      10.312  -5.538  25.305  0.00  0.00    -0.379 OA
ATOM     14  H   UNL     1      10.657  -4.944  26.012  0.00  0.00    +0.211 HD
ENDBRANCH   8  13
ENDBRANCH   7   8
ENDBRANCH   1   7
BRANCH   4  15
ATOM     15  C   UNL     1       9.926  -0.555  21.771  0.00  0.00    +0.141 C 
BRANCH  15  16
ATOM     16  C   UNL     1       9.529   0.810  22.270  0.00  0.00    -0.030 A 
ATOM     17  C   UNL     1      10.215   1.415  23.334  0.00  0.00    +0.005 A 
ATOM     18  C   UNL     1       9.819   2.666  23.811  0.00  0.00    +0.000 A 
ATOM     19  C   UNL     1       8.736   3.326  23.232  0.00  0.00    +0.000 A 
ATOM     20  C   UNL     1       8.044   2.734  22.179  0.00  0.00    +0.000 A 
ATOM     21  C   UNL     1       8.435   1.482  21.702  0.00  0.00    +0.005 A 
ENDBRANCH  15  16
ENDBRANCH   4  15
TORSDOF 7
ENDMDL
MODEL 3
REMARK VINA RESULT:      -5.9      5.804      8.861
REMARK  Name = 
REMARK  7 active torsions:
REMARK  status: ('A' for Active; 'I' for Inactive)
REMARK    1  A    between atoms: C_2  and  O_3
REMARK    2  A    between atoms: C_2  and  C_4
REMARK    3  A    between atoms: C_2  and  C_16
REMARK    4  A    between atoms: C_4  and  N_5
REMARK    5  A    between atoms: N_8  and  C_9
REMARK    6  A    between atoms: C_9  and  C_10
REMARK    7  A    between atoms: C_16  and  O_17
REMARK                            x       y       z     vdW  Elec       q    Type
REMARK                         _______ _______ _______ _____ _____    ______ ____
ROOT
ATOM      1  N   UNL     1       6.814  -3.888  23.702  0.00  0.00    -0.296 N 
ATOM      2  H   UNL     1       6.249  -3.063  23.856  0.00  0.00    +0.150 HD
ATOM      3  C   UNL     1       8.164  -3.699  23.820  0.00  0.00    +0.300 C 
ATOM      4  N   UNL     1       8.515  -2.391  23.655  0.00  0.00    -0.295 N 
ATOM      5  H   UNL     1       7.947  -1.862  23.009  0.00  0.00    +0.151 HD
ATOM      6  O   UNL     1       8.941  -4.614  24.050  0.00  0.00    -0.253 OA
ENDROOT
BRANCH   1   7
ATOM      7  C   UNL     1       6.215  -5.177  24.036  0.00  0.00    +0.148 C 
BRANCH   7   8
ATOM      8  C   UNL     1       5.381  -5.765  22.890  0.00  0.00    +0.239 C 
BRANCH   8   9
ATOM      9  C   UNL     1       6.260  -5.842  21.646  0.00  0.00    +0.335 C 
ATOM     10  O   UNL     1       5.926  -5.492  20.523  0.00  0.00    -0.248 OA
BRANCH   9  11
ATOM     11  O   UNL     1       7.488  -6.349  21.933  0.00  0.00    -0.479 OA
ATOM     12  H   UNL     1       7.850  -5.811  22.680  0.00  0.00    +0.295 HD
ENDBRANCH   9  11
ENDBRANCH   8   9
BRANCH   8  13
ATOM     13  O   UNL     1       4.233  -4.957  22.558  0.00  0.00    -0.379 OA
ATOM     14  H   UNL     1       4.561  -4.149  22.098  0.00  0.00    +0.211 HD
ENDBRANCH   8  13
ENDBRANCH   7   8
ENDBRANCH   1   7
BRANCH   4  15
ATOM     15  C   UNL     1       9.900  -1.988  23.760  0.00  0.00    +0.141 C 
BRANCH  15  16
ATOM     16  C   UNL     1      10.070  -0.530  23.420  0.00  0.00    -0.030 A 
ATOM     17  C   UNL     1      10.522   0.385  24.383  0.00  0.00    +0.005 A 
ATOM     18  C   UNL     1      10.644   1.740  24.068  0.00  0.00    +0.000 A 
ATOM     19  C   UNL     1      10.319   2.196  22.791  0.00  0.00    +0.000 A 
ATOM     20  C   UNL     1       9.865   1.297  21.828  0.00  0.00    +0.000 A 
ATOM     21  C   UNL     1       9.737  -0.057  22.141  0.00  0.00    +0.005 A 
ENDBRANCH  15  16
ENDBRANCH   4  15
TORSDOF 7
ENDMDL
MODEL 4
REMARK VINA RESULT:      -5.9      5.727      8.831
REMARK  Name = 
REMARK  7 active torsions:
REMARK  status: ('A' for Active; 'I' for Inactive)
REMARK    1  A    between atoms: C_2  and  O_3
REMARK    2  A    between atoms: C_2  and  C_4
REMARK    3  A    between atoms: C_2  and  C_16
REMARK    4  A    between atoms: C_4  and  N_5
REMARK    5  A    between atoms: N_8  and  C_9
REMARK    6  A    between atoms: C_9  and  C_10
REMARK    7  A    between atoms: C_16  and  O_17
REMARK                            x       y       z     vdW  Elec       q    Type
REMARK                         _______ _______ _______ _____ _____    ______ ____
ROOT
ATOM      1  N   UNL     1       7.287  -4.050  24.116  0.00  0.00    -0.296 N 
ATOM      2  H   UNL     1       6.666  -3.254  24.061  0.00  0.00    +0.150 HD
ATOM      3  C   UNL     1       8.622  -3.753  24.050  0.00  0.00    +0.300 C 
ATOM      4  N   UNL     1       8.849  -2.543  23.465  0.00  0.00    -0.295 N 
ATOM      5  H   UNL     1       8.198  -2.275  22.741  0.00  0.00    +0.151 HD
ATOM      6  O   UNL     1       9.487  -4.504  24.479  0.00  0.00    -0.253 OA
ENDROOT
BRANCH   1   7
ATOM      7  C   UNL     1       6.822  -5.205  24.878  0.00  0.00    +0.148 C 
BRANCH   7   8
ATOM      8  C   UNL     1       6.242  -4.825  26.247  0.00  0.00    +0.239 C 
BRANCH   8   9
ATOM      9  C   UNL     1       7.109  -5.459  27.330  0.00  0.00    +0.335 C 
ATOM     10  O   UNL     1       6.771  -5.634  28.492  0.00  0.00    -0.248 OA
BRANCH   9  11
ATOM     11  O   UNL     1       8.325  -5.824  26.846  0.00  0.00    -0.479 OA
ATOM     12  H   UNL     1       8.956  -5.102  27.089  0.00  0.00    +0.295 HD
ENDBRANCH   9  11
ENDBRANCH   8   9
BRANCH   8  13
ATOM     13  O   UNL     1       4.894  -5.301  26.438  0.00  0.00    -0.379 OA
ATOM     14  H   UNL     1       4.949  -6.169  26.903  0.00  0.00    +0.211 HD
ENDBRANCH   8  13
ENDBRANCH   7   8
ENDBRANCH   1   7
BRANCH   4  15
ATOM     15  C   UNL     1      10.199  -2.045  23.319  0.00  0.00    +0.141 C 
BRANCH  15  16
ATOM     16  C   UNL     1      10.212  -0.549  23.141  0.00  0.00    -0.030 A 
ATOM     17  C   UNL     1      10.631   0.296  24.180  0.00  0.00    +0.005 A 
ATOM     18  C   UNL     1      10.607   1.683  24.017  0.00  0.00    +0.000 A 
ATOM     19  C   UNL     1      10.167   2.240  22.817  0.00  0.00    +0.000 A 
ATOM     20  C   UNL     1       9.745   1.412  21.780  0.00  0.00    +0.000 A 
ATOM     21  C   UNL     1       9.763   0.026  21.941  0.00  0.00    +0.005 A 
ENDBRANCH  15  16
ENDBRANCH   4  15
TORSDOF 7
ENDMDL
MODEL 5
REMARK VINA RESULT:      -5.9      5.503      8.794
REMARK  Name = 
REMARK  7 active torsions:
REMARK  status: ('A' for Active; 'I' for Inactive)
REMARK    1  A    between atoms: C_2  and  O_3
REMARK    2  A    between atoms: C_2  and  C_4
REMARK    3  A    between atoms: C_2  and  C_16
REMARK    4  A    between atoms: C_4  and  N_5
REMARK    5  A    between atoms: N_8  and  C_9
REMARK    6  A    between atoms: C_9  and  C_10
REMARK    7  A    between atoms: C_16  and  O_17
REMARK                            x       y       z     vdW  Elec       q    Type
REMARK                         _______ _______ _______ _____ _____    ______ ____
ROOT
ATOM      1  N   UNL     1       6.833  -3.560  22.615  0.00  0.00    -0.296 N 
ATOM      2  H   UNL     1       6.622  -2.978  21.816  0.00  0.00    +0.150 HD
ATOM      3  C   UNL     1       7.943  -3.193  23.326  0.00  0.00    +0.300 C 
ATOM      4  N   UNL     1       8.799  -2.434  22.583  0.00  0.00    -0.295 N 
ATOM      5  H   UNL     1       8.832  -2.648  21.597  0.00  0.00    +0.151 HD
ATOM      6  O   UNL     1       8.119  -3.519  24.492  0.00  0.00    -0.253 OA
ENDROOT
BRANCH   1   7
ATOM      7  C   UNL     1       5.707  -4.207  23.283  0.00  0.00    +0.148 C 
BRANCH   7   8
ATOM      8  C   UNL     1       5.478  -5.649  22.809  0.00  0.00    +0.239 C 
BRANCH   8   9
ATOM      9  C   UNL     1       6.322  -5.886  21.561  0.00  0.00    +0.335 C 
ATOM     10  O   UNL     1       5.965  -5.662  20.414  0.00  0.00    -0.248 OA
BRANCH   9  11
ATOM     11  O   UNL     1       7.550  -6.378  21.876  0.00  0.00    -0.479 OA
ATOM     12  H   UNL     1       8.180  -5.616  21.839  0.00  0.00    +0.295 HD
ENDBRANCH   9  11
ENDBRANCH   8   9
BRANCH   8  13
ATOM     13  O   UNL     1       4.104  -5.913  22.457  0.00  0.00    -0.379 OA
ATOM     14  H   UNL     1       3.635  -5.046  22.421  0.00  0.00    +0.211 HD
ENDBRANCH   8  13
ENDBRANCH   7   8
ENDBRANCH   1   7
BRANCH   4  15
ATOM     15  C   UNL     1      10.025  -1.936  23.166  0.00  0.00    +0.141 C 
BRANCH  15  16
ATOM     16  C   UNL     1      10.094  -0.432  23.087  0.00  0.00    -0.030 A 
ATOM     17  C   UNL     1       9.759   0.242  21.904  0.00  0.00    +0.005 A 
ATOM     18  C   UNL     1       9.858   1.634  21.830  0.00  0.00    +0.000 A 
ATOM     19  C   UNL     1      10.291   2.365  22.936  0.00  0.00    +0.000 A 
ATOM     20  C   UNL     1      10.630   1.706  24.115  0.00  0.00    +0.000 A 
ATOM     21  C   UNL     1      10.537   0.315  24.190  0.00  0.00    +0.005 A 
ENDBRANCH  15  16
ENDBRANCH   4  15
TORSDOF 7
ENDMDL
MODEL 6
REMARK VINA RESULT:      -5.8      5.938      9.071
REMARK  Name = 
REMARK  7 active torsions:
REMARK  status: ('A' for Active; 'I' for Inactive)
REMARK    1  A    between atoms: C_2  and  O_3
REMARK    2  A    between atoms: C_2  and  C_4
REMARK    3  A    between atoms: C_2  and  C_16
REMARK    4  A    between atoms: C_4  and  N_5
REMARK    5  A    between atoms: N_8  and  C_9
REMARK    6  A    between atoms: C_9  and  C_10
REMARK    7  A    between atoms: C_16  and  O_17
REMARK                            x       y       z     vdW  Elec       q    Type
REMARK                         _______ _______ _______ _____ _____    ______ ____
ROOT
ATOM      1  N   UNL     1       6.996  -4.130  24.538  0.00  0.00    -0.296 N 
ATOM      2  H   UNL     1       6.504  -3.315  24.877  0.00  0.00    +0.150 HD
ATOM      3  C   UNL     1       8.321  -3.936  24.258  0.00  0.00    +0.300 C 
ATOM      4  N   UNL     1       8.612  -2.622  24.039  0.00  0.00    -0.295 N 
ATOM      5  H   UNL     1       7.881  -2.077  23.606  0.00  0.00    +0.151 HD
ATOM      6  O   UNL     1       9.129  -4.854  24.220  0.00  0.00    -0.253 OA
ENDROOT
BRANCH   1   7
ATOM      7  C   UNL     1       6.518  -5.432  24.993  0.00  0.00    +0.148 C 
BRANCH   7   8
ATOM      8  C   UNL     1       5.799  -5.367  26.347  0.00  0.00    +0.239 C 
BRANCH   8   9
ATOM      9  C   UNL     1       6.840  -5.513  27.453  0.00  0.00    +0.335 C 
ATOM     10  O   UNL     1       6.640  -5.315  28.642  0.00  0.00    -0.248 OA
BRANCH   9  11
ATOM     11  O   UNL     1       8.043  -5.906  26.956  0.00  0.00    -0.479 OA
ATOM     12  H   UNL     1       8.505  -5.086  26.649  0.00  0.00    +0.295 HD
ENDBRANCH   9  11
ENDBRANCH   8   9
BRANCH   8  13
ATOM     13  O   UNL     1       4.833  -6.423  26.523  0.00  0.00    -0.379 OA
ATOM     14  H   UNL     1       4.437  -6.613  25.640  0.00  0.00    +0.211 HD
ENDBRANCH   8  13
ENDBRANCH   7   8
ENDBRANCH   1   7
BRANCH   4  15
ATOM     15  C   UNL     1       9.968  -2.214  23.743  0.00  0.00    +0.141 C 
BRANCH  15  16
ATOM     16  C   UNL     1      10.036  -0.744  23.419  0.00  0.00    -0.030 A 
ATOM     17  C   UNL     1       9.736  -0.276  22.131  0.00  0.00    +0.005 A 
ATOM     18  C   UNL     1       9.834   1.085  21.832  0.00  0.00    +0.000 A 
ATOM     19  C   UNL     1      10.231   1.991  22.814  0.00  0.00    +0.000 A 
ATOM     20  C   UNL     1      10.535   1.538  24.096  0.00  0.00    +0.000 A 
ATOM     21  C   UNL     1      10.442   0.179  24.396  0.00  0.00    +0.005 A 
ENDBRANCH  15  16
ENDBRANCH   4  15
TORSDOF 7
ENDMDL
MODEL 7
REMARK VINA RESULT:      -5.6      6.197      9.525
REMARK  Name = 
REMARK  7 active torsions:
REMARK  status: ('A' for Active; 'I' for Inactive)
REMARK    1  A    between atoms: C_2  and  O_3
REMARK    2  A    between atoms: C_2  and  C_4
REMARK    3  A    between atoms: C_2  and  C_16
REMARK    4  A    between atoms: C_4  and  N_5
REMARK    5  A    between atoms: N_8  and  C_9
REMARK    6  A    between atoms: C_9  and  C_10
REMARK    7  A    between atoms: C_16  and  O_17
REMARK                            x       y       z     vdW  Elec       q    Type
REMARK                         _______ _______ _______ _____ _____    ______ ____
ROOT
ATOM      1  N   UNL     1       7.809  -4.033  25.997  0.00  0.00    -0.296 N 
ATOM      2  H   UNL     1       7.451  -3.158  26.357  0.00  0.00    +0.150 HD
ATOM      3  C   UNL     1       8.866  -3.918  25.135  0.00  0.00    +0.300 C 
ATOM      4  N   UNL     1       8.932  -2.680  24.567  0.00  0.00    -0.295 N 
ATOM      5  H   UNL     1       8.047  -2.224  24.403  0.00  0.00    +0.151 HD
ATOM      6  O   UNL     1       9.646  -4.836  24.922  0.00  0.00    -0.253 OA
ENDROOT
BRANCH   1   7
ATOM      7  C   UNL     1       7.675  -5.208  26.852  0.00  0.00    +0.148 C 
BRANCH   7   8
ATOM      8  C   UNL     1       6.213  -5.602  27.104  0.00  0.00    +0.239 C 
BRANCH   8   9
ATOM      9  C   UNL     1       6.122  -6.259  28.478  0.00  0.00    +0.335 C 
ATOM     10  O   UNL     1       6.472  -5.746  29.531  0.00  0.00    -0.248 OA
BRANCH   9  11
ATOM     11  O   UNL     1       5.587  -7.506  28.399  0.00  0.00    -0.479 OA
ATOM     12  H   UNL     1       4.637  -7.393  28.145  0.00  0.00    +0.295 HD
ENDBRANCH   9  11
ENDBRANCH   8   9
BRANCH   8  13
ATOM     13  O   UNL     1       5.711  -6.549  26.139  0.00  0.00    -0.379 OA
ATOM     14  H   UNL     1       5.256  -7.267  26.637  0.00  0.00    +0.211 HD
ENDBRANCH   8  13
ENDBRANCH   7   8
ENDBRANCH   1   7
BRANCH   4  15
ATOM     15  C   UNL     1       9.993  -2.360  23.637  0.00  0.00    +0.141 C 
BRANCH  15  16
ATOM     16  C   UNL     1      10.083  -0.874  23.405  0.00  0.00    -0.030 A 
ATOM     17  C   UNL     1      10.367   0.004  24.462  0.00  0.00    +0.005 A 
ATOM     18  C   UNL     1      10.415   1.383  24.243  0.00  0.00    +0.000 A 
ATOM     19  C   UNL     1      10.183   1.899  22.968  0.00  0.00    +0.000 A 
ATOM     20  C   UNL     1       9.896   1.037  21.912  0.00  0.00    +0.000 A 
ATOM     21  C   UNL     1       9.842  -0.340  22.129  0.00  0.00    +0.005 A 
ENDBRANCH  15  16
ENDBRANCH   4  15
TORSDOF 7
ENDMDL
MODEL 8
REMARK VINA RESULT:      -5.6      3.101      4.725
REMARK  Name = 
REMARK  7 active torsions:
REMARK  status: ('A' for Active; 'I' for Inactive)
REMARK    1  A    between atoms: C_2  and  O_3
REMARK    2  A    between atoms: C_2  and  C_4
REMARK    3  A    between atoms: C_2  and  C_16
REMARK    4  A    between atoms: C_4  and  N_5
REMARK    5  A    between atoms: N_8  and  C_9
REMARK    6  A    between atoms: C_9  and  C_10
REMARK    7  A    between atoms: C_16  and  O_17
REMARK                            x       y       z     vdW  Elec       q    Type
REMARK                         _______ _______ _______ _____ _____    ______ ____
ROOT
ATOM      1  N   UNL     1      10.418  -0.163  23.693  0.00  0.00    -0.296 N 
ATOM      2  H   UNL     1      11.067  -0.549  23.020  0.00  0.00    +0.150 HD
ATOM      3  C   UNL     1       9.680  -1.086  24.384  0.00  0.00    +0.300 C 
ATOM      4  N   UNL     1       9.609  -2.280  23.730  0.00  0.00    -0.295 N 
ATOM      5  H   UNL     1       9.607  -2.229  22.722  0.00  0.00    +0.151 HD
ATOM      6  O   UNL     1       9.160  -0.840  25.463  0.00  0.00    -0.253 OA
ENDROOT
BRANCH   1   7
ATOM      7  C   UNL     1      10.777   1.110  24.310  0.00  0.00    +0.148 C 
BRANCH   7   8
ATOM      8  C   UNL     1       9.879   2.269  23.857  0.00  0.00    +0.239 C 
BRANCH   8   9
ATOM      9  C   UNL     1       9.240   1.891  22.525  0.00  0.00    +0.335 C 
ATOM     10  O   UNL     1       8.101   1.469  22.382  0.00  0.00    -0.248 OA
BRANCH   9  11
ATOM     11  O   UNL     1      10.095   2.089  21.487  0.00  0.00    -0.479 OA
ATOM     12  H   UNL     1       9.573   2.521  20.766  0.00  0.00    +0.295 HD
ENDBRANCH   9  11
ENDBRANCH   8   9
BRANCH   8  13
ATOM     13  O   UNL     1      10.607   3.498  23.653  0.00  0.00    -0.379 OA
ATOM     14  H   UNL     1       9.989   4.243  23.836  0.00  0.00    +0.211 HD
ENDBRANCH   8  13
ENDBRANCH   7   8
ENDBRANCH   1   7
BRANCH   4  15
ATOM     15  C   UNL     1       8.884  -3.388  24.311  0.00  0.00    +0.141 C 
BRANCH  15  16
ATOM     16  C   UNL     1       7.898  -3.968  23.329  0.00  0.00    -0.030 A 
ATOM     17  C   UNL     1       7.095  -3.134  22.538  0.00  0.00    +0.005 A 
ATOM     18  C   UNL     1       6.161  -3.681  21.655  0.00  0.00    +0.000 A 
ATOM     19  C   UNL     1       6.020  -5.064  21.553  0.00  0.00    +0.000 A 
ATOM     20  C   UNL     1       6.809  -5.903  22.336  0.00  0.00    +0.000 A 
ATOM     21  C   UNL     1       7.740  -5.359  23.222  0.00  0.00    +0.005 A 
ENDBRANCH  15  16
ENDBRANCH   4  15
TORSDOF 7
ENDMDL
MODEL 9
REMARK VINA RESULT:      -5.5      3.501      5.314
REMARK  Name = 
REMARK  7 active torsions:
REMARK  status: ('A' for Active; 'I' for Inactive)
REMARK    1  A    between atoms: C_2  and  O_3
REMARK    2  A    between atoms: C_2  and  C_4
REMARK    3  A    between atoms: C_2  and  C_16
REMARK    4  A    between atoms: C_4  and  N_5
REMARK    5  A    between atoms: N_8  and  C_9
REMARK    6  A    between atoms: C_9  and  C_10
REMARK    7  A    between atoms: C_16  and  O_17
REMARK                            x       y       z     vdW  Elec       q    Type
REMARK                         _______ _______ _______ _____ _____    ______ ____
ROOT
ATOM      1  N   UNL     1       9.090  -0.575  22.804  0.00  0.00    -0.296 N 
ATOM      2  H   UNL     1       8.104  -0.372  22.899  0.00  0.00    +0.150 HD
ATOM      3  C   UNL     1       9.454  -1.855  23.121  0.00  0.00    +0.300 C 
ATOM      4  N   UNL     1       8.541  -2.462  23.931  0.00  0.00    -0.295 N 
ATOM      5  H   UNL     1       8.062  -1.857  24.583  0.00  0.00    +0.151 HD
ATOM      6  O   UNL     1      10.483  -2.370  22.707  0.00  0.00    -0.253 OA
ENDROOT
BRANCH   1   7
ATOM      7  C   UNL     1       9.829   0.177  21.794  0.00  0.00    +0.148 C 
BRANCH   7   8
ATOM      8  C   UNL     1      10.072   1.638  22.193  0.00  0.00    +0.239 C 
BRANCH   8   9
ATOM      9  C   UNL     1       9.996   1.741  23.713  0.00  0.00    +0.335 C 
ATOM     10  O   UNL     1       9.088   2.265  24.341  0.00  0.00    -0.248 OA
BRANCH   9  11
ATOM     11  O   UNL     1      11.074   1.164  24.306  0.00  0.00    -0.479 OA
ATOM     12  H   UNL     1      11.302   0.366  23.767  0.00  0.00    +0.295 HD
ENDBRANCH   9  11
ENDBRANCH   8   9
BRANCH   8  13
ATOM     13  O   UNL     1       9.087   2.541  21.650  0.00  0.00    -0.379 OA
ATOM     14  H   UNL     1       9.535   3.096  20.970  0.00  0.00    +0.211 HD
ENDBRANCH   8  13
ENDBRANCH   7   8
ENDBRANCH   1   7
BRANCH   4  15
ATOM     15  C   UNL     1       8.743  -3.827  24.364  0.00  0.00    +0.141 C 
BRANCH  15  16
ATOM     16  C   UNL     1       7.558  -4.690  24.015  0.00  0.00    -0.030 A 
ATOM     17  C   UNL     1       7.415  -5.230  22.728  0.00  0.00    +0.005 A 
ATOM     18  C   UNL     1       6.296  -6.001  22.405  0.00  0.00    +0.000 A 
ATOM     19  C   UNL     1       5.310  -6.241  23.361  0.00  0.00    +0.000 A 
ATOM     20  C   UNL     1       5.438  -5.706  24.641  0.00  0.00    +0.000 A 
ATOM     21  C   UNL     1       6.553  -4.932  24.965  0.00  0.00    +0.005 A 
ENDBRANCH  15  16
ENDBRANCH   4  15
TORSDOF 7
ENDMDL
