MODEL 1
REMARK VINA RESULT:      -6.4      0.000      0.000
REMARK  Name = 
REMARK  11 active torsions:
REMARK  status: ('A' for Active; 'I' for Inactive)
REMARK    1  A    between atoms: O_1  and  C_2
REMARK    2  A    between atoms: C_2  and  C_4
REMARK    3  A    between atoms: C_4  and  N_5
REMARK    4  A    between atoms: C_6  and  C_8
REMARK    5  A    between atoms: C_8  and  C_9
REMARK    6  A    between atoms: C_9  and  C_10
REMARK    7  A    between atoms: C_10  and  P_11
REMARK    8  A    between atoms: P_11  and  O_12
REMARK    9  A    between atoms: P_11  and  O_14
REMARK   10  A    between atoms: O_14  and  C_15
REMARK   11  A    between atoms: C_18  and  N_21
REMARK                            x       y       z     vdW  Elec       q    Type
REMARK                         _______ _______ _______ _____ _____    ______ ____
ROOT
ATOM      1  P   UNL     1       8.073  -2.422  23.237  0.00  0.00    +0.379 P 
ATOM      2  O   UNL     1       7.826  -3.397  22.082  0.00  0.00    -0.244 OA
ENDROOT
BRANCH   1   3
ATOM      3  O   UNL     1       6.693  -3.110  24.020  0.00  0.00    -0.315 OA
ATOM      4  H   UNL     1       5.893  -2.668  23.673  0.00  0.00    +0.221 HD
ENDBRANCH   1   3
BRANCH   1   5
ATOM      5  C   UNL     1       9.201  -3.262  24.495  0.00  0.00    +0.141 C 
BRANCH   5   6
ATOM      6  C   UNL     1       8.592  -3.314  25.899  0.00  0.00    +0.022 C 
BRANCH   6   7
ATOM      7  C   UNL     1       8.858  -4.638  26.610  0.00  0.00    +0.096 C 
BRANCH   7  10
ATOM      8  N   UNL     1       6.717  -5.426  25.743  0.00  0.00    -0.305 N 
ATOM      9  H   UNL     1       6.848  -4.744  25.005  0.00  0.00    +0.149 HD
ATOM     10  C   UNL     1       7.589  -5.441  26.798  0.00  0.00    +0.213 C 
ATOM     11  O   UNL     1       7.320  -6.033  27.842  0.00  0.00    -0.276 OA
BRANCH   8  12
ATOM     12  C   UNL     1       5.447  -6.142  25.783  0.00  0.00    +0.224 C 
BRANCH  12  13
ATOM     13  C   UNL     1       4.800  -6.280  24.408  0.00  0.00    +0.322 C 
ATOM     14  O   UNL     1       4.727  -5.368  23.596  0.00  0.00    -0.249 OA
BRANCH  13  15
ATOM     15  O   UNL     1       4.372  -7.535  24.129  0.00  0.00    -0.480 OA
ATOM     16  H   UNL     1       3.728  -7.557  23.381  0.00  0.00    +0.295 HD
ENDBRANCH  13  15
ENDBRANCH  12  13
ENDBRANCH   8  12
ENDBRANCH   7  10
ENDBRANCH   6   7
ENDBRANCH   5   6
ENDBRANCH   1   5
BRANCH   1  17
ATOM     17  O   UNL     1       9.453  -1.734  22.454  0.00  0.00    -0.424 OA
BRANCH  17  18
ATOM     18  C   UNL     1       9.813  -0.438  22.745  0.00  0.00    +0.130 A 
ATOM     19  C   UNL     1       9.585   0.509  21.745  0.00  0.00    +0.053 A 
ATOM     20  C   UNL     1       9.889   1.858  21.964  0.00  0.00    +0.088 A 
ATOM     21  C   UNL     1      10.428   2.253  23.195  0.00  0.00    +0.273 A 
ATOM     22  C   UNL     1      10.672   1.305  24.196  0.00  0.00    +0.088 A 
ATOM     23  C   UNL     1      10.363  -0.040  23.967  0.00  0.00    +0.053 A 
BRANCH  21  24
ATOM     24  N   UNL     1      10.731   3.666  23.446  0.00  0.00    +0.080 N 
ATOM     25  O   UNL     1      11.922   4.007  23.469  0.00  0.00    +0.041 OA
ATOM     26  O   UNL     1       9.775   4.439  23.624  0.00  0.00    -0.576 OA
ENDBRANCH  21  24
ENDBRANCH  17  18
ENDBRANCH   1  17
TORSDOF 11
ENDMDL
MODEL 2
REMARK VINA RESULT:      -6.2      2.789      4.519
REMARK  Name = 
REMARK  11 active torsions:
REMARK  status: ('A' for Active; 'I' for Inactive)
REMARK    1  A    between atoms: O_1  and  C_2
REMARK    2  A    between atoms: C_2  and  C_4
REMARK    3  A    between atoms: C_4  and  N_5
REMARK    4  A    between atoms: C_6  and  C_8
REMARK    5  A    between atoms: C_8  and  C_9
REMARK    6  A    between atoms: C_9  and  C_10
REMARK    7  A    between atoms: C_10  and  P_11
REMARK    8  A    between atoms: P_11  and  O_12
REMARK    9  A    between atoms: P_11  and  O_14
REMARK   10  A    between atoms: O_14  and  C_15
REMARK   11  A    between atoms: C_18  and  N_21
REMARK                            x       y       z     vdW  Elec       q    Type
REMARK                         _______ _______ _______ _____ _____    ______ ____
ROOT
ATOM      1  P   UNL     1       7.031  -5.292  26.718  0.00  0.00    +0.379 P 
ATOM      2  O   UNL     1       7.227  -5.985  28.068  0.00  0.00    -0.244 OA
ENDROOT
BRANCH   1   3
ATOM      3  O   UNL     1       5.861  -6.509  26.342  0.00  0.00    -0.315 OA
ATOM      4  H   UNL     1       6.290  -7.181  25.776  0.00  0.00    +0.221 HD
ENDBRANCH   1   3
BRANCH   1   5
ATOM      5  C   UNL     1       5.647  -4.022  26.895  0.00  0.00    +0.141 C 
BRANCH   5   6
ATOM      6  C   UNL     1       4.773  -3.912  25.642  0.00  0.00    +0.022 C 
BRANCH   6   7
ATOM      7  C   UNL     1       4.960  -2.589  24.906  0.00  0.00    +0.096 C 
BRANCH   7  10
ATOM      8  N   UNL     1       5.977  -4.036  23.225  0.00  0.00    -0.305 N 
ATOM      9  H   UNL     1       5.726  -4.802  23.839  0.00  0.00    +0.149 HD
ATOM     10  C   UNL     1       5.805  -2.751  23.661  0.00  0.00    +0.213 C 
ATOM     11  O   UNL     1       6.349  -1.805  23.094  0.00  0.00    -0.276 OA
BRANCH   8  12
ATOM     12  C   UNL     1       6.777  -4.350  22.047  0.00  0.00    +0.224 C 
BRANCH  12  13
ATOM     13  C   UNL     1       6.269  -5.576  21.294  0.00  0.00    +0.322 C 
ATOM     14  O   UNL     1       5.956  -5.567  20.111  0.00  0.00    -0.249 OA
BRANCH  13  15
ATOM     15  O   UNL     1       6.262  -6.710  22.036  0.00  0.00    -0.480 OA
ATOM     16  H   UNL     1       5.981  -6.549  22.969  0.00  0.00    +0.295 HD
ENDBRANCH  13  15
ENDBRANCH  12  13
ENDBRANCH   8  12
ENDBRANCH   7  10
ENDBRANCH   6   7
ENDBRANCH   5   6
ENDBRANCH   1   5
BRANCH   1  17
ATOM     17  O   UNL     1       8.201  -4.074  27.093  0.00  0.00    -0.424 OA
BRANCH  17  18
ATOM     18  C   UNL     1       8.663  -3.255  26.089  0.00  0.00    +0.130 A 
ATOM     19  C   UNL     1       8.541  -1.880  26.304  0.00  0.00    +0.053 A 
ATOM     20  C   UNL     1       9.014  -0.970  25.352  0.00  0.00    +0.088 A 
ATOM     21  C   UNL     1       9.610  -1.447  24.178  0.00  0.00    +0.273 A 
ATOM     22  C   UNL     1       9.723  -2.824  23.951  0.00  0.00    +0.088 A 
ATOM     23  C   UNL     1       9.248  -3.725  24.910  0.00  0.00    +0.053 A 
BRANCH  21  24
ATOM     24  N   UNL     1      10.131  -0.504  23.181  0.00  0.00    +0.080 N 
ATOM     25  O   UNL     1      10.680   0.528  23.593  0.00  0.00    +0.041 OA
ATOM     26  O   UNL     1       9.988  -0.793  21.982  0.00  0.00    -0.576 OA
ENDBRANCH  21  24
ENDBRANCH  17  18
ENDBRANCH   1  17
TORSDOF 11
ENDMDL
MODEL 3
REMARK VINA RESULT:      -6.2      2.870      9.216
REMARK  Name = 
REMARK  11 active torsions:
REMARK  status: ('A' for Active; 'I' for Inactive)
REMARK    1  A    between atoms: O_1  and  C_2
REMARK    2  A    between atoms: C_2  and  C_4
REMARK    3  A    between atoms: C_4  and  N_5
REMARK    4  A    between atoms: C_6  and  C_8
REMARK    5  A    between atoms: C_8  and  C_9
REMARK    6  A    between atoms: C_9  and  C_10
REMARK    7  A    between atoms: C_10  and  P_11
REMARK    8  A    between atoms: P_11  and  O_12
REMARK    9  A    between atoms: P_11  and  O_14
REMARK   10  A    between atoms: O_14  and  C_15
REMARK   11  A    between atoms: C_18  and  N_21
REMARK                            x       y       z     vdW  Elec       q    Type
REMARK                         _______ _______ _______ _____ _____    ______ ____
ROOT
ATOM      1  P   UNL     1       9.112   1.553  22.477  0.00  0.00    +0.379 P 
ATOM      2  O   UNL     1       8.164   2.231  21.484  0.00  0.00    -0.244 OA
ENDROOT
BRANCH   1   3
ATOM      3  O   UNL     1      10.395   2.477  21.773  0.00  0.00    -0.315 OA
ATOM      4  H   UNL     1      10.070   2.863  20.936  0.00  0.00    +0.221 HD
ENDBRANCH   1   3
BRANCH   1   5
ATOM      5  C   UNL     1       9.206   2.617  24.032  0.00  0.00    +0.141 C 
BRANCH   5   6
ATOM      6  C   UNL     1       8.080   3.652  24.116  0.00  0.00    +0.022 C 
BRANCH   6   7
ATOM      7  C   UNL     1       8.466   4.995  23.503  0.00  0.00    +0.096 C 
BRANCH   7  10
ATOM      8  N   UNL     1      10.869   5.348  23.264  0.00  0.00    -0.305 N 
ATOM      9  H   UNL     1      10.808   4.725  22.468  0.00  0.00    +0.149 HD
ATOM     10  C   UNL     1       9.772   5.516  24.064  0.00  0.00    +0.213 C 
ATOM     11  O   UNL     1       9.867   6.015  25.184  0.00  0.00    -0.276 OA
BRANCH   8  12
ATOM     12  C   UNL     1      12.198   5.787  23.677  0.00  0.00    +0.224 C 
BRANCH  12  13
ATOM     13  C   UNL     1      13.285   5.409  22.675  0.00  0.00    +0.322 C 
ATOM     14  O   UNL     1      13.172   5.545  21.465  0.00  0.00    -0.249 OA
BRANCH  13  15
ATOM     15  O   UNL     1      14.431   4.972  23.252  0.00  0.00    -0.480 OA
ATOM     16  H   UNL     1      14.458   5.152  24.222  0.00  0.00    +0.295 HD
ENDBRANCH  13  15
ENDBRANCH  12  13
ENDBRANCH   8  12
ENDBRANCH   7  10
ENDBRANCH   6   7
ENDBRANCH   5   6
ENDBRANCH   1   5
BRANCH   1  17
ATOM     17  O   UNL     1       7.830   0.631  23.180  0.00  0.00    -0.424 OA
BRANCH  17  18
ATOM     18  C   UNL     1       8.066  -0.672  23.553  0.00  0.00    +0.130 A 
ATOM     19  C   UNL     1       9.405  -1.045  23.690  0.00  0.00    +0.053 A 
ATOM     20  C   UNL     1       9.741  -2.342  24.098  0.00  0.00    +0.088 A 
ATOM     21  C   UNL     1       8.724  -3.266  24.367  0.00  0.00    +0.273 A 
ATOM     22  C   UNL     1       7.380  -2.902  24.218  0.00  0.00    +0.088 A 
ATOM     23  C   UNL     1       7.056  -1.603  23.811  0.00  0.00    +0.053 A 
BRANCH  21  24
ATOM     24  N   UNL     1       9.061  -4.621  24.817  0.00  0.00    +0.080 N 
ATOM     25  O   UNL     1      10.259  -4.933  24.865  0.00  0.00    +0.041 OA
ATOM     26  O   UNL     1       8.125  -5.378  25.121  0.00  0.00    -0.576 OA
ENDBRANCH  21  24
ENDBRANCH  17  18
ENDBRANCH   1  17
TORSDOF 11
ENDMDL
MODEL 4
REMARK VINA RESULT:      -6.1      2.558      8.875
REMARK  Name = 
REMARK  11 active torsions:
REMARK  status: ('A' for Active; 'I' for Inactive)
REMARK    1  A    between atoms: O_1  and  C_2
REMARK    2  A    between atoms: C_2  and  C_4
REMARK    3  A    between atoms: C_4  and  N_5
REMARK    4  A    between atoms: C_6  and  C_8
REMARK    5  A    between atoms: C_8  and  C_9
REMARK    6  A    between atoms: C_9  and  C_10
REMARK    7  A    between atoms: C_10  and  P_11
REMARK    8  A    between atoms: P_11  and  O_12
REMARK    9  A    between atoms: P_11  and  O_14
REMARK   10  A    between atoms: O_14  and  C_15
REMARK   11  A    between atoms: C_18  and  N_21
REMARK                            x       y       z     vdW  Elec       q    Type
REMARK                         _______ _______ _______ _____ _____    ______ ____
ROOT
ATOM      1  P   UNL     1       8.931  -0.359  25.337  0.00  0.00    +0.379 P 
ATOM      2  O   UNL     1       9.072  -0.855  26.779  0.00  0.00    -0.244 OA
ENDROOT
BRANCH   1   3
ATOM      3  O   UNL     1       8.302   1.118  25.982  0.00  0.00    -0.315 OA
ATOM      4  H   UNL     1       8.704   1.263  26.862  0.00  0.00    +0.221 HD
ENDBRANCH   1   3
BRANCH   1   5
ATOM      5  C   UNL     1      10.523   0.534  24.857  0.00  0.00    +0.141 C 
BRANCH   5   6
ATOM      6  C   UNL     1      10.732   0.606  23.342  0.00  0.00    +0.022 C 
BRANCH   6   7
ATOM      7  C   UNL     1       9.755   1.556  22.655  0.00  0.00    +0.096 C 
BRANCH   7  10
ATOM      8  N   UNL     1      10.923   3.654  23.092  0.00  0.00    -0.305 N 
ATOM      9  H   UNL     1      11.749   3.182  22.745  0.00  0.00    +0.149 HD
ATOM     10  C   UNL     1       9.775   2.934  23.281  0.00  0.00    +0.213 C 
ATOM     11  O   UNL     1       8.849   3.374  23.960  0.00  0.00    -0.276 OA
BRANCH   8  12
ATOM     12  C   UNL     1      11.094   4.992  23.648  0.00  0.00    +0.224 C 
BRANCH  12  13
ATOM     13  C   UNL     1      12.531   5.495  23.551  0.00  0.00    +0.322 C 
ATOM     14  O   UNL     1      13.274   5.255  22.609  0.00  0.00    -0.249 OA
BRANCH  13  15
ATOM     15  O   UNL     1      12.897   6.305  24.575  0.00  0.00    -0.480 OA
ATOM     16  H   UNL     1      12.355   7.129  24.616  0.00  0.00    +0.295 HD
ENDBRANCH  13  15
ENDBRANCH  12  13
ENDBRANCH   8  12
ENDBRANCH   7  10
ENDBRANCH   6   7
ENDBRANCH   5   6
ENDBRANCH   1   5
BRANCH   1  17
ATOM     17  O   UNL     1       9.560  -1.834  24.692  0.00  0.00    -0.424 OA
BRANCH  17  18
ATOM     18  C   UNL     1       8.709  -2.702  24.047  0.00  0.00    +0.130 A 
ATOM     19  C   UNL     1       8.071  -2.212  22.905  0.00  0.00    +0.053 A 
ATOM     20  C   UNL     1       7.213  -3.035  22.166  0.00  0.00    +0.088 A 
ATOM     21  C   UNL     1       6.995  -4.355  22.580  0.00  0.00    +0.273 A 
ATOM     22  C   UNL     1       7.621  -4.847  23.732  0.00  0.00    +0.088 A 
ATOM     23  C   UNL     1       8.478  -4.016  24.463  0.00  0.00    +0.053 A 
BRANCH  21  24
ATOM     24  N   UNL     1       6.115  -5.234  21.803  0.00  0.00    +0.080 N 
ATOM     25  O   UNL     1       5.576  -6.181  22.393  0.00  0.00    +0.041 OA
ATOM     26  O   UNL     1       5.965  -4.981  20.596  0.00  0.00    -0.576 OA
ENDBRANCH  21  24
ENDBRANCH  17  18
ENDBRANCH   1  17
TORSDOF 11
ENDMDL
MODEL 5
REMARK VINA RESULT:      -6.1      1.944      9.284
REMARK  Name = 
REMARK  11 active torsions:
REMARK  status: ('A' for Active; 'I' for Inactive)
REMARK    1  A    between atoms: O_1  and  C_2
REMARK    2  A    between atoms: C_2  and  C_4
REMARK    3  A    between atoms: C_4  and  N_5
REMARK    4  A    between atoms: C_6  and  C_8
REMARK    5  A    between atoms: C_8  and  C_9
REMARK    6  A    between atoms: C_9  and  C_10
REMARK    7  A    between atoms: C_10  and  P_11
REMARK    8  A    between atoms: P_11  and  O_12
REMARK    9  A    between atoms: P_11  and  O_14
REMARK   10  A    between atoms: O_14  and  C_15
REMARK   11  A    between atoms: C_18  and  N_21
REMARK                            x       y       z     vdW  Elec       q    Type
REMARK                         _______ _______ _______ _____ _____    ______ ____
ROOT
ATOM      1  P   UNL     1       9.117  -1.318  22.802  0.00  0.00    +0.379 P 
ATOM      2  O   UNL     1       8.283  -2.381  22.081  0.00  0.00    -0.244 OA
ENDROOT
BRANCH   1   3
ATOM      3  O   UNL     1      10.264  -1.446  21.513  0.00  0.00    -0.315 OA
ATOM      4  H   UNL     1      11.132  -1.144  21.846  0.00  0.00    +0.221 HD
ENDBRANCH   1   3
BRANCH   1   5
ATOM      5  C   UNL     1       8.597   0.380  22.165  0.00  0.00    +0.141 C 
BRANCH   5   6
ATOM      6  C   UNL     1       9.766   1.365  22.070  0.00  0.00    +0.022 C 
BRANCH   6   7
ATOM      7  C   UNL     1      10.233   1.861  23.435  0.00  0.00    +0.096 C 
BRANCH   7  10
ATOM      8  N   UNL     1      11.593   3.803  22.858  0.00  0.00    -0.305 N 
ATOM      9  H   UNL     1      12.323   3.135  22.638  0.00  0.00    +0.149 HD
ATOM     10  C   UNL     1      10.442   3.360  23.449  0.00  0.00    +0.213 C 
ATOM     11  O   UNL     1       9.662   4.139  23.995  0.00  0.00    -0.276 OA
BRANCH   8  12
ATOM     12  C   UNL     1      11.937   5.220  22.807  0.00  0.00    +0.224 C 
BRANCH  12  13
ATOM     13  C   UNL     1      13.411   5.461  22.498  0.00  0.00    +0.322 C 
ATOM     14  O   UNL     1      13.808   6.157  21.573  0.00  0.00    -0.249 OA
BRANCH  13  15
ATOM     15  O   UNL     1      14.258   4.893  23.391  0.00  0.00    -0.480 OA
ATOM     16  H   UNL     1      13.796   4.596  24.212  0.00  0.00    +0.295 HD
ENDBRANCH  13  15
ENDBRANCH  12  13
ENDBRANCH   8  12
ENDBRANCH   7  10
ENDBRANCH   6   7
ENDBRANCH   5   6
ENDBRANCH   1   5
BRANCH   1  17
ATOM     17  O   UNL     1       7.971  -1.190  24.090  0.00  0.00    -0.424 OA
BRANCH  17  18
ATOM     18  C   UNL     1       7.700  -2.298  24.860  0.00  0.00    +0.130 A 
ATOM     19  C   UNL     1       6.374  -2.737  24.871  0.00  0.00    +0.053 A 
ATOM     20  C   UNL     1       6.011  -3.877  25.599  0.00  0.00    +0.088 A 
ATOM     21  C   UNL     1       6.988  -4.574  26.321  0.00  0.00    +0.273 A 
ATOM     22  C   UNL     1       8.316  -4.130  26.325  0.00  0.00    +0.088 A 
ATOM     23  C   UNL     1       8.668  -2.991  25.593  0.00  0.00    +0.053 A 
BRANCH  21  24
ATOM     24  N   UNL     1       6.626  -5.782  27.071  0.00  0.00    +0.080 N 
ATOM     25  O   UNL     1       7.174  -5.969  28.166  0.00  0.00    +0.041 OA
ATOM     26  O   UNL     1       5.792  -6.550  26.562  0.00  0.00    -0.576 OA
ENDBRANCH  21  24
ENDBRANCH  17  18
ENDBRANCH   1  17
TORSDOF 11
ENDMDL
MODEL 6
REMARK VINA RESULT:      -6.1      2.302      3.577
REMARK  Name = 
REMARK  11 active torsions:
REMARK  status: ('A' for Active; 'I' for Inactive)
REMARK    1  A    between atoms: O_1  and  C_2
REMARK    2  A    between atoms: C_2  and  C_4
REMARK    3  A    between atoms: C_4  and  N_5
REMARK    4  A    between atoms: C_6  and  C_8
REMARK    5  A    between atoms: C_8  and  C_9
REMARK    6  A    between atoms: C_9  and  C_10
REMARK    7  A    between atoms: C_10  and  P_11
REMARK    8  A    between atoms: P_11  and  O_12
REMARK    9  A    between atoms: P_11  and  O_14
REMARK   10  A    between atoms: O_14  and  C_15
REMARK   11  A    between atoms: C_18  and  N_21
REMARK                            x       y       z     vdW  Elec       q    Type
REMARK                         _______ _______ _______ _____ _____    ______ ____
ROOT
ATOM      1  P   UNL     1       9.431  -1.026  23.805  0.00  0.00    +0.379 P 
ATOM      2  O   UNL     1       8.913  -1.796  25.022  0.00  0.00    -0.244 OA
ENDROOT
BRANCH   1   3
ATOM      3  O   UNL     1      10.343  -2.436  23.389  0.00  0.00    -0.315 OA
ATOM      4  H   UNL     1       9.753  -3.052  22.912  0.00  0.00    +0.221 HD
ENDBRANCH   1   3
BRANCH   1   5
ATOM      5  C   UNL     1       8.271  -1.354  22.354  0.00  0.00    +0.141 C 
BRANCH   5   6
ATOM      6  C   UNL     1       6.959  -2.020  22.778  0.00  0.00    +0.022 C 
BRANCH   6   7
ATOM      7  C   UNL     1       6.741  -3.375  22.111  0.00  0.00    +0.096 C 
BRANCH   7  10
ATOM      8  N   UNL     1       7.358  -4.222  24.315  0.00  0.00    -0.305 N 
ATOM      9  H   UNL     1       7.353  -3.252  24.608  0.00  0.00    +0.149 HD
ATOM     10  C   UNL     1       7.212  -4.517  22.987  0.00  0.00    +0.213 C 
ATOM     11  O   UNL     1       7.496  -5.628  22.542  0.00  0.00    -0.276 OA
BRANCH   8  12
ATOM     12  C   UNL     1       7.817  -5.216  25.279  0.00  0.00    +0.224 C 
BRANCH  12  13
ATOM     13  C   UNL     1       9.270  -5.010  25.697  0.00  0.00    +0.322 C 
ATOM     14  O   UNL     1      10.203  -4.949  24.908  0.00  0.00    -0.249 OA
BRANCH  13  15
ATOM     15  O   UNL     1       9.434  -4.825  27.029  0.00  0.00    -0.480 OA
ATOM     16  H   UNL     1       9.731  -3.909  27.249  0.00  0.00    +0.295 HD
ENDBRANCH  13  15
ENDBRANCH  12  13
ENDBRANCH   8  12
ENDBRANCH   7  10
ENDBRANCH   6   7
ENDBRANCH   5   6
ENDBRANCH   1   5
BRANCH   1  17
ATOM     17  O   UNL     1       8.519   0.383  24.220  0.00  0.00    -0.424 OA
BRANCH  17  18
ATOM     18  C   UNL     1       9.082   1.626  24.038  0.00  0.00    +0.130 A 
ATOM     19  C   UNL     1       8.318   2.720  24.449  0.00  0.00    +0.053 A 
ATOM     20  C   UNL     1       8.824   4.020  24.333  0.00  0.00    +0.088 A 
ATOM     21  C   UNL     1      10.103   4.218  23.798  0.00  0.00    +0.273 A 
ATOM     22  C   UNL     1      10.868   3.126  23.371  0.00  0.00    +0.088 A 
ATOM     23  C   UNL     1      10.353   1.830  23.493  0.00  0.00    +0.053 A 
BRANCH  21  24
ATOM     24  N   UNL     1      10.654   5.573  23.691  0.00  0.00    +0.080 N 
ATOM     25  O   UNL     1      11.886   5.702  23.741  0.00  0.00    +0.041 OA
ATOM     26  O   UNL     1       9.854   6.514  23.560  0.00  0.00    -0.576 OA
ENDBRANCH  21  24
ENDBRANCH  17  18
ENDBRANCH   1  17
TORSDOF 11
ENDMDL
MODEL 7
REMARK VINA RESULT:      -6.1      1.762      9.042
REMARK  Name = 
REMARK  11 active torsions:
REMARK  status: ('A' for Active; 'I' for Inactive)
REMARK    1  A    between atoms: O_1  and  C_2
REMARK    2  A    between atoms: C_2  and  C_4
REMARK    3  A    between atoms: C_4  and  N_5
REMARK    4  A    between atoms: C_6  and  C_8
REMARK    5  A    between atoms: C_8  and  C_9
REMARK    6  A    between atoms: C_9  and  C_10
REMARK    7  A    between atoms: C_10  and  P_11
REMARK    8  A    between atoms: P_11  and  O_12
REMARK    9  A    between atoms: P_11  and  O_14
REMARK   10  A    between atoms: O_14  and  C_15
REMARK   11  A    between atoms: C_18  and  N_21
REMARK                            x       y       z     vdW  Elec       q    Type
REMARK                         _______ _______ _______ _____ _____    ______ ____
ROOT
ATOM      1  P   UNL     1       9.708  -1.516  23.408  0.00  0.00    +0.379 P 
ATOM      2  O   UNL     1      10.700  -1.811  22.280  0.00  0.00    -0.244 OA
ENDROOT
BRANCH   1   3
ATOM      3  O   UNL     1      10.744  -0.215  23.883  0.00  0.00    -0.315 OA
ATOM      4  H   UNL     1      10.435   0.121  24.748  0.00  0.00    +0.221 HD
ENDBRANCH   1   3
BRANCH   1   5
ATOM      5  C   UNL     1       8.440  -0.269  22.775  0.00  0.00    +0.141 C 
BRANCH   5   6
ATOM      6  C   UNL     1       9.018   0.692  21.733  0.00  0.00    +0.022 C 
BRANCH   6   7
ATOM      7  C   UNL     1       8.730   2.155  22.054  0.00  0.00    +0.096 C 
BRANCH   7  10
ATOM      8  N   UNL     1      10.785   3.331  22.645  0.00  0.00    -0.305 N 
ATOM      9  H   UNL     1      11.035   3.232  21.668  0.00  0.00    +0.149 HD
ATOM     10  C   UNL     1       9.667   2.695  23.113  0.00  0.00    +0.213 C 
ATOM     11  O   UNL     1       9.477   2.538  24.318  0.00  0.00    -0.276 OA
BRANCH   8  12
ATOM     12  C   UNL     1      11.787   3.890  23.545  0.00  0.00    +0.224 C 
BRANCH  12  13
ATOM     13  C   UNL     1      11.749   5.414  23.602  0.00  0.00    +0.322 C 
ATOM     14  O   UNL     1      10.739   6.077  23.410  0.00  0.00    -0.249 OA
BRANCH  13  15
ATOM     15  O   UNL     1      12.929   5.978  23.959  0.00  0.00    -0.480 OA
ATOM     16  H   UNL     1      12.965   6.199  24.920  0.00  0.00    +0.295 HD
ENDBRANCH  13  15
ENDBRANCH  12  13
ENDBRANCH   8  12
ENDBRANCH   7  10
ENDBRANCH   6   7
ENDBRANCH   5   6
ENDBRANCH   1   5
BRANCH   1  17
ATOM     17  O   UNL     1       8.672  -2.816  22.933  0.00  0.00    -0.424 OA
BRANCH  17  18
ATOM     18  C   UNL     1       8.125  -3.627  23.900  0.00  0.00    +0.130 A 
ATOM     19  C   UNL     1       8.919  -3.877  25.022  0.00  0.00    +0.053 A 
ATOM     20  C   UNL     1       8.433  -4.664  26.073  0.00  0.00    +0.088 A 
ATOM     21  C   UNL     1       7.143  -5.204  25.991  0.00  0.00    +0.273 A 
ATOM     22  C   UNL     1       6.348  -4.968  24.863  0.00  0.00    +0.088 A 
ATOM     23  C   UNL     1       6.843  -4.179  23.819  0.00  0.00    +0.053 A 
BRANCH  21  24
ATOM     24  N   UNL     1       6.613  -6.012  27.094  0.00  0.00    +0.080 N 
ATOM     25  O   UNL     1       5.616  -6.714  26.870  0.00  0.00    +0.041 OA
ATOM     26  O   UNL     1       7.192  -5.944  28.191  0.00  0.00    -0.576 OA
ENDBRANCH  21  24
ENDBRANCH  17  18
ENDBRANCH   1  17
TORSDOF 11
ENDMDL
MODEL 8
REMARK VINA RESULT:      -6.1      1.509      2.843
REMARK  Name = 
REMARK  11 active torsions:
REMARK  status: ('A' for Active; 'I' for Inactive)
REMARK    1  A    between atoms: O_1  and  C_2
REMARK    2  A    between atoms: C_2  and  C_4
REMARK    3  A    between atoms: C_4  and  N_5
REMARK    4  A    between atoms: C_6  and  C_8
REMARK    5  A    between atoms: C_8  and  C_9
REMARK    6  A    between atoms: C_9  and  C_10
REMARK    7  A    between atoms: C_10  and  P_11
REMARK    8  A    between atoms: P_11  and  O_12
REMARK    9  A    between atoms: P_11  and  O_14
REMARK   10  A    between atoms: O_14  and  C_15
REMARK   11  A    between atoms: C_18  and  N_21
REMARK                            x       y       z     vdW  Elec       q    Type
REMARK                         _______ _______ _______ _____ _____    ______ ____
ROOT
ATOM      1  P   UNL     1       8.227  -2.994  23.421  0.00  0.00    +0.379 P 
ATOM      2  O   UNL     1       7.228  -2.864  24.574  0.00  0.00    -0.244 OA
ENDROOT
BRANCH   1   3
ATOM      3  O   UNL     1       8.777  -4.460  24.155  0.00  0.00    -0.315 OA
ATOM      4  H   UNL     1       8.216  -5.193  23.831  0.00  0.00    +0.221 HD
ENDBRANCH   1   3
BRANCH   1   5
ATOM      5  C   UNL     1       7.417  -3.994  22.041  0.00  0.00    +0.141 C 
BRANCH   5   6
ATOM      6  C   UNL     1       7.173  -5.455  22.428  0.00  0.00    +0.022 C 
BRANCH   6   7
ATOM      7  C   UNL     1       5.690  -5.795  22.548  0.00  0.00    +0.096 C 
BRANCH   7  10
ATOM      8  N   UNL     1       5.933  -5.595  24.968  0.00  0.00    -0.305 N 
ATOM      9  H   UNL     1       6.714  -4.982  24.766  0.00  0.00    +0.149 HD
ATOM     10  C   UNL     1       5.332  -6.270  23.941  0.00  0.00    +0.213 C 
ATOM     11  O   UNL     1       4.592  -7.229  24.151  0.00  0.00    -0.276 OA
BRANCH   8  12
ATOM     12  C   UNL     1       5.697  -5.948  26.364  0.00  0.00    +0.224 C 
BRANCH  12  13
ATOM     13  C   UNL     1       6.870  -5.594  27.272  0.00  0.00    +0.322 C 
ATOM     14  O   UNL     1       6.745  -5.216  28.429  0.00  0.00    -0.249 OA
BRANCH  13  15
ATOM     15  O   UNL     1       8.083  -5.807  26.706  0.00  0.00    -0.480 OA
ATOM     16  H   UNL     1       8.097  -5.578  25.746  0.00  0.00    +0.295 HD
ENDBRANCH  13  15
ENDBRANCH  12  13
ENDBRANCH   8  12
ENDBRANCH   7  10
ENDBRANCH   6   7
ENDBRANCH   5   6
ENDBRANCH   1   5
BRANCH   1  17
ATOM     17  O   UNL     1       7.676  -1.528  22.686  0.00  0.00    -0.424 OA
BRANCH  17  18
ATOM     18  C   UNL     1       8.334  -0.351  22.962  0.00  0.00    +0.130 A 
ATOM     19  C   UNL     1       8.947   0.286  21.880  0.00  0.00    +0.053 A 
ATOM     20  C   UNL     1       9.610   1.505  22.060  0.00  0.00    +0.088 A 
ATOM     21  C   UNL     1       9.658   2.083  23.334  0.00  0.00    +0.273 A 
ATOM     22  C   UNL     1       9.058   1.443  24.425  0.00  0.00    +0.088 A 
ATOM     23  C   UNL     1       8.396   0.225  24.234  0.00  0.00    +0.053 A 
BRANCH  21  24
ATOM     24  N   UNL     1      10.331   3.372  23.533  0.00  0.00    +0.080 N 
ATOM     25  O   UNL     1      11.558   3.415  23.366  0.00  0.00    +0.041 OA
ATOM     26  O   UNL     1       9.632   4.345  23.860  0.00  0.00    -0.576 OA
ENDBRANCH  21  24
ENDBRANCH  17  18
ENDBRANCH   1  17
TORSDOF 11
ENDMDL
MODEL 9
REMARK VINA RESULT:      -6.1      2.873      8.465
REMARK  Name = 
REMARK  11 active torsions:
REMARK  status: ('A' for Active; 'I' for Inactive)
REMARK    1  A    between atoms: O_1  and  C_2
REMARK    2  A    between atoms: C_2  and  C_4
REMARK    3  A    between atoms: C_4  and  N_5
REMARK    4  A    between atoms: C_6  and  C_8
REMARK    5  A    between atoms: C_8  and  C_9
REMARK    6  A    between atoms: C_9  and  C_10
REMARK    7  A    between atoms: C_10  and  P_11
REMARK    8  A    between atoms: P_11  and  O_12
REMARK    9  A    between atoms: P_11  and  O_14
REMARK   10  A    between atoms: O_14  and  C_15
REMARK   11  A    between atoms: C_18  and  N_21
REMARK                            x       y       z     vdW  Elec       q    Type
REMARK                         _______ _______ _______ _____ _____    ______ ____
ROOT
ATOM      1  P   UNL     1       9.035  -0.190  24.987  0.00  0.00    +0.379 P 
ATOM      2  O   UNL     1       9.159  -0.591  26.460  0.00  0.00    -0.244 OA
ENDROOT
BRANCH   1   3
ATOM      3  O   UNL     1       8.540   1.376  25.528  0.00  0.00    -0.315 OA
ATOM      4  H   UNL     1       7.959   1.262  26.306  0.00  0.00    +0.221 HD
ENDBRANCH   1   3
BRANCH   1   5
ATOM      5  C   UNL     1      10.685   0.530  24.424  0.00  0.00    +0.141 C 
BRANCH   5   6
ATOM      6  C   UNL     1      10.528   1.820  23.614  0.00  0.00    +0.022 C 
BRANCH   6   7
ATOM      7  C   UNL     1       9.913   1.582  22.238  0.00  0.00    +0.096 C 
BRANCH   7  10
ATOM      8  N   UNL     1       8.591   3.587  22.668  0.00  0.00    -0.305 N 
ATOM      9  H   UNL     1       9.291   3.810  23.366  0.00  0.00    +0.149 HD
ATOM     10  C   UNL     1       8.634   2.369  22.048  0.00  0.00    +0.213 C 
ATOM     11  O   UNL     1       7.669   1.934  21.422  0.00  0.00    -0.276 OA
BRANCH   8  12
ATOM     12  C   UNL     1       7.420   4.452  22.587  0.00  0.00    +0.224 C 
BRANCH  12  13
ATOM     13  C   UNL     1       7.776   5.910  22.316  0.00  0.00    +0.322 C 
ATOM     14  O   UNL     1       8.609   6.538  22.956  0.00  0.00    -0.249 OA
BRANCH  13  15
ATOM     15  O   UNL     1       7.137   6.439  21.243  0.00  0.00    -0.480 OA
ATOM     16  H   UNL     1       6.520   7.167  21.494  0.00  0.00    +0.295 HD
ENDBRANCH  13  15
ENDBRANCH  12  13
ENDBRANCH   8  12
ENDBRANCH   7  10
ENDBRANCH   6   7
ENDBRANCH   5   6
ENDBRANCH   1   5
BRANCH   1  17
ATOM     17  O   UNL     1       9.530  -1.756  24.446  0.00  0.00    -0.424 OA
BRANCH  17  18
ATOM     18  C   UNL     1       8.607  -2.583  23.848  0.00  0.00    +0.130 A 
ATOM     19  C   UNL     1       7.671  -1.967  23.014  0.00  0.00    +0.053 A 
ATOM     20  C   UNL     1       6.714  -2.733  22.337  0.00  0.00    +0.088 A 
ATOM     21  C   UNL     1       6.700  -4.123  22.502  0.00  0.00    +0.273 A 
ATOM     22  C   UNL     1       7.627  -4.745  23.347  0.00  0.00    +0.088 A 
ATOM     23  C   UNL     1       8.580  -3.970  24.019  0.00  0.00    +0.053 A 
BRANCH  21  24
ATOM     24  N   UNL     1       5.717  -4.940  21.781  0.00  0.00    +0.080 N 
ATOM     25  O   UNL     1       4.686  -5.271  22.384  0.00  0.00    +0.041 OA
ATOM     26  O   UNL     1       5.977  -5.255  20.608  0.00  0.00    -0.576 OA
ENDBRANCH  21  24
ENDBRANCH  17  18
ENDBRANCH   1  17
TORSDOF 11
ENDMDL
