MODEL 1
REMARK VINA RESULT:      -6.2      0.000      0.000
REMARK  Name = 
REMARK  8 active torsions:
REMARK  status: ('A' for Active; 'I' for Inactive)
REMARK    1  A    between atoms: C_1  and  N_2
REMARK    2  A    between atoms: N_2  and  C_3
REMARK    3  A    between atoms: N_2  and  C_4
REMARK    4  A    between atoms: C_4  and  C_5
REMARK    5  A    between atoms: C_5  and  S_6
REMARK    6  A    between atoms: S_6  and  C_7
REMARK    7  A    between atoms: C_7  and  C_8
REMARK    8  A    between atoms: C_18  and  N_19
REMARK                            x       y       z     vdW  Elec       q    Type
REMARK                         _______ _______ _______ _____ _____    ______ ____
ROOT
ATOM      1  C   UNL     1       6.379  -4.262  23.261  0.00  0.00    -0.010 A 
ATOM      2  C   UNL     1       4.974  -4.245  23.111  0.00  0.00    +0.029 A 
ATOM      3  C   UNL     1       4.126  -4.703  24.121  0.00  0.00    +0.026 A 
ATOM      4  C   UNL     1       4.696  -5.284  25.250  0.00  0.00    +0.038 A 
ATOM      5  C   UNL     1       6.089  -5.319  25.393  0.00  0.00    +0.067 A 
ATOM      6  C   UNL     1       6.706  -5.868  26.611  0.00  0.00    +0.260 A 
ATOM      7  O   UNL     1       6.038  -6.319  27.535  0.00  0.00    -0.267 OA
ATOM      8  N   UNL     1       8.074  -5.836  26.652  0.00  0.00    -0.295 N 
ATOM      9  H   UNL     1       8.498  -6.171  27.501  0.00  0.00    +0.172 HD
ATOM     10  C   UNL     1       8.848  -5.341  25.646  0.00  0.00    +0.194 A 
ATOM     11  N   UNL     1      10.189  -5.381  25.833  0.00  0.00    -0.329 N 
ATOM     12  H   UNL     1      10.564  -6.110  26.422  0.00  0.00    +0.145 HD
ATOM     13  H   UNL     1      10.709  -5.236  24.974  0.00  0.00    +0.145 HD
ATOM     14  N   UNL     1       8.349  -4.858  24.556  0.00  0.00    -0.216 NA
ATOM     15  C   UNL     1       6.948  -4.818  24.413  0.00  0.00    +0.084 A 
ENDROOT
BRANCH   3  16
ATOM     16  N   UNL     1       2.748  -4.770  23.901  0.00  0.00    -0.358 N 
ATOM     17  H   UNL     1       2.371  -3.968  23.406  0.00  0.00    +0.142 HD
ATOM     18  H   UNL     1       2.211  -4.986  24.737  0.00  0.00    +0.142 HD
ENDBRANCH   3  16
BRANCH   1  19
ATOM     19  C   UNL     1       7.229  -3.599  22.208  0.00  0.00    +0.106 C 
BRANCH  19  20
ATOM     20  S   UNL     1       7.429  -1.823  22.605  0.00  0.00    -0.155 S 
BRANCH  20  21
ATOM     21  C   UNL     1       9.046  -1.503  21.823  0.00  0.00    +0.085 C 
BRANCH  21  22
ATOM     22  C   UNL     1      10.181  -1.502  22.856  0.00  0.00    +0.094 C 
BRANCH  22  24
ATOM     23  C   UNL     1      10.061   0.846  22.412  0.00  0.00    +0.104 C 
ATOM     24  N   UNL     1      10.603  -0.169  23.325  0.00  0.00    -0.308 NA
ATOM     25  C   UNL     1      10.154   0.103  24.690  0.00  0.00    +0.104 C 
ENDBRANCH  22  24
ENDBRANCH  21  22
ENDBRANCH  20  21
ENDBRANCH  19  20
ENDBRANCH   1  19
TORSDOF 6
ENDMDL
MODEL 2
REMARK VINA RESULT:      -5.9      3.049      5.804
REMARK  Name = 
REMARK  8 active torsions:
REMARK  status: ('A' for Active; 'I' for Inactive)
REMARK    1  A    between atoms: C_1  and  N_2
REMARK    2  A    between atoms: N_2  and  C_3
REMARK    3  A    between atoms: N_2  and  C_4
REMARK    4  A    between atoms: C_4  and  C_5
REMARK    5  A    between atoms: C_5  and  S_6
REMARK    6  A    between atoms: S_6  and  C_7
REMARK    7  A    between atoms: C_7  and  C_8
REMARK    8  A    between atoms: C_18  and  N_19
REMARK                            x       y       z     vdW  Elec       q    Type
REMARK                         _______ _______ _______ _____ _____    ______ ____
ROOT
ATOM      1  C   UNL     1       7.063  -3.417  25.242  0.00  0.00    -0.010 A 
ATOM      2  C   UNL     1       7.908  -4.479  25.635  0.00  0.00    +0.029 A 
ATOM      3  C   UNL     1       9.247  -4.531  25.244  0.00  0.00    +0.026 A 
ATOM      4  C   UNL     1       9.716  -3.564  24.360  0.00  0.00    +0.038 A 
ATOM      5  C   UNL     1       8.876  -2.519  23.954  0.00  0.00    +0.067 A 
ATOM      6  C   UNL     1       9.376  -1.451  23.075  0.00  0.00    +0.260 A 
ATOM      7  O   UNL     1      10.529  -1.434  22.659  0.00  0.00    -0.267 OA
ATOM      8  N   UNL     1       8.475  -0.472  22.755  0.00  0.00    -0.295 N 
ATOM      9  H   UNL     1       8.824   0.283  22.189  0.00  0.00    +0.172 HD
ATOM     10  C   UNL     1       7.187  -0.457  23.200  0.00  0.00    +0.194 A 
ATOM     11  N   UNL     1       6.414   0.579  22.794  0.00  0.00    -0.329 N 
ATOM     12  H   UNL     1       6.628   1.011  21.907  0.00  0.00    +0.145 HD
ATOM     13  H   UNL     1       5.424   0.413  22.944  0.00  0.00    +0.145 HD
ATOM     14  N   UNL     1       6.704  -1.379  23.965  0.00  0.00    -0.216 NA
ATOM     15  C   UNL     1       7.548  -2.427  24.378  0.00  0.00    +0.084 A 
ENDROOT
BRANCH   3  16
ATOM     16  N   UNL     1      10.026  -5.646  25.562  0.00  0.00    -0.358 N 
ATOM     17  H   UNL     1       9.706  -6.508  25.131  0.00  0.00    +0.142 HD
ATOM     18  H   UNL     1      10.191  -5.760  26.559  0.00  0.00    +0.142 HD
ENDBRANCH   3  16
BRANCH   1  19
ATOM     19  C   UNL     1       5.681  -3.332  25.835  0.00  0.00    +0.106 C 
BRANCH  19  20
ATOM     20  S   UNL     1       4.703  -4.795  25.333  0.00  0.00    -0.155 S 
BRANCH  20  21
ATOM     21  C   UNL     1       4.391  -4.384  23.584  0.00  0.00    +0.085 C 
BRANCH  21  22
ATOM     22  C   UNL     1       4.775  -5.544  22.656  0.00  0.00    +0.094 C 
BRANCH  22  24
ATOM     23  C   UNL     1       5.894  -3.782  21.487  0.00  0.00    +0.104 C 
ATOM     24  N   UNL     1       5.825  -5.237  21.667  0.00  0.00    -0.308 NA
ATOM     25  C   UNL     1       7.134  -5.748  22.076  0.00  0.00    +0.104 C 
ENDBRANCH  22  24
ENDBRANCH  21  22
ENDBRANCH  20  21
ENDBRANCH  19  20
ENDBRANCH   1  19
TORSDOF 6
ENDMDL
MODEL 3
REMARK VINA RESULT:      -5.8      2.262      3.151
REMARK  Name = 
REMARK  8 active torsions:
REMARK  status: ('A' for Active; 'I' for Inactive)
REMARK    1  A    between atoms: C_1  and  N_2
REMARK    2  A    between atoms: N_2  and  C_3
REMARK    3  A    between atoms: N_2  and  C_4
REMARK    4  A    between atoms: C_4  and  C_5
REMARK    5  A    between atoms: C_5  and  S_6
REMARK    6  A    between atoms: S_6  and  C_7
REMARK    7  A    between atoms: C_7  and  C_8
REMARK    8  A    between atoms: C_18  and  N_19
REMARK                            x       y       z     vdW  Elec       q    Type
REMARK                         _______ _______ _______ _____ _____    ______ ____
ROOT
ATOM      1  C   UNL     1       6.976  -4.945  24.650  0.00  0.00    -0.010 A 
ATOM      2  C   UNL     1       6.953  -4.652  23.269  0.00  0.00    +0.029 A 
ATOM      3  C   UNL     1       5.951  -5.148  22.434  0.00  0.00    +0.026 A 
ATOM      4  C   UNL     1       5.023  -6.036  22.969  0.00  0.00    +0.038 A 
ATOM      5  C   UNL     1       5.054  -6.342  24.336  0.00  0.00    +0.067 A 
ATOM      6  C   UNL     1       4.039  -7.225  24.932  0.00  0.00    +0.260 A 
ATOM      7  O   UNL     1       3.140  -7.729  24.266  0.00  0.00    -0.267 OA
ATOM      8  N   UNL     1       4.154  -7.443  26.278  0.00  0.00    -0.295 N 
ATOM      9  H   UNL     1       3.437  -8.011  26.697  0.00  0.00    +0.172 HD
ATOM     10  C   UNL     1       5.137  -6.898  27.049  0.00  0.00    +0.194 A 
ATOM     11  N   UNL     1       5.120  -7.210  28.367  0.00  0.00    -0.329 N 
ATOM     12  H   UNL     1       4.724  -8.097  28.639  0.00  0.00    +0.145 HD
ATOM     13  H   UNL     1       5.994  -6.988  28.833  0.00  0.00    +0.145 HD
ATOM     14  N   UNL     1       6.053  -6.126  26.566  0.00  0.00    -0.216 NA
ATOM     15  C   UNL     1       6.021  -5.813  25.193  0.00  0.00    +0.084 A 
ENDROOT
BRANCH   3  16
ATOM     16  N   UNL     1       6.015  -4.927  21.055  0.00  0.00    -0.358 N 
ATOM     17  H   UNL     1       5.820  -3.969  20.783  0.00  0.00    +0.142 HD
ATOM     18  H   UNL     1       5.475  -5.593  20.509  0.00  0.00    +0.142 HD
ENDBRANCH   3  16
BRANCH   1  19
ATOM     19  C   UNL     1       7.983  -4.242  25.524  0.00  0.00    +0.106 C 
BRANCH  19  20
ATOM     20  S   UNL     1       8.164  -2.503  24.982  0.00  0.00    -0.155 S 
BRANCH  20  21
ATOM     21  C   UNL     1       9.771  -2.603  24.125  0.00  0.00    +0.085 C 
BRANCH  21  22
ATOM     22  C   UNL     1       9.760  -1.808  22.813  0.00  0.00    +0.094 C 
BRANCH  22  24
ATOM     23  C   UNL     1      10.583   0.197  23.825  0.00  0.00    +0.104 C 
ATOM     24  N   UNL     1       9.536  -0.358  22.958  0.00  0.00    -0.308 NA
ATOM     25  C   UNL     1       9.541   0.333  21.669  0.00  0.00    +0.104 C 
ENDBRANCH  22  24
ENDBRANCH  21  22
ENDBRANCH  20  21
ENDBRANCH  19  20
ENDBRANCH   1  19
TORSDOF 6
ENDMDL
MODEL 4
REMARK VINA RESULT:      -5.8      2.136      3.383
REMARK  Name = 
REMARK  8 active torsions:
REMARK  status: ('A' for Active; 'I' for Inactive)
REMARK    1  A    between atoms: C_1  and  N_2
REMARK    2  A    between atoms: N_2  and  C_3
REMARK    3  A    between atoms: N_2  and  C_4
REMARK    4  A    between atoms: C_4  and  C_5
REMARK    5  A    between atoms: C_5  and  S_6
REMARK    6  A    between atoms: S_6  and  C_7
REMARK    7  A    between atoms: C_7  and  C_8
REMARK    8  A    between atoms: C_18  and  N_19
REMARK                            x       y       z     vdW  Elec       q    Type
REMARK                         _______ _______ _______ _____ _____    ______ ____
ROOT
ATOM      1  C   UNL     1       7.596  -4.694  25.514  0.00  0.00    -0.010 A 
ATOM      2  C   UNL     1       7.347  -4.811  26.899  0.00  0.00    +0.029 A 
ATOM      3  C   UNL     1       6.301  -5.594  27.390  0.00  0.00    +0.026 A 
ATOM      4  C   UNL     1       5.428  -6.179  26.478  0.00  0.00    +0.038 A 
ATOM      5  C   UNL     1       5.661  -6.049  25.102  0.00  0.00    +0.067 A 
ATOM      6  C   UNL     1       4.788  -6.718  24.125  0.00  0.00    +0.260 A 
ATOM      7  O   UNL     1       3.828  -7.400  24.468  0.00  0.00    -0.267 OA
ATOM      8  N   UNL     1       5.118  -6.538  22.810  0.00  0.00    -0.295 N 
ATOM      9  H   UNL     1       4.549  -7.029  22.140  0.00  0.00    +0.172 HD
ATOM     10  C   UNL     1       6.178  -5.790  22.393  0.00  0.00    +0.194 A 
ATOM     11  N   UNL     1       6.375  -5.704  21.056  0.00  0.00    -0.329 N 
ATOM     12  H   UNL     1       5.570  -5.787  20.451  0.00  0.00    +0.145 HD
ATOM     13  H   UNL     1       7.007  -4.952  20.799  0.00  0.00    +0.145 HD
ATOM     14  N   UNL     1       6.964  -5.178  23.215  0.00  0.00    -0.216 NA
ATOM     15  C   UNL     1       6.734  -5.311  24.598  0.00  0.00    +0.084 A 
ENDROOT
BRANCH   3  16
ATOM     16  N   UNL     1       6.017  -5.605  28.758  0.00  0.00    -0.358 N 
ATOM     17  H   UNL     1       5.698  -6.504  29.105  0.00  0.00    +0.142 HD
ATOM     18  H   UNL     1       5.408  -4.847  29.055  0.00  0.00    +0.142 HD
ENDBRANCH   3  16
BRANCH   1  19
ATOM     19  C   UNL     1       8.839  -3.974  25.057  0.00  0.00    +0.106 C 
BRANCH  19  20
ATOM     20  S   UNL     1       8.494  -2.183  24.906  0.00  0.00    -0.155 S 
BRANCH  20  21
ATOM     21  C   UNL     1       9.821  -1.701  23.751  0.00  0.00    +0.085 C 
BRANCH  21  22
ATOM     22  C   UNL     1       9.979  -0.175  23.682  0.00  0.00    +0.094 C 
BRANCH  22  24
ATOM     23  C   UNL     1       9.323  -0.322  21.385  0.00  0.00    +0.104 C 
ATOM     24  N   UNL     1      10.207   0.372  22.331  0.00  0.00    -0.308 NA
ATOM     25  C   UNL     1       9.963   1.812  22.271  0.00  0.00    +0.104 C 
ENDBRANCH  22  24
ENDBRANCH  21  22
ENDBRANCH  20  21
ENDBRANCH  19  20
ENDBRANCH   1  19
TORSDOF 6
ENDMDL
MODEL 5
REMARK VINA RESULT:      -5.7      2.615      4.142
REMARK  Name = 
REMARK  8 active torsions:
REMARK  status: ('A' for Active; 'I' for Inactive)
REMARK    1  A    between atoms: C_1  and  N_2
REMARK    2  A    between atoms: N_2  and  C_3
REMARK    3  A    between atoms: N_2  and  C_4
REMARK    4  A    between atoms: C_4  and  C_5
REMARK    5  A    between atoms: C_5  and  S_6
REMARK    6  A    between atoms: S_6  and  C_7
REMARK    7  A    between atoms: C_7  and  C_8
REMARK    8  A    between atoms: C_18  and  N_19
REMARK                            x       y       z     vdW  Elec       q    Type
REMARK                         _______ _______ _______ _____ _____    ______ ____
ROOT
ATOM      1  C   UNL     1       8.123  -1.186  23.923  0.00  0.00    -0.010 A 
ATOM      2  C   UNL     1       8.490  -0.503  25.103  0.00  0.00    +0.029 A 
ATOM      3  C   UNL     1       8.746  -1.187  26.293  0.00  0.00    +0.026 A 
ATOM      4  C   UNL     1       8.526  -2.561  26.327  0.00  0.00    +0.038 A 
ATOM      5  C   UNL     1       8.145  -3.238  25.162  0.00  0.00    +0.067 A 
ATOM      6  C   UNL     1       7.975  -4.700  25.164  0.00  0.00    +0.260 A 
ATOM      7  O   UNL     1       8.149  -5.376  26.172  0.00  0.00    -0.267 OA
ATOM      8  N   UNL     1       7.617  -5.259  23.967  0.00  0.00    -0.295 N 
ATOM      9  H   UNL     1       7.542  -6.263  23.954  0.00  0.00    +0.172 HD
ATOM     10  C   UNL     1       7.417  -4.540  22.827  0.00  0.00    +0.194 A 
ATOM     11  N   UNL     1       7.064  -5.237  21.721  0.00  0.00    -0.329 N 
ATOM     12  H   UNL     1       6.556  -6.101  21.847  0.00  0.00    +0.145 HD
ATOM     13  H   UNL     1       6.693  -4.645  20.985  0.00  0.00    +0.145 HD
ATOM     14  N   UNL     1       7.546  -3.255  22.783  0.00  0.00    -0.216 NA
ATOM     15  C   UNL     1       7.935  -2.573  23.952  0.00  0.00    +0.084 A 
ENDROOT
BRANCH   3  16
ATOM     16  N   UNL     1       9.004  -0.475  27.468  0.00  0.00    -0.358 N 
ATOM     17  H   UNL     1       9.873  -0.736  27.924  0.00  0.00    +0.142 HD
ATOM     18  H   UNL     1       8.223  -0.464  28.119  0.00  0.00    +0.142 HD
ENDBRANCH   3  16
BRANCH   1  19
ATOM     19  C   UNL     1       8.028  -0.409  22.635  0.00  0.00    +0.106 C 
BRANCH  19  20
ATOM     20  S   UNL     1       9.695  -0.221  21.903  0.00  0.00    -0.155 S 
BRANCH  20  21
ATOM     21  C   UNL     1       9.863   1.594  21.956  0.00  0.00    +0.085 C 
BRANCH  21  22
ATOM     22  C   UNL     1       8.494   2.284  22.026  0.00  0.00    +0.094 C 
BRANCH  22  24
ATOM     23  C   UNL     1       6.985   2.985  23.746  0.00  0.00    +0.104 C 
ATOM     24  N   UNL     1       8.313   3.209  23.161  0.00  0.00    -0.308 NA
ATOM     25  C   UNL     1       9.341   3.031  24.185  0.00  0.00    +0.104 C 
ENDBRANCH  22  24
ENDBRANCH  21  22
ENDBRANCH  20  21
ENDBRANCH  19  20
ENDBRANCH   1  19
TORSDOF 6
ENDMDL
MODEL 6
REMARK VINA RESULT:      -5.6      1.154      3.412
REMARK  Name = 
REMARK  8 active torsions:
REMARK  status: ('A' for Active; 'I' for Inactive)
REMARK    1  A    between atoms: C_1  and  N_2
REMARK    2  A    between atoms: N_2  and  C_3
REMARK    3  A    between atoms: N_2  and  C_4
REMARK    4  A    between atoms: C_4  and  C_5
REMARK    5  A    between atoms: C_5  and  S_6
REMARK    6  A    between atoms: S_6  and  C_7
REMARK    7  A    between atoms: C_7  and  C_8
REMARK    8  A    between atoms: C_18  and  N_19
REMARK                            x       y       z     vdW  Elec       q    Type
REMARK                         _______ _______ _______ _____ _____    ______ ____
ROOT
ATOM      1  C   UNL     1       7.415  -3.926  23.818  0.00  0.00    -0.010 A 
ATOM      2  C   UNL     1       8.728  -4.212  24.251  0.00  0.00    +0.029 A 
ATOM      3  C   UNL     1       8.978  -5.123  25.278  0.00  0.00    +0.026 A 
ATOM      4  C   UNL     1       7.892  -5.673  25.953  0.00  0.00    +0.038 A 
ATOM      5  C   UNL     1       6.587  -5.378  25.538  0.00  0.00    +0.067 A 
ATOM      6  C   UNL     1       5.429  -6.004  26.196  0.00  0.00    +0.260 A 
ATOM      7  O   UNL     1       5.555  -6.793  27.126  0.00  0.00    -0.267 OA
ATOM      8  N   UNL     1       4.202  -5.658  25.699  0.00  0.00    -0.295 N 
ATOM      9  H   UNL     1       3.410  -6.116  26.117  0.00  0.00    +0.172 HD
ATOM     10  C   UNL     1       4.025  -4.787  24.666  0.00  0.00    +0.194 A 
ATOM     11  N   UNL     1       2.747  -4.542  24.288  0.00  0.00    -0.329 N 
ATOM     12  H   UNL     1       2.022  -4.622  24.986  0.00  0.00    +0.145 HD
ATOM     13  H   UNL     1       2.663  -3.719  23.700  0.00  0.00    +0.145 HD
ATOM     14  N   UNL     1       5.011  -4.207  24.066  0.00  0.00    -0.216 NA
ATOM     15  C   UNL     1       6.324  -4.507  24.478  0.00  0.00    +0.084 A 
ENDROOT
BRANCH   3  16
ATOM     16  N   UNL     1      10.279  -5.304  25.753  0.00  0.00    -0.358 N 
ATOM     17  H   UNL     1      10.684  -4.474  26.173  0.00  0.00    +0.142 HD
ATOM     18  H   UNL     1      10.906  -5.729  25.074  0.00  0.00    +0.142 HD
ENDBRANCH   3  16
BRANCH   1  19
ATOM     19  C   UNL     1       7.223  -3.066  22.596  0.00  0.00    +0.106 C 
BRANCH  19  20
ATOM     20  S   UNL     1       7.537  -1.313  23.021  0.00  0.00    -0.155 S 
BRANCH  20  21
ATOM     21  C   UNL     1       9.147  -1.070  22.197  0.00  0.00    +0.085 C 
BRANCH  21  22
ATOM     22  C   UNL     1      10.226  -0.620  23.192  0.00  0.00    +0.094 C 
BRANCH  22  24
ATOM     23  C   UNL     1       9.931   1.449  22.025  0.00  0.00    +0.104 C 
ATOM     24  N   UNL     1      10.457   0.836  23.252  0.00  0.00    -0.308 NA
ATOM     25  C   UNL     1       9.824   1.447  24.421  0.00  0.00    +0.104 C 
ENDBRANCH  22  24
ENDBRANCH  21  22
ENDBRANCH  20  21
ENDBRANCH  19  20
ENDBRANCH   1  19
TORSDOF 6
ENDMDL
MODEL 7
REMARK VINA RESULT:      -5.2      2.842      6.020
REMARK  Name = 
REMARK  8 active torsions:
REMARK  status: ('A' for Active; 'I' for Inactive)
REMARK    1  A    between atoms: C_1  and  N_2
REMARK    2  A    between atoms: N_2  and  C_3
REMARK    3  A    between atoms: N_2  and  C_4
REMARK    4  A    between atoms: C_4  and  C_5
REMARK    5  A    between atoms: C_5  and  S_6
REMARK    6  A    between atoms: S_6  and  C_7
REMARK    7  A    between atoms: C_7  and  C_8
REMARK    8  A    between atoms: C_18  and  N_19
REMARK                            x       y       z     vdW  Elec       q    Type
REMARK                         _______ _______ _______ _____ _____    ______ ____
ROOT
ATOM      1  C   UNL     1       7.068  -3.895  23.478  0.00  0.00    -0.010 A 
ATOM      2  C   UNL     1       7.843  -4.919  24.066  0.00  0.00    +0.029 A 
ATOM      3  C   UNL     1       8.960  -4.631  24.852  0.00  0.00    +0.026 A 
ATOM      4  C   UNL     1       9.368  -3.304  24.962  0.00  0.00    +0.038 A 
ATOM      5  C   UNL     1       8.611  -2.288  24.365  0.00  0.00    +0.067 A 
ATOM      6  C   UNL     1       8.989  -0.875  24.528  0.00  0.00    +0.260 A 
ATOM      7  O   UNL     1       9.972  -0.533  25.176  0.00  0.00    -0.267 OA
ATOM      8  N   UNL     1       8.170   0.035  23.917  0.00  0.00    -0.295 N 
ATOM      9  H   UNL     1       8.400   1.004  24.061  0.00  0.00    +0.172 HD
ATOM     10  C   UNL     1       7.069  -0.308  23.191  0.00  0.00    +0.194 A 
ATOM     11  N   UNL     1       6.359   0.707  22.644  0.00  0.00    -0.329 N 
ATOM     12  H   UNL     1       6.850   1.558  22.410  0.00  0.00    +0.145 HD
ATOM     13  H   UNL     1       5.714   0.393  21.926  0.00  0.00    +0.145 HD
ATOM     14  N   UNL     1       6.706  -1.535  23.014  0.00  0.00    -0.216 NA
ATOM     15  C   UNL     1       7.463  -2.559  23.618  0.00  0.00    +0.084 A 
ENDROOT
BRANCH   3  16
ATOM     16  N   UNL     1       9.766  -5.667  25.332  0.00  0.00    -0.358 N 
ATOM     17  H   UNL     1       9.251  -6.404  25.802  0.00  0.00    +0.142 HD
ATOM     18  H   UNL     1      10.558  -5.347  25.884  0.00  0.00    +0.142 HD
ENDBRANCH   3  16
BRANCH   1  19
ATOM     19  C   UNL     1       5.783  -4.265  22.785  0.00  0.00    +0.106 C 
BRANCH  19  20
ATOM     20  S   UNL     1       4.737  -5.257  23.914  0.00  0.00    -0.155 S 
BRANCH  20  21
ATOM     21  C   UNL     1       4.351  -3.999  25.177  0.00  0.00    +0.085 C 
BRANCH  21  22
ATOM     22  C   UNL     1       4.387  -4.592  26.592  0.00  0.00    +0.094 C 
BRANCH  22  24
ATOM     23  C   UNL     1       6.515  -5.049  27.586  0.00  0.00    +0.104 C 
ATOM     24  N   UNL     1       5.412  -5.631  26.812  0.00  0.00    -0.308 NA
ATOM     25  C   UNL     1       4.874  -6.795  27.516  0.00  0.00    +0.104 C 
ENDBRANCH  22  24
ENDBRANCH  21  22
ENDBRANCH  20  21
ENDBRANCH  19  20
ENDBRANCH   1  19
TORSDOF 6
ENDMDL
MODEL 8
REMARK VINA RESULT:      -5.2      2.232      4.213
REMARK  Name = 
REMARK  8 active torsions:
REMARK  status: ('A' for Active; 'I' for Inactive)
REMARK    1  A    between atoms: C_1  and  N_2
REMARK    2  A    between atoms: N_2  and  C_3
REMARK    3  A    between atoms: N_2  and  C_4
REMARK    4  A    between atoms: C_4  and  C_5
REMARK    5  A    between atoms: C_5  and  S_6
REMARK    6  A    between atoms: S_6  and  C_7
REMARK    7  A    between atoms: C_7  and  C_8
REMARK    8  A    between atoms: C_18  and  N_19
REMARK                            x       y       z     vdW  Elec       q    Type
REMARK                         _______ _______ _______ _____ _____    ______ ____
ROOT
ATOM      1  C   UNL     1       6.528  -2.545  24.987  0.00  0.00    -0.010 A 
ATOM      2  C   UNL     1       5.330  -1.969  25.461  0.00  0.00    +0.029 A 
ATOM      3  C   UNL     1       4.720  -2.413  26.636  0.00  0.00    +0.026 A 
ATOM      4  C   UNL     1       5.261  -3.519  27.285  0.00  0.00    +0.038 A 
ATOM      5  C   UNL     1       6.440  -4.105  26.806  0.00  0.00    +0.067 A 
ATOM      6  C   UNL     1       7.062  -5.232  27.518  0.00  0.00    +0.260 A 
ATOM      7  O   UNL     1       6.578  -5.705  28.540  0.00  0.00    -0.267 OA
ATOM      8  N   UNL     1       8.220  -5.715  26.972  0.00  0.00    -0.295 N 
ATOM      9  H   UNL     1       8.672  -6.458  27.479  0.00  0.00    +0.172 HD
ATOM     10  C   UNL     1       8.788  -5.213  25.839  0.00  0.00    +0.194 A 
ATOM     11  N   UNL     1       9.935  -5.800  25.421  0.00  0.00    -0.329 N 
ATOM     12  H   UNL     1      10.080  -6.773  25.648  0.00  0.00    +0.145 HD
ATOM     13  H   UNL     1      10.171  -5.560  24.463  0.00  0.00    +0.145 HD
ATOM     14  N   UNL     1       8.271  -4.231  25.178  0.00  0.00    -0.216 NA
ATOM     15  C   UNL     1       7.088  -3.638  25.660  0.00  0.00    +0.084 A 
ENDROOT
BRANCH   3  16
ATOM     16  N   UNL     1       3.482  -1.894  27.022  0.00  0.00    -0.358 N 
ATOM     17  H   UNL     1       3.151  -1.136  26.432  0.00  0.00    +0.142 HD
ATOM     18  H   UNL     1       3.428  -1.656  28.009  0.00  0.00    +0.142 HD
ENDBRANCH   3  16
BRANCH   1  19
ATOM     19  C   UNL     1       7.223  -1.910  23.810  0.00  0.00    +0.106 C 
BRANCH  19  20
ATOM     20  S   UNL     1       7.217  -3.067  22.392  0.00  0.00    -0.155 S 
BRANCH  20  21
ATOM     21  C   UNL     1       5.447  -3.506  22.348  0.00  0.00    +0.085 C 
BRANCH  21  22
ATOM     22  C   UNL     1       5.228  -4.990  22.674  0.00  0.00    +0.094 C 
BRANCH  22  24
ATOM     23  C   UNL     1       2.959  -5.333  23.352  0.00  0.00    +0.104 C 
ATOM     24  N   UNL     1       4.346  -5.257  23.826  0.00  0.00    -0.308 NA
ATOM     25  C   UNL     1       4.702  -6.496  24.517  0.00  0.00    +0.104 C 
ENDBRANCH  22  24
ENDBRANCH  21  22
ENDBRANCH  20  21
ENDBRANCH  19  20
ENDBRANCH   1  19
TORSDOF 6
ENDMDL
MODEL 9
REMARK VINA RESULT:      -5.2      4.452      8.202
REMARK  Name = 
REMARK  8 active torsions:
REMARK  status: ('A' for Active; 'I' for Inactive)
REMARK    1  A    between atoms: C_1  and  N_2
REMARK    2  A    between atoms: N_2  and  C_3
REMARK    3  A    between atoms: N_2  and  C_4
REMARK    4  A    between atoms: C_4  and  C_5
REMARK    5  A    between atoms: C_5  and  S_6
REMARK    6  A    between atoms: S_6  and  C_7
REMARK    7  A    between atoms: C_7  and  C_8
REMARK    8  A    between atoms: C_18  and  N_19
REMARK                            x       y       z     vdW  Elec       q    Type
REMARK                         _______ _______ _______ _____ _____    ______ ____
ROOT
ATOM      1  C   UNL     1       9.410   1.597  23.517  0.00  0.00    -0.010 A 
ATOM      2  C   UNL     1       8.049   1.221  23.530  0.00  0.00    +0.029 A 
ATOM      3  C   UNL     1       7.028   2.168  23.437  0.00  0.00    +0.026 A 
ATOM      4  C   UNL     1       7.374   3.516  23.438  0.00  0.00    +0.038 A 
ATOM      5  C   UNL     1       8.723   3.893  23.442  0.00  0.00    +0.067 A 
ATOM      6  C   UNL     1       9.107   5.311  23.375  0.00  0.00    +0.260 A 
ATOM      7  O   UNL     1       8.276   6.211  23.320  0.00  0.00    -0.267 OA
ATOM      8  N   UNL     1      10.452   5.565  23.368  0.00  0.00    -0.295 N 
ATOM      9  H   UNL     1      10.720   6.531  23.278  0.00  0.00    +0.172 HD
ATOM     10  C   UNL     1      11.404   4.591  23.424  0.00  0.00    +0.194 A 
ATOM     11  N   UNL     1      12.695   5.000  23.412  0.00  0.00    -0.329 N 
ATOM     12  H   UNL     1      12.908   5.911  23.791  0.00  0.00    +0.145 HD
ATOM     13  H   UNL     1      13.340   4.272  23.702  0.00  0.00    +0.145 HD
ATOM     14  N   UNL     1      11.111   3.335  23.495  0.00  0.00    -0.216 NA
ATOM     15  C   UNL     1       9.755   2.954  23.485  0.00  0.00    +0.084 A 
ENDROOT
BRANCH   3  16
ATOM     16  N   UNL     1       5.693   1.773  23.559  0.00  0.00    -0.358 N 
ATOM     17  H   UNL     1       5.033   2.415  23.130  0.00  0.00    +0.142 HD
ATOM     18  H   UNL     1       5.423   1.531  24.509  0.00  0.00    +0.142 HD
ENDBRANCH   3  16
BRANCH   1  19
ATOM     19  C   UNL     1      10.460   0.518  23.450  0.00  0.00    +0.106 C 
BRANCH  19  20
ATOM     20  S   UNL     1       9.729  -1.012  22.763  0.00  0.00    -0.155 S 
BRANCH  20  21
ATOM     21  C   UNL     1       9.578  -2.004  24.286  0.00  0.00    +0.085 C 
BRANCH  21  22
ATOM     22  C   UNL     1       8.978  -3.387  24.000  0.00  0.00    +0.094 C 
BRANCH  22  24
ATOM     23  C   UNL     1       7.273  -4.051  22.457  0.00  0.00    +0.104 C 
ATOM     24  N   UNL     1       7.524  -3.403  23.751  0.00  0.00    -0.308 NA
ATOM     25  C   UNL     1       6.792  -4.103  24.805  0.00  0.00    +0.104 C 
ENDBRANCH  22  24
ENDBRANCH  21  22
ENDBRANCH  20  21
ENDBRANCH  19  20
ENDBRANCH   1  19
TORSDOF 6
ENDMDL
