MODEL 1
REMARK VINA RESULT:      -5.1      0.000      0.000
REMARK  Name = 
REMARK  19 active torsions:
REMARK  status: ('A' for Active; 'I' for Inactive)
REMARK    1  A    between atoms: C_2  and  C_3
REMARK    2  A    between atoms: C_2  and  O_4
REMARK    3  A    between atoms: C_2  and  C_5
REMARK    4  A    between atoms: C_5  and  O_6
REMARK    5  A    between atoms: N_7  and  C_8
REMARK    6  A    between atoms: C_11  and  C_12
REMARK    7  A    between atoms: C_12  and  O_13
REMARK    8  A    between atoms: N_14  and  CA_15
REMARK    9  A    between atoms: CA_15  and  CB_16
REMARK   10  A    between atoms: CA_15  and  C_18
REMARK   11  A    between atoms: CB_16  and  OG_17
REMARK   12  A    between atoms: C_18  and  O_19
REMARK   13  A    between atoms: C_22  and  C_23
REMARK   14  A    between atoms: C_23  and  O_24
REMARK   15  A    between atoms: N_25  and  CA_26
REMARK   16  A    between atoms: CA_26  and  CB_27
REMARK   17  A    between atoms: CA_26  and  C_29
REMARK   18  A    between atoms: CB_27  and  OG_28
REMARK   19  A    between atoms: C_29  and  O_30
REMARK                            x       y       z     vdW  Elec       q    Type
REMARK                         _______ _______ _______ _____ _____    ______ ____
ROOT
ATOM      1  C   UNK A   0       7.485   0.307  23.814  0.00  0.00    +0.095 A 
ATOM      2  C   UNK A   0       7.658  -1.097  23.657  0.00  0.00    +0.053 A 
ATOM      3  I   UNK A   0       9.391  -1.709  22.521  0.00  0.00    -0.041 I 
ATOM      4  C   UNK A   0       6.740  -2.030  24.216  0.00  0.00    +0.065 A 
ATOM      5  C   UNK A   0       5.690  -1.522  25.031  0.00  0.00    +0.040 A 
ATOM      6  I   UNK A   0       4.103  -2.875  25.675  0.00  0.00    -0.042 I 
ATOM      7  C   UNK A   0       5.572  -0.130  25.296  0.00  0.00    +0.065 A 
ATOM      8  C   UNK A   0       6.369   0.756  24.549  0.00  0.00    +0.053 A 
ATOM      9  I   UNK A   0       5.648   2.791  24.221  0.00  0.00    -0.041 I 
ENDROOT
BRANCH   7  10
ATOM     10  C   UNK A   0       4.726   0.426  26.392  0.00  0.00    +0.218 C 
ATOM     11  N   SER A   1       3.480   0.707  26.267  0.00  0.00    -0.242 NA
BRANCH  10  12
ATOM     12  O   UNK A   0       5.344   0.577  27.585  0.00  0.00    -0.492 OA
ATOM     13  H   UNK A   0       4.852   0.234  28.352  0.00  0.00    +0.294 HD
ENDBRANCH  10  12
BRANCH  11  14
ATOM     14  CA  SER A   1       2.719   1.235  27.422  0.00  0.00    +0.160 C 
BRANCH  14  15
ATOM     15  C   SER A   1       1.752   0.128  27.874  0.00  0.00    +0.185 C 
BRANCH  15  16
ATOM     16  O   SER A   1       1.172  -0.511  26.738  0.00  0.00    -0.393 OA
ATOM     17  H   SER A   1       0.218  -0.317  26.805  0.00  0.00    +0.209 HD
ENDBRANCH  15  16
ENDBRANCH  14  15
BRANCH  14  18
ATOM     18  CB  SER A   1       1.933   2.471  26.964  0.00  0.00    +0.185 C 
BRANCH  18  19
ATOM     19  OG  SER A   1       1.471   2.330  25.618  0.00  0.00    -0.393 OA
ATOM     20  H   SER A   1       0.545   2.630  25.593  0.00  0.00    +0.209 HD
ENDBRANCH  18  19
ENDBRANCH  14  18
ENDBRANCH  11  14
ENDBRANCH   7  10
BRANCH   4  21
ATOM     21  C   UNK A   0       6.888  -3.504  23.938  0.00  0.00    +0.218 C 
ATOM     22  N   SER A   1       6.332  -4.123  22.955  0.00  0.00    -0.242 NA
BRANCH  21  23
ATOM     23  O   UNK A   0       7.680  -4.174  24.795  0.00  0.00    -0.492 OA
ATOM     24  H   UNK A   0       8.051  -3.637  25.510  0.00  0.00    +0.294 HD
ENDBRANCH  21  23
BRANCH  22  25
ATOM     25  CA  SER A   1       6.585  -5.593  22.844  0.00  0.00    +0.160 C 
BRANCH  25  26
ATOM     26  CB  SER A   1       5.322  -6.326  23.315  0.00  0.00    +0.185 C 
BRANCH  26  27
ATOM     27  OG  SER A   1       4.208  -5.973  22.495  0.00  0.00    -0.393 OA
ATOM     28  H   SER A   1       3.569  -5.550  23.103  0.00  0.00    +0.209 HD
ENDBRANCH  26  27
ENDBRANCH  25  26
BRANCH  25  29
ATOM     29  C   SER A   1       6.900  -5.947  21.378  0.00  0.00    +0.185 C 
BRANCH  29  30
ATOM     30  O   SER A   1       5.981  -5.289  20.506  0.00  0.00    -0.393 OA
ATOM     31  H   SER A   1       6.418  -5.296  19.635  0.00  0.00    +0.209 HD
ENDBRANCH  29  30
ENDBRANCH  25  29
ENDBRANCH  22  25
ENDBRANCH   4  21
BRANCH   1  33
ATOM     32  C   UNK A   0       9.417   1.654  23.833  0.00  0.00    +0.217 C 
ATOM     33  N   UNK A   0       8.385   1.207  23.192  0.00  0.00    -0.213 NA
BRANCH  32  34
ATOM     34  O   UNK A   0       9.712   1.327  25.118  0.00  0.00    -0.494 OA
ATOM     35  H   UNK A   0      10.146   2.110  25.525  0.00  0.00    +0.293 HD
ENDBRANCH  32  34
BRANCH  32  36
ATOM     36  C   UNK A   0      10.415   2.638  23.235  0.00  0.00    +0.196 C 
ATOM     37  C   UNK A   0      10.059   4.056  23.640  0.00  0.00    +0.048 C 
BRANCH  36  38
ATOM     38  O   UNK A   0      10.314   2.529  21.807  0.00  0.00    -0.383 OA
ATOM     39  H   UNK A   0      10.557   3.401  21.441  0.00  0.00    +0.210 HD
ENDBRANCH  36  38
ENDBRANCH  32  36
ENDBRANCH   1  33
TORSDOF 18
ENDMDL
MODEL 2
REMARK VINA RESULT:      -5.0      2.915      3.913
REMARK  Name = 
REMARK  19 active torsions:
REMARK  status: ('A' for Active; 'I' for Inactive)
REMARK    1  A    between atoms: C_2  and  C_3
REMARK    2  A    between atoms: C_2  and  O_4
REMARK    3  A    between atoms: C_2  and  C_5
REMARK    4  A    between atoms: C_5  and  O_6
REMARK    5  A    between atoms: N_7  and  C_8
REMARK    6  A    between atoms: C_11  and  C_12
REMARK    7  A    between atoms: C_12  and  O_13
REMARK    8  A    between atoms: N_14  and  CA_15
REMARK    9  A    between atoms: CA_15  and  CB_16
REMARK   10  A    between atoms: CA_15  and  C_18
REMARK   11  A    between atoms: CB_16  and  OG_17
REMARK   12  A    between atoms: C_18  and  O_19
REMARK   13  A    between atoms: C_22  and  C_23
REMARK   14  A    between atoms: C_23  and  O_24
REMARK   15  A    between atoms: N_25  and  CA_26
REMARK   16  A    between atoms: CA_26  and  CB_27
REMARK   17  A    between atoms: CA_26  and  C_29
REMARK   18  A    between atoms: CB_27  and  OG_28
REMARK   19  A    between atoms: C_29  and  O_30
REMARK                            x       y       z     vdW  Elec       q    Type
REMARK                         _______ _______ _______ _____ _____    ______ ____
ROOT
ATOM      1  C   UNK A   0       7.054  -1.432  24.501  0.00  0.00    +0.095 A 
ATOM      2  C   UNK A   0       6.878  -2.809  24.812  0.00  0.00    +0.053 A 
ATOM      3  I   UNK A   0       7.825  -4.206  23.463  0.00  0.00    -0.041 I 
ATOM      4  C   UNK A   0       6.121  -3.229  25.943  0.00  0.00    +0.065 A 
ATOM      5  C   UNK A   0       5.627  -2.225  26.820  0.00  0.00    +0.040 A 
ATOM      6  I   UNK A   0       4.233  -2.796  28.400  0.00  0.00    -0.042 I 
ATOM      7  C   UNK A   0       5.895  -0.848  26.589  0.00  0.00    +0.065 A 
ATOM      8  C   UNK A   0       6.456  -0.482  25.353  0.00  0.00    +0.053 A 
ATOM      9  I   UNK A   0       6.061   1.520  24.575  0.00  0.00    -0.041 I 
ENDROOT
BRANCH   7  10
ATOM     10  C   UNK A   0       5.708   0.208  27.627  0.00  0.00    +0.218 C 
ATOM     11  N   SER A   1       6.661   0.711  28.323  0.00  0.00    -0.242 NA
BRANCH  10  12
ATOM     12  O   UNK A   0       4.443   0.665  27.768  0.00  0.00    -0.492 OA
ATOM     13  H   UNK A   0       4.089   0.627  28.674  0.00  0.00    +0.294 HD
ENDBRANCH  10  12
BRANCH  11  14
ATOM     14  CA  SER A   1       6.375   1.772  29.314  0.00  0.00    +0.160 C 
BRANCH  14  15
ATOM     15  C   SER A   1       6.589   3.122  28.610  0.00  0.00    +0.185 C 
BRANCH  15  16
ATOM     16  O   SER A   1       7.638   3.014  27.649  0.00  0.00    -0.393 OA
ATOM     17  H   SER A   1       8.236   3.758  27.850  0.00  0.00    +0.209 HD
ENDBRANCH  15  16
ENDBRANCH  14  15
BRANCH  14  18
ATOM     18  CB  SER A   1       7.358   1.624  30.484  0.00  0.00    +0.185 C 
BRANCH  18  19
ATOM     19  OG  SER A   1       8.656   1.228  30.032  0.00  0.00    -0.393 OA
ATOM     20  H   SER A   1       9.074   0.721  30.752  0.00  0.00    +0.209 HD
ENDBRANCH  18  19
ENDBRANCH  14  18
ENDBRANCH  11  14
ENDBRANCH   7  10
BRANCH   4  21
ATOM     21  C   UNK A   0       5.859  -4.694  26.182  0.00  0.00    +0.218 C 
ATOM     22  N   SER A   1       4.820  -5.330  25.764  0.00  0.00    -0.242 NA
BRANCH  21  23
ATOM     23  O   UNK A   0       6.815  -5.344  26.871  0.00  0.00    -0.492 OA
ATOM     24  H   UNK A   0       7.204  -4.841  27.601  0.00  0.00    +0.294 HD
ENDBRANCH  21  23
BRANCH  22  25
ATOM     25  CA  SER A   1       4.724  -6.783  26.107  0.00  0.00    +0.160 C 
BRANCH  25  26
ATOM     26  CB  SER A   1       4.254  -6.893  27.563  0.00  0.00    +0.185 C 
BRANCH  26  27
ATOM     27  OG  SER A   1       5.245  -7.544  28.357  0.00  0.00    -0.393 OA
ATOM     28  H   SER A   1       4.827  -7.672  29.232  0.00  0.00    +0.209 HD
ENDBRANCH  26  27
ENDBRANCH  25  26
BRANCH  25  29
ATOM     29  C   SER A   1       3.720  -7.466  25.161  0.00  0.00    +0.185 C 
BRANCH  29  30
ATOM     30  O   SER A   1       4.231  -7.475  23.827  0.00  0.00    -0.393 OA
ATOM     31  H   SER A   1       4.069  -6.574  23.494  0.00  0.00    +0.209 HD
ENDBRANCH  29  30
ENDBRANCH  25  29
ENDBRANCH  22  25
ENDBRANCH   4  21
BRANCH   1  33
ATOM     32  C   UNK A   0       9.010  -0.717  23.400  0.00  0.00    +0.217 C 
ATOM     33  N   UNK A   0       7.762  -1.053  23.333  0.00  0.00    -0.213 NA
BRANCH  32  34
ATOM     34  O   UNK A   0       9.725  -0.683  24.555  0.00  0.00    -0.494 OA
ATOM     35  H   UNK A   0      10.247   0.151  24.548  0.00  0.00    +0.293 HD
ENDBRANCH  32  34
BRANCH  32  36
ATOM     36  C   UNK A   0       9.828  -0.281  22.192  0.00  0.00    +0.196 C 
ATOM     37  C   UNK A   0       9.520   1.164  21.845  0.00  0.00    +0.048 C 
BRANCH  36  38
ATOM     38  O   UNK A   0       9.432  -1.112  21.089  0.00  0.00    -0.383 OA
ATOM     39  H   UNK A   0       8.568  -1.500  21.327  0.00  0.00    +0.210 HD
ENDBRANCH  36  38
ENDBRANCH  32  36
ENDBRANCH   1  33
TORSDOF 18
ENDMDL
MODEL 3
REMARK VINA RESULT:      -5.0      1.547      6.029
REMARK  Name = 
REMARK  19 active torsions:
REMARK  status: ('A' for Active; 'I' for Inactive)
REMARK    1  A    between atoms: C_2  and  C_3
REMARK    2  A    between atoms: C_2  and  O_4
REMARK    3  A    between atoms: C_2  and  C_5
REMARK    4  A    between atoms: C_5  and  O_6
REMARK    5  A    between atoms: N_7  and  C_8
REMARK    6  A    between atoms: C_11  and  C_12
REMARK    7  A    between atoms: C_12  and  O_13
REMARK    8  A    between atoms: N_14  and  CA_15
REMARK    9  A    between atoms: CA_15  and  CB_16
REMARK   10  A    between atoms: CA_15  and  C_18
REMARK   11  A    between atoms: CB_16  and  OG_17
REMARK   12  A    between atoms: C_18  and  O_19
REMARK   13  A    between atoms: C_22  and  C_23
REMARK   14  A    between atoms: C_23  and  O_24
REMARK   15  A    between atoms: N_25  and  CA_26
REMARK   16  A    between atoms: CA_26  and  CB_27
REMARK   17  A    between atoms: CA_26  and  C_29
REMARK   18  A    between atoms: CB_27  and  OG_28
REMARK   19  A    between atoms: C_29  and  O_30
REMARK                            x       y       z     vdW  Elec       q    Type
REMARK                         _______ _______ _______ _____ _____    ______ ____
ROOT
ATOM      1  C   UNK A   0       6.707  -2.749  24.924  0.00  0.00    +0.095 A 
ATOM      2  C   UNK A   0       7.590  -1.709  24.523  0.00  0.00    +0.053 A 
ATOM      3  I   UNK A   0       8.945  -2.194  22.912  0.00  0.00    -0.041 I 
ATOM      4  C   UNK A   0       7.574  -0.431  25.152  0.00  0.00    +0.065 A 
ATOM      5  C   UNK A   0       6.574  -0.187  26.133  0.00  0.00    +0.040 A 
ATOM      6  I   UNK A   0       6.683   1.642  27.320  0.00  0.00    -0.042 I 
ATOM      7  C   UNK A   0       5.607  -1.177  26.461  0.00  0.00    +0.065 A 
ATOM      8  C   UNK A   0       5.802  -2.480  25.971  0.00  0.00    +0.053 A 
ATOM      9  I   UNK A   0       4.973  -4.158  27.097  0.00  0.00    -0.041 I 
ENDROOT
BRANCH   7  10
ATOM     10  C   UNK A   0       4.351  -0.878  27.209  0.00  0.00    +0.218 C 
ATOM     11  N   SER A   1       3.223  -0.626  26.651  0.00  0.00    -0.242 NA
BRANCH  10  12
ATOM     12  O   UNK A   0       4.449  -0.937  28.556  0.00  0.00    -0.492 OA
ATOM     13  H   UNK A   0       5.096  -0.326  28.951  0.00  0.00    +0.294 HD
ENDBRANCH  10  12
BRANCH  11  14
ATOM     14  CA  SER A   1       2.027  -0.363  27.482  0.00  0.00    +0.160 C 
BRANCH  14  15
ATOM     15  C   SER A   1       0.996  -1.456  27.155  0.00  0.00    +0.185 C 
BRANCH  15  16
ATOM     16  O   SER A   1       1.174  -1.913  25.815  0.00  0.00    -0.393 OA
ATOM     17  H   SER A   1       1.177  -2.886  25.883  0.00  0.00    +0.209 HD
ENDBRANCH  15  16
ENDBRANCH  14  15
BRANCH  14  18
ATOM     18  CB  SER A   1       1.470   1.019  27.112  0.00  0.00    +0.185 C 
BRANCH  18  19
ATOM     19  OG  SER A   1       0.748   0.979  25.878  0.00  0.00    -0.393 OA
ATOM     20  H   SER A   1      -0.099   0.529  26.049  0.00  0.00    +0.209 HD
ENDBRANCH  18  19
ENDBRANCH  14  18
ENDBRANCH  11  14
ENDBRANCH   7  10
BRANCH   4  21
ATOM     21  C   UNK A   0       8.597   0.613  24.782  0.00  0.00    +0.218 C 
ATOM     22  N   SER A   1       8.428   1.515  23.879  0.00  0.00    -0.242 NA
BRANCH  21  23
ATOM     23  O   UNK A   0       9.744   0.568  25.485  0.00  0.00    -0.492 OA
ATOM     24  H   UNK A   0      10.518   0.925  25.025  0.00  0.00    +0.294 HD
ENDBRANCH  21  23
BRANCH  22  25
ATOM     25  CA  SER A   1       9.561   2.462  23.640  0.00  0.00    +0.160 C 
BRANCH  25  26
ATOM     26  CB  SER A   1      10.174   2.129  22.275  0.00  0.00    +0.185 C 
BRANCH  26  27
ATOM     27  OG  SER A   1       9.147   1.889  21.314  0.00  0.00    -0.393 OA
ATOM     28  H   SER A   1       9.040   2.738  20.839  0.00  0.00    +0.209 HD
ENDBRANCH  26  27
ENDBRANCH  25  26
BRANCH  25  29
ATOM     29  C   SER A   1       9.029   3.908  23.657  0.00  0.00    +0.185 C 
BRANCH  29  30
ATOM     30  O   SER A   1       8.272   4.165  22.474  0.00  0.00    -0.393 OA
ATOM     31  H   SER A   1       8.743   3.685  21.769  0.00  0.00    +0.209 HD
ENDBRANCH  29  30
ENDBRANCH  25  29
ENDBRANCH  22  25
ENDBRANCH   4  21
BRANCH   1  33
ATOM     32  C   UNK A   0       5.982  -4.357  23.362  0.00  0.00    +0.217 C 
ATOM     33  N   UNK A   0       6.792  -4.027  24.316  0.00  0.00    -0.213 NA
BRANCH  32  34
ATOM     34  O   UNK A   0       5.002  -3.547  22.885  0.00  0.00    -0.494 OA
ATOM     35  H   UNK A   0       4.167  -4.066  22.892  0.00  0.00    +0.293 HD
ENDBRANCH  32  34
BRANCH  32  36
ATOM     36  C   UNK A   0       6.003  -5.717  22.677  0.00  0.00    +0.196 C 
ATOM     37  C   UNK A   0       6.967  -5.698  21.505  0.00  0.00    +0.048 C 
BRANCH  36  38
ATOM     38  O   UNK A   0       4.678  -5.961  22.177  0.00  0.00    -0.383 OA
ATOM     39  H   UNK A   0       4.275  -5.087  22.014  0.00  0.00    +0.210 HD
ENDBRANCH  36  38
ENDBRANCH  32  36
ENDBRANCH   1  33
TORSDOF 18
ENDMDL
MODEL 4
REMARK VINA RESULT:      -5.0      0.846      6.359
REMARK  Name = 
REMARK  19 active torsions:
REMARK  status: ('A' for Active; 'I' for Inactive)
REMARK    1  A    between atoms: C_2  and  C_3
REMARK    2  A    between atoms: C_2  and  O_4
REMARK    3  A    between atoms: C_2  and  C_5
REMARK    4  A    between atoms: C_5  and  O_6
REMARK    5  A    between atoms: N_7  and  C_8
REMARK    6  A    between atoms: C_11  and  C_12
REMARK    7  A    between atoms: C_12  and  O_13
REMARK    8  A    between atoms: N_14  and  CA_15
REMARK    9  A    between atoms: CA_15  and  CB_16
REMARK   10  A    between atoms: CA_15  and  C_18
REMARK   11  A    between atoms: CB_16  and  OG_17
REMARK   12  A    between atoms: C_18  and  O_19
REMARK   13  A    between atoms: C_22  and  C_23
REMARK   14  A    between atoms: C_23  and  O_24
REMARK   15  A    between atoms: N_25  and  CA_26
REMARK   16  A    between atoms: CA_26  and  CB_27
REMARK   17  A    between atoms: CA_26  and  C_29
REMARK   18  A    between atoms: CB_27  and  OG_28
REMARK   19  A    between atoms: C_29  and  O_30
REMARK                            x       y       z     vdW  Elec       q    Type
REMARK                         _______ _______ _______ _____ _____    ______ ____
ROOT
ATOM      1  C   UNK A   0       7.571   0.106  24.041  0.00  0.00    +0.095 A 
ATOM      2  C   UNK A   0       6.545   0.791  24.750  0.00  0.00    +0.053 A 
ATOM      3  I   UNK A   0       6.436   2.923  24.421  0.00  0.00    -0.041 I 
ATOM      4  C   UNK A   0       5.651   0.103  25.621  0.00  0.00    +0.065 A 
ATOM      5  C   UNK A   0       5.748  -1.314  25.686  0.00  0.00    +0.040 A 
ATOM      6  I   UNK A   0       4.601  -2.382  27.205  0.00  0.00    -0.042 I 
ATOM      7  C   UNK A   0       6.689  -2.026  24.892  0.00  0.00    +0.065 A 
ATOM      8  C   UNK A   0       7.681  -1.288  24.222  0.00  0.00    +0.053 A 
ATOM      9  I   UNK A   0       9.590  -2.253  23.787  0.00  0.00    -0.041 I 
ENDROOT
BRANCH   7  10
ATOM     10  C   UNK A   0       6.615  -3.497  24.656  0.00  0.00    +0.218 C 
ATOM     11  N   SER A   1       6.104  -4.033  23.609  0.00  0.00    -0.242 NA
BRANCH  10  12
ATOM     12  O   UNK A   0       7.180  -4.268  25.612  0.00  0.00    -0.492 OA
ATOM     13  H   UNK A   0       6.786  -5.153  25.716  0.00  0.00    +0.294 HD
ENDBRANCH  10  12
BRANCH  11  14
ATOM     14  CA  SER A   1       6.097  -5.506  23.457  0.00  0.00    +0.160 C 
BRANCH  14  15
ATOM     15  C   SER A   1       6.668  -5.822  22.065  0.00  0.00    +0.185 C 
BRANCH  15  16
ATOM     16  O   SER A   1       5.663  -6.420  21.246  0.00  0.00    -0.393 OA
ATOM     17  H   SER A   1       4.860  -6.418  21.800  0.00  0.00    +0.209 HD
ENDBRANCH  15  16
ENDBRANCH  14  15
BRANCH  14  18
ATOM     18  CB  SER A   1       4.648  -6.000  23.560  0.00  0.00    +0.185 C 
BRANCH  18  19
ATOM     19  OG  SER A   1       4.589  -7.398  23.853  0.00  0.00    -0.393 OA
ATOM     20  H   SER A   1       5.117  -7.861  23.177  0.00  0.00    +0.209 HD
ENDBRANCH  18  19
ENDBRANCH  14  18
ENDBRANCH  11  14
ENDBRANCH   7  10
BRANCH   4  21
ATOM     21  C   UNK A   0       4.648   0.871  26.443  0.00  0.00    +0.218 C 
ATOM     22  N   SER A   1       3.439   1.121  26.077  0.00  0.00    -0.242 NA
BRANCH  21  23
ATOM     23  O   UNK A   0       5.089   1.289  27.644  0.00  0.00    -0.492 OA
ATOM     24  H   UNK A   0       5.884   0.838  27.965  0.00  0.00    +0.294 HD
ENDBRANCH  21  23
BRANCH  22  25
ATOM     25  CA  SER A   1       2.589   1.908  27.023  0.00  0.00    +0.160 C 
BRANCH  25  26
ATOM     26  CB  SER A   1       1.909   3.028  26.225  0.00  0.00    +0.185 C 
BRANCH  26  27
ATOM     27  OG  SER A   1       1.407   2.523  24.989  0.00  0.00    -0.393 OA
ATOM     28  H   SER A   1       0.472   2.296  25.168  0.00  0.00    +0.209 HD
ENDBRANCH  26  27
ENDBRANCH  25  26
BRANCH  25  29
ATOM     29  C   SER A   1       1.535   0.979  27.656  0.00  0.00    +0.185 C 
BRANCH  29  30
ATOM     30  O   SER A   1       1.102   0.008  26.703  0.00  0.00    -0.393 OA
ATOM     31  H   SER A   1       0.279   0.375  26.332  0.00  0.00    +0.209 HD
ENDBRANCH  29  30
ENDBRANCH  25  29
ENDBRANCH  22  25
ENDBRANCH   4  21
BRANCH   1  33
ATOM     32  C   UNK A   0       9.538   1.369  23.749  0.00  0.00    +0.217 C 
ATOM     33  N   UNK A   0       8.479   0.832  23.231  0.00  0.00    -0.213 NA
BRANCH  32  34
ATOM     34  O   UNK A   0       9.854   1.302  25.068  0.00  0.00    -0.494 OA
ATOM     35  H   UNK A   0      10.117   0.373  25.256  0.00  0.00    +0.293 HD
ENDBRANCH  32  34
BRANCH  32  36
ATOM     36  C   UNK A   0      10.547   2.177  22.944  0.00  0.00    +0.196 C 
ATOM     37  C   UNK A   0      10.648   3.587  23.496  0.00  0.00    +0.048 C 
BRANCH  36  38
ATOM     38  O   UNK A   0      10.057   2.246  21.595  0.00  0.00    -0.383 OA
ATOM     39  H   UNK A   0       9.609   1.397  21.416  0.00  0.00    +0.210 HD
ENDBRANCH  36  38
ENDBRANCH  32  36
ENDBRANCH   1  33
TORSDOF 18
ENDMDL
MODEL 5
REMARK VINA RESULT:      -4.9      1.339      2.152
REMARK  Name = 
REMARK  19 active torsions:
REMARK  status: ('A' for Active; 'I' for Inactive)
REMARK    1  A    between atoms: C_2  and  C_3
REMARK    2  A    between atoms: C_2  and  O_4
REMARK    3  A    between atoms: C_2  and  C_5
REMARK    4  A    between atoms: C_5  and  O_6
REMARK    5  A    between atoms: N_7  and  C_8
REMARK    6  A    between atoms: C_11  and  C_12
REMARK    7  A    between atoms: C_12  and  O_13
REMARK    8  A    between atoms: N_14  and  CA_15
REMARK    9  A    between atoms: CA_15  and  CB_16
REMARK   10  A    between atoms: CA_15  and  C_18
REMARK   11  A    between atoms: CB_16  and  OG_17
REMARK   12  A    between atoms: C_18  and  O_19
REMARK   13  A    between atoms: C_22  and  C_23
REMARK   14  A    between atoms: C_23  and  O_24
REMARK   15  A    between atoms: N_25  and  CA_26
REMARK   16  A    between atoms: CA_26  and  CB_27
REMARK   17  A    between atoms: CA_26  and  C_29
REMARK   18  A    between atoms: CB_27  and  OG_28
REMARK   19  A    between atoms: C_29  and  O_30
REMARK                            x       y       z     vdW  Elec       q    Type
REMARK                         _______ _______ _______ _____ _____    ______ ____
ROOT
ATOM      1  C   UNK A   0       7.404   0.283  23.916  0.00  0.00    +0.095 A 
ATOM      2  C   UNK A   0       7.529  -1.125  23.755  0.00  0.00    +0.053 A 
ATOM      3  I   UNK A   0       9.186  -1.789  22.539  0.00  0.00    -0.041 I 
ATOM      4  C   UNK A   0       6.612  -2.030  24.362  0.00  0.00    +0.065 A 
ATOM      5  C   UNK A   0       5.618  -1.490  25.224  0.00  0.00    +0.040 A 
ATOM      6  I   UNK A   0       4.026  -2.796  25.948  0.00  0.00    -0.042 I 
ATOM      7  C   UNK A   0       5.553  -0.095  25.490  0.00  0.00    +0.065 A 
ATOM      8  C   UNK A   0       6.338   0.766  24.702  0.00  0.00    +0.053 A 
ATOM      9  I   UNK A   0       5.660   2.820  24.403  0.00  0.00    -0.041 I 
ENDROOT
BRANCH   7  10
ATOM     10  C   UNK A   0       4.777   0.487  26.624  0.00  0.00    +0.218 C 
ATOM     11  N   SER A   1       5.296   0.861  27.735  0.00  0.00    -0.242 NA
BRANCH  10  12
ATOM     12  O   UNK A   0       3.455   0.656  26.396  0.00  0.00    -0.492 OA
ATOM     13  H   UNK A   0       3.222   0.921  25.488  0.00  0.00    +0.294 HD
ENDBRANCH  10  12
BRANCH  11  14
ATOM     14  CA  SER A   1       4.443   1.448  28.793  0.00  0.00    +0.160 C 
BRANCH  14  15
ATOM     15  C   SER A   1       4.485   2.975  28.615  0.00  0.00    +0.185 C 
BRANCH  15  16
ATOM     16  O   SER A   1       5.744   3.486  29.051  0.00  0.00    -0.393 OA
ATOM     17  H   SER A   1       6.338   2.711  29.053  0.00  0.00    +0.209 HD
ENDBRANCH  15  16
ENDBRANCH  14  15
BRANCH  14  18
ATOM     18  CB  SER A   1       5.022   1.058  30.159  0.00  0.00    +0.185 C 
BRANCH  18  19
ATOM     19  OG  SER A   1       6.451   0.998  30.126  0.00  0.00    -0.393 OA
ATOM     20  H   SER A   1       6.746   0.587  30.959  0.00  0.00    +0.209 HD
ENDBRANCH  18  19
ENDBRANCH  14  18
ENDBRANCH  11  14
ENDBRANCH   7  10
BRANCH   4  21
ATOM     21  C   UNK A   0       6.705  -3.509  24.081  0.00  0.00    +0.218 C 
ATOM     22  N   SER A   1       6.131  -4.104  23.094  0.00  0.00    -0.242 NA
BRANCH  21  23
ATOM     23  O   UNK A   0       7.465  -4.210  24.942  0.00  0.00    -0.492 OA
ATOM     24  H   UNK A   0       7.695  -5.103  24.648  0.00  0.00    +0.294 HD
ENDBRANCH  21  23
BRANCH  22  25
ATOM     25  CA  SER A   1       6.327  -5.583  22.981  0.00  0.00    +0.160 C 
BRANCH  25  26
ATOM     26  CB  SER A   1       5.050  -6.267  23.484  0.00  0.00    +0.185 C 
BRANCH  26  27
ATOM     27  OG  SER A   1       4.046  -6.250  22.471  0.00  0.00    -0.393 OA
ATOM     28  H   SER A   1       4.468  -6.656  21.687  0.00  0.00    +0.209 HD
ENDBRANCH  26  27
ENDBRANCH  25  26
BRANCH  25  29
ATOM     29  C   SER A   1       6.595  -5.951  21.510  0.00  0.00    +0.185 C 
BRANCH  29  30
ATOM     30  O   SER A   1       5.929  -5.031  20.645  0.00  0.00    -0.393 OA
ATOM     31  H   SER A   1       5.648  -4.303  21.228  0.00  0.00    +0.209 HD
ENDBRANCH  29  30
ENDBRANCH  25  29
ENDBRANCH  22  25
ENDBRANCH   4  21
BRANCH   1  33
ATOM     32  C   UNK A   0       9.358   1.597  23.847  0.00  0.00    +0.217 C 
ATOM     33  N   UNK A   0       8.298   1.156  23.248  0.00  0.00    -0.213 NA
BRANCH  32  34
ATOM     34  O   UNK A   0       9.689   1.288  25.127  0.00  0.00    -0.494 OA
ATOM     35  H   UNK A   0       9.810   2.138  25.608  0.00  0.00    +0.293 HD
ENDBRANCH  32  34
BRANCH  32  36
ATOM     36  C   UNK A   0      10.352   2.552  23.199  0.00  0.00    +0.196 C 
ATOM     37  C   UNK A   0      10.043   3.982  23.600  0.00  0.00    +0.048 C 
BRANCH  36  38
ATOM     38  O   UNK A   0      10.192   2.429  21.776  0.00  0.00    -0.383 OA
ATOM     39  H   UNK A   0      10.403   1.504  21.549  0.00  0.00    +0.210 HD
ENDBRANCH  36  38
ENDBRANCH  32  36
ENDBRANCH   1  33
TORSDOF 18
ENDMDL
MODEL 6
REMARK VINA RESULT:      -4.9      1.499      7.429
REMARK  Name = 
REMARK  19 active torsions:
REMARK  status: ('A' for Active; 'I' for Inactive)
REMARK    1  A    between atoms: C_2  and  C_3
REMARK    2  A    between atoms: C_2  and  O_4
REMARK    3  A    between atoms: C_2  and  C_5
REMARK    4  A    between atoms: C_5  and  O_6
REMARK    5  A    between atoms: N_7  and  C_8
REMARK    6  A    between atoms: C_11  and  C_12
REMARK    7  A    between atoms: C_12  and  O_13
REMARK    8  A    between atoms: N_14  and  CA_15
REMARK    9  A    between atoms: CA_15  and  CB_16
REMARK   10  A    between atoms: CA_15  and  C_18
REMARK   11  A    between atoms: CB_16  and  OG_17
REMARK   12  A    between atoms: C_18  and  O_19
REMARK   13  A    between atoms: C_22  and  C_23
REMARK   14  A    between atoms: C_23  and  O_24
REMARK   15  A    between atoms: N_25  and  CA_26
REMARK   16  A    between atoms: CA_26  and  CB_27
REMARK   17  A    between atoms: CA_26  and  C_29
REMARK   18  A    between atoms: CB_27  and  OG_28
REMARK   19  A    between atoms: C_29  and  O_30
REMARK                            x       y       z     vdW  Elec       q    Type
REMARK                         _______ _______ _______ _____ _____    ______ ____
ROOT
ATOM      1  C   UNK A   0       5.767  -0.976  26.617  0.00  0.00    +0.095 A 
ATOM      2  C   UNK A   0       6.807  -0.053  26.318  0.00  0.00    +0.053 A 
ATOM      3  I   UNK A   0       6.921   1.683  27.600  0.00  0.00    -0.041 I 
ATOM      4  C   UNK A   0       7.711  -0.269  25.239  0.00  0.00    +0.065 A 
ATOM      5  C   UNK A   0       7.609  -1.494  24.523  0.00  0.00    +0.040 A 
ATOM      6  I   UNK A   0       8.775  -1.749  22.695  0.00  0.00    -0.042 I 
ATOM      7  C   UNK A   0       6.651  -2.480  24.885  0.00  0.00    +0.065 A 
ATOM      8  C   UNK A   0       5.653  -2.125  25.809  0.00  0.00    +0.053 A 
ATOM      9  I   UNK A   0       3.731  -3.160  25.724  0.00  0.00    -0.041 I 
ENDROOT
BRANCH   7  10
ATOM     10  C   UNK A   0       6.714  -3.894  24.412  0.00  0.00    +0.218 C 
ATOM     11  N   SER A   1       6.163  -4.319  23.335  0.00  0.00    -0.242 NA
BRANCH  10  12
ATOM     12  O   UNK A   0       7.452  -4.730  25.177  0.00  0.00    -0.492 OA
ATOM     13  H   UNK A   0       6.949  -5.240  25.837  0.00  0.00    +0.294 HD
ENDBRANCH  10  12
BRANCH  11  14
ATOM     14  CA  SER A   1       6.301  -5.739  22.940  0.00  0.00    +0.160 C 
BRANCH  14  15
ATOM     15  C   SER A   1       6.471  -5.771  21.412  0.00  0.00    +0.185 C 
BRANCH  15  16
ATOM     16  O   SER A   1       5.838  -4.636  20.823  0.00  0.00    -0.393 OA
ATOM     17  H   SER A   1       6.513  -4.257  20.228  0.00  0.00    +0.209 HD
ENDBRANCH  15  16
ENDBRANCH  14  15
BRANCH  14  18
ATOM     18  CB  SER A   1       5.023  -6.484  23.346  0.00  0.00    +0.185 C 
BRANCH  18  19
ATOM     19  OG  SER A   1       3.921  -6.133  22.505  0.00  0.00    -0.393 OA
ATOM     20  H   SER A   1       3.604  -6.952  22.081  0.00  0.00    +0.209 HD
ENDBRANCH  18  19
ENDBRANCH  14  18
ENDBRANCH  11  14
ENDBRANCH   7  10
BRANCH   4  21
ATOM     21  C   UNK A   0       8.731   0.781  24.878  0.00  0.00    +0.218 C 
ATOM     22  N   SER A   1       8.527   1.747  24.052  0.00  0.00    -0.242 NA
BRANCH  21  23
ATOM     23  O   UNK A   0       9.918   0.667  25.503  0.00  0.00    -0.492 OA
ATOM     24  H   UNK A   0      10.090   1.342  26.175  0.00  0.00    +0.294 HD
ENDBRANCH  21  23
BRANCH  22  25
ATOM     25  CA  SER A   1       9.663   2.689  23.809  0.00  0.00    +0.160 C 
BRANCH  25  26
ATOM     26  CB  SER A   1      10.321   2.301  22.479  0.00  0.00    +0.185 C 
BRANCH  26  27
ATOM     27  OG  SER A   1       9.325   2.044  21.489  0.00  0.00    -0.393 OA
ATOM     28  H   SER A   1       8.639   1.520  21.949  0.00  0.00    +0.209 HD
ENDBRANCH  26  27
ENDBRANCH  25  26
BRANCH  25  29
ATOM     29  C   SER A   1       9.126   4.131  23.747  0.00  0.00    +0.185 C 
BRANCH  29  30
ATOM     30  O   SER A   1       8.324   4.306  22.578  0.00  0.00    -0.393 OA
ATOM     31  H   SER A   1       7.558   4.827  22.879  0.00  0.00    +0.209 HD
ENDBRANCH  29  30
ENDBRANCH  25  29
ENDBRANCH  22  25
ENDBRANCH   4  21
BRANCH   1  33
ATOM     32  C   UNK A   0       3.810   0.044  27.442  0.00  0.00    +0.217 C 
ATOM     33  N   UNK A   0       4.849  -0.697  27.660  0.00  0.00    -0.213 NA
BRANCH  32  34
ATOM     34  O   UNK A   0       3.523   0.614  26.243  0.00  0.00    -0.494 OA
ATOM     35  H   UNK A   0       4.283   0.430  25.645  0.00  0.00    +0.293 HD
ENDBRANCH  32  34
BRANCH  32  36
ATOM     36  C   UNK A   0       2.793   0.400  28.518  0.00  0.00    +0.196 C 
ATOM     37  C   UNK A   0       2.850   1.886  28.822  0.00  0.00    +0.048 C 
BRANCH  36  38
ATOM     38  O   UNK A   0       3.157  -0.326  29.703  0.00  0.00    -0.383 OA
ATOM     39  H   UNK A   0       3.113  -1.274  29.475  0.00  0.00    +0.210 HD
ENDBRANCH  36  38
ENDBRANCH  32  36
ENDBRANCH   1  33
TORSDOF 18
ENDMDL
MODEL 7
REMARK VINA RESULT:      -4.9      1.643      5.828
REMARK  Name = 
REMARK  19 active torsions:
REMARK  status: ('A' for Active; 'I' for Inactive)
REMARK    1  A    between atoms: C_2  and  C_3
REMARK    2  A    between atoms: C_2  and  O_4
REMARK    3  A    between atoms: C_2  and  C_5
REMARK    4  A    between atoms: C_5  and  O_6
REMARK    5  A    between atoms: N_7  and  C_8
REMARK    6  A    between atoms: C_11  and  C_12
REMARK    7  A    between atoms: C_12  and  O_13
REMARK    8  A    between atoms: N_14  and  CA_15
REMARK    9  A    between atoms: CA_15  and  CB_16
REMARK   10  A    between atoms: CA_15  and  C_18
REMARK   11  A    between atoms: CB_16  and  OG_17
REMARK   12  A    between atoms: C_18  and  O_19
REMARK   13  A    between atoms: C_22  and  C_23
REMARK   14  A    between atoms: C_23  and  O_24
REMARK   15  A    between atoms: N_25  and  CA_26
REMARK   16  A    between atoms: CA_26  and  CB_27
REMARK   17  A    between atoms: CA_26  and  C_29
REMARK   18  A    between atoms: CB_27  and  OG_28
REMARK   19  A    between atoms: C_29  and  O_30
REMARK                            x       y       z     vdW  Elec       q    Type
REMARK                         _______ _______ _______ _____ _____    ______ ____
ROOT
ATOM      1  C   UNK A   0       5.485  -1.030  26.722  0.00  0.00    +0.095 A 
ATOM      2  C   UNK A   0       5.412  -2.278  26.044  0.00  0.00    +0.053 A 
ATOM      3  I   UNK A   0       3.571  -3.379  26.296  0.00  0.00    -0.041 I 
ATOM      4  C   UNK A   0       6.492  -2.763  25.252  0.00  0.00    +0.065 A 
ATOM      5  C   UNK A   0       7.617  -1.911  25.072  0.00  0.00    +0.040 A 
ATOM      6  I   UNK A   0       9.405  -2.712  24.109  0.00  0.00    -0.042 I 
ATOM      7  C   UNK A   0       7.655  -0.610  25.645  0.00  0.00    +0.065 A 
ATOM      8  C   UNK A   0       6.667  -0.273  26.586  0.00  0.00    +0.053 A 
ATOM      9  I   UNK A   0       7.138   1.217  28.112  0.00  0.00    -0.041 I 
ENDROOT
BRANCH   7  10
ATOM     10  C   UNK A   0       8.626   0.442  25.223  0.00  0.00    +0.218 C 
ATOM     11  N   SER A   1       8.374   1.344  24.346  0.00  0.00    -0.242 NA
BRANCH  10  12
ATOM     12  O   UNK A   0       9.812   0.432  25.872  0.00  0.00    -0.492 OA
ATOM     13  H   UNK A   0      10.381  -0.335  25.681  0.00  0.00    +0.294 HD
ENDBRANCH  10  12
BRANCH  11  14
ATOM     14  CA  SER A   1       9.397   2.360  24.012  0.00  0.00    +0.160 C 
BRANCH  14  15
ATOM     15  C   SER A   1       8.666   3.701  23.836  0.00  0.00    +0.185 C 
BRANCH  15  16
ATOM     16  O   SER A   1       9.528   4.652  23.212  0.00  0.00    -0.393 OA
ATOM     17  H   SER A   1       9.140   5.520  23.433  0.00  0.00    +0.209 HD
ENDBRANCH  15  16
ENDBRANCH  14  15
BRANCH  14  18
ATOM     18  CB  SER A   1      10.078   1.952  22.698  0.00  0.00    +0.185 C 
BRANCH  18  19
ATOM     19  OG  SER A   1       9.295   2.329  21.562  0.00  0.00    -0.393 OA
ATOM     20  H   SER A   1       8.712   1.578  21.346  0.00  0.00    +0.209 HD
ENDBRANCH  18  19
ENDBRANCH  14  18
ENDBRANCH  11  14
ENDBRANCH   7  10
BRANCH   4  21
ATOM     21  C   UNK A   0       6.429  -4.138  24.638  0.00  0.00    +0.218 C 
ATOM     22  N   SER A   1       6.034  -4.387  23.438  0.00  0.00    -0.242 NA
BRANCH  21  23
ATOM     23  O   UNK A   0       6.843  -5.141  25.434  0.00  0.00    -0.492 OA
ATOM     24  H   UNK A   0       6.426  -5.166  26.307  0.00  0.00    +0.294 HD
ENDBRANCH  21  23
BRANCH  22  25
ATOM     25  CA  SER A   1       6.029  -5.818  23.004  0.00  0.00    +0.160 C 
BRANCH  25  26
ATOM     26  CB  SER A   1       4.575  -6.306  23.003  0.00  0.00    +0.185 C 
BRANCH  26  27
ATOM     27  OG  SER A   1       4.432  -7.440  23.857  0.00  0.00    -0.393 OA
ATOM     28  H   SER A   1       5.280  -7.503  24.341  0.00  0.00    +0.209 HD
ENDBRANCH  26  27
ENDBRANCH  25  26
BRANCH  25  29
ATOM     29  C   SER A   1       6.637  -5.925  21.593  0.00  0.00    +0.185 C 
BRANCH  29  30
ATOM     30  O   SER A   1       5.865  -5.159  20.667  0.00  0.00    -0.393 OA
ATOM     31  H   SER A   1       5.907  -4.246  21.005  0.00  0.00    +0.209 HD
ENDBRANCH  29  30
ENDBRANCH  25  29
ENDBRANCH  22  25
ENDBRANCH   4  21
BRANCH   1  33
ATOM     32  C   UNK A   0       3.603   0.319  27.155  0.00  0.00    +0.217 C 
ATOM     33  N   UNK A   0       4.415  -0.608  27.550  0.00  0.00    -0.213 NA
BRANCH  32  34
ATOM     34  O   UNK A   0       3.706   0.960  25.962  0.00  0.00    -0.494 OA
ATOM     35  H   UNK A   0       4.509   1.526  26.005  0.00  0.00    +0.293 HD
ENDBRANCH  32  34
BRANCH  32  36
ATOM     36  C   UNK A   0       2.444   0.835  27.998  0.00  0.00    +0.196 C 
ATOM     37  C   UNK A   0       2.947   1.291  29.355  0.00  0.00    +0.048 C 
BRANCH  36  38
ATOM     38  O   UNK A   0       1.537  -0.263  28.189  0.00  0.00    -0.383 OA
ATOM     39  H   UNK A   0       1.312  -0.599  27.301  0.00  0.00    +0.210 HD
ENDBRANCH  36  38
ENDBRANCH  32  36
ENDBRANCH   1  33
TORSDOF 18
ENDMDL
MODEL 8
REMARK VINA RESULT:      -4.7      1.565      7.251
REMARK  Name = 
REMARK  19 active torsions:
REMARK  status: ('A' for Active; 'I' for Inactive)
REMARK    1  A    between atoms: C_2  and  C_3
REMARK    2  A    between atoms: C_2  and  O_4
REMARK    3  A    between atoms: C_2  and  C_5
REMARK    4  A    between atoms: C_5  and  O_6
REMARK    5  A    between atoms: N_7  and  C_8
REMARK    6  A    between atoms: C_11  and  C_12
REMARK    7  A    between atoms: C_12  and  O_13
REMARK    8  A    between atoms: N_14  and  CA_15
REMARK    9  A    between atoms: CA_15  and  CB_16
REMARK   10  A    between atoms: CA_15  and  C_18
REMARK   11  A    between atoms: CB_16  and  OG_17
REMARK   12  A    between atoms: C_18  and  O_19
REMARK   13  A    between atoms: C_22  and  C_23
REMARK   14  A    between atoms: C_23  and  O_24
REMARK   15  A    between atoms: N_25  and  CA_26
REMARK   16  A    between atoms: CA_26  and  CB_27
REMARK   17  A    between atoms: CA_26  and  C_29
REMARK   18  A    between atoms: CB_27  and  OG_28
REMARK   19  A    between atoms: C_29  and  O_30
REMARK                            x       y       z     vdW  Elec       q    Type
REMARK                         _______ _______ _______ _____ _____    ______ ____
ROOT
ATOM      1  C   UNK A   0       6.803  -2.839  24.775  0.00  0.00    +0.095 A 
ATOM      2  C   UNK A   0       5.766  -2.590  25.716  0.00  0.00    +0.053 A 
ATOM      3  I   UNK A   0       4.598  -4.308  26.307  0.00  0.00    -0.041 I 
ATOM      4  C   UNK A   0       5.521  -1.284  26.230  0.00  0.00    +0.065 A 
ATOM      5  C   UNK A   0       6.414  -0.243  25.851  0.00  0.00    +0.040 A 
ATOM      6  I   UNK A   0       5.921   1.816  26.379  0.00  0.00    -0.042 I 
ATOM      7  C   UNK A   0       7.527  -0.500  25.005  0.00  0.00    +0.065 A 
ATOM      8  C   UNK A   0       7.594  -1.748  24.360  0.00  0.00    +0.053 A 
ATOM      9  I   UNK A   0       8.658  -1.890  22.458  0.00  0.00    -0.041 I 
ENDROOT
BRANCH   7  10
ATOM     10  C   UNK A   0       8.672   0.444  24.849  0.00  0.00    +0.218 C 
ATOM     11  N   SER A   1       8.715   1.385  23.978  0.00  0.00    -0.242 NA
BRANCH  10  12
ATOM     12  O   UNK A   0       9.680   0.287  25.736  0.00  0.00    -0.492 OA
ATOM     13  H   UNK A   0       9.683  -0.563  26.212  0.00  0.00    +0.294 HD
ENDBRANCH  10  12
BRANCH  11  14
ATOM     14  CA  SER A   1       9.888   2.286  23.917  0.00  0.00    +0.160 C 
BRANCH  14  15
ATOM     15  C   SER A   1       9.371   3.721  24.109  0.00  0.00    +0.185 C 
BRANCH  15  16
ATOM     16  O   SER A   1      10.142   4.630  23.323  0.00  0.00    -0.393 OA
ATOM     17  H   SER A   1      10.621   5.176  23.975  0.00  0.00    +0.209 HD
ENDBRANCH  15  16
ENDBRANCH  14  15
BRANCH  14  18
ATOM     18  CB  SER A   1      10.544   2.139  22.537  0.00  0.00    +0.185 C 
BRANCH  18  19
ATOM     19  OG  SER A   1       9.579   2.233  21.485  0.00  0.00    -0.393 OA
ATOM     20  H   SER A   1       9.730   3.078  21.024  0.00  0.00    +0.209 HD
ENDBRANCH  18  19
ENDBRANCH  14  18
ENDBRANCH  11  14
ENDBRANCH   7  10
BRANCH   4  21
ATOM     21  C   UNK A   0       4.345  -1.031  27.139  0.00  0.00    +0.218 C 
ATOM     22  N   SER A   1       3.149  -0.778  26.735  0.00  0.00    -0.242 NA
BRANCH  21  23
ATOM     23  O   UNK A   0       4.611  -1.104  28.456  0.00  0.00    -0.492 OA
ATOM     24  H   UNK A   0       4.639  -0.251  28.913  0.00  0.00    +0.294 HD
ENDBRANCH  21  23
BRANCH  22  25
ATOM     25  CA  SER A   1       2.110  -0.543  27.785  0.00  0.00    +0.160 C 
BRANCH  25  26
ATOM     26  CB  SER A   1       1.884   0.970  27.894  0.00  0.00    +0.185 C 
BRANCH  26  27
ATOM     27  OG  SER A   1       2.837   1.551  28.784  0.00  0.00    -0.393 OA
ATOM     28  H   SER A   1       2.732   1.061  29.624  0.00  0.00    +0.209 HD
ENDBRANCH  26  27
ENDBRANCH  25  26
BRANCH  25  29
ATOM     29  C   SER A   1       0.806  -1.257  27.381  0.00  0.00    +0.185 C 
BRANCH  29  30
ATOM     30  O   SER A   1       0.562  -1.080  25.985  0.00  0.00    -0.393 OA
ATOM     31  H   SER A   1       1.035  -1.816  25.556  0.00  0.00    +0.209 HD
ENDBRANCH  29  30
ENDBRANCH  25  29
ENDBRANCH  22  25
ENDBRANCH   4  21
BRANCH   1  33
ATOM     32  C   UNK A   0       6.302  -4.522  23.205  0.00  0.00    +0.217 C 
ATOM     33  N   UNK A   0       6.978  -4.139  24.240  0.00  0.00    -0.213 NA
BRANCH  32  34
ATOM     34  O   UNK A   0       5.385  -3.746  22.570  0.00  0.00    -0.494 OA
ATOM     35  H   UNK A   0       4.728  -3.463  23.244  0.00  0.00    +0.293 HD
ENDBRANCH  32  34
BRANCH  32  36
ATOM     36  C   UNK A   0       6.424  -5.909  22.588  0.00  0.00    +0.196 C 
ATOM     37  C   UNK A   0       6.443  -5.809  21.074  0.00  0.00    +0.048 C 
BRANCH  36  38
ATOM     38  O   UNK A   0       5.261  -6.653  22.985  0.00  0.00    -0.383 OA
ATOM     39  H   UNK A   0       4.958  -7.142  22.196  0.00  0.00    +0.210 HD
ENDBRANCH  36  38
ENDBRANCH  32  36
ENDBRANCH   1  33
TORSDOF 18
ENDMDL
MODEL 9
REMARK VINA RESULT:      -4.6      1.434      6.500
REMARK  Name = 
REMARK  19 active torsions:
REMARK  status: ('A' for Active; 'I' for Inactive)
REMARK    1  A    between atoms: C_2  and  C_3
REMARK    2  A    between atoms: C_2  and  O_4
REMARK    3  A    between atoms: C_2  and  C_5
REMARK    4  A    between atoms: C_5  and  O_6
REMARK    5  A    between atoms: N_7  and  C_8
REMARK    6  A    between atoms: C_11  and  C_12
REMARK    7  A    between atoms: C_12  and  O_13
REMARK    8  A    between atoms: N_14  and  CA_15
REMARK    9  A    between atoms: CA_15  and  CB_16
REMARK   10  A    between atoms: CA_15  and  C_18
REMARK   11  A    between atoms: CB_16  and  OG_17
REMARK   12  A    between atoms: C_18  and  O_19
REMARK   13  A    between atoms: C_22  and  C_23
REMARK   14  A    between atoms: C_23  and  O_24
REMARK   15  A    between atoms: N_25  and  CA_26
REMARK   16  A    between atoms: CA_26  and  CB_27
REMARK   17  A    between atoms: CA_26  and  C_29
REMARK   18  A    between atoms: CB_27  and  OG_28
REMARK   19  A    between atoms: C_29  and  O_30
REMARK                            x       y       z     vdW  Elec       q    Type
REMARK                         _______ _______ _______ _____ _____    ______ ____
ROOT
ATOM      1  C   UNK A   0       7.557   0.042  24.160  0.00  0.00    +0.095 A 
ATOM      2  C   UNK A   0       6.552   0.625  24.981  0.00  0.00    +0.053 A 
ATOM      3  I   UNK A   0       6.380   2.775  24.872  0.00  0.00    -0.041 I 
ATOM      4  C   UNK A   0       5.719  -0.169  25.819  0.00  0.00    +0.065 A 
ATOM      5  C   UNK A   0       5.849  -1.583  25.738  0.00  0.00    +0.040 A 
ATOM      6  I   UNK A   0       4.803  -2.826  27.195  0.00  0.00    -0.042 I 
ATOM      7  C   UNK A   0       6.767  -2.187  24.834  0.00  0.00    +0.065 A 
ATOM      8  C   UNK A   0       7.707  -1.360  24.195  0.00  0.00    +0.053 A 
ATOM      9  I   UNK A   0       9.614  -2.225  23.577  0.00  0.00    -0.041 I 
ENDROOT
BRANCH   7  10
ATOM     10  C   UNK A   0       6.714  -3.629  24.456  0.00  0.00    +0.218 C 
ATOM     11  N   SER A   1       6.136  -4.076  23.402  0.00  0.00    -0.242 NA
BRANCH  10  12
ATOM     12  O   UNK A   0       7.374  -4.471  25.283  0.00  0.00    -0.492 OA
ATOM     13  H   UNK A   0       7.681  -5.299  24.871  0.00  0.00    +0.294 HD
ENDBRANCH  10  12
BRANCH  11  14
ATOM     14  CA  SER A   1       6.157  -5.526  23.102  0.00  0.00    +0.160 C 
BRANCH  14  15
ATOM     15  C   SER A   1       6.774  -5.692  21.703  0.00  0.00    +0.185 C 
BRANCH  15  16
ATOM     16  O   SER A   1       5.933  -5.087  20.721  0.00  0.00    -0.393 OA
ATOM     17  H   SER A   1       5.962  -5.698  19.960  0.00  0.00    +0.209 HD
ENDBRANCH  15  16
ENDBRANCH  14  15
BRANCH  14  18
ATOM     18  CB  SER A   1       4.713  -6.046  23.109  0.00  0.00    +0.185 C 
BRANCH  18  19
ATOM     19  OG  SER A   1       3.788  -5.034  22.704  0.00  0.00    -0.393 OA
ATOM     20  H   SER A   1       3.585  -4.492  23.488  0.00  0.00    +0.209 HD
ENDBRANCH  18  19
ENDBRANCH  14  18
ENDBRANCH  11  14
ENDBRANCH   7  10
BRANCH   4  21
ATOM     21  C   UNK A   0       4.740   0.486  26.761  0.00  0.00    +0.218 C 
ATOM     22  N   SER A   1       5.030   0.904  27.944  0.00  0.00    -0.242 NA
BRANCH  21  23
ATOM     23  O   UNK A   0       3.493   0.638  26.278  0.00  0.00    -0.492 OA
ATOM     24  H   UNK A   0       3.151   1.544  26.312  0.00  0.00    +0.294 HD
ENDBRANCH  21  23
BRANCH  22  25
ATOM     25  CA  SER A   1       3.924   1.521  28.739  0.00  0.00    +0.160 C 
BRANCH  25  26
ATOM     26  CB  SER A   1       3.455   0.489  29.773  0.00  0.00    +0.185 C 
BRANCH  26  27
ATOM     27  OG  SER A   1       2.567  -0.451  29.170  0.00  0.00    -0.393 OA
ATOM     28  H   SER A   1       2.627  -0.276  28.209  0.00  0.00    +0.209 HD
ENDBRANCH  26  27
ENDBRANCH  25  26
BRANCH  25  29
ATOM     29  C   SER A   1       4.444   2.790  29.439  0.00  0.00    +0.185 C 
BRANCH  29  30
ATOM     30  O   SER A   1       3.925   3.953  28.794  0.00  0.00    -0.393 OA
ATOM     31  H   SER A   1       3.361   4.378  29.466  0.00  0.00    +0.209 HD
ENDBRANCH  29  30
ENDBRANCH  25  29
ENDBRANCH  22  25
ENDBRANCH   4  21
BRANCH   1  33
ATOM     32  C   UNK A   0       9.484   1.372  23.901  0.00  0.00    +0.217 C 
ATOM     33  N   UNK A   0       8.409   0.868  23.385  0.00  0.00    -0.213 NA
BRANCH  32  34
ATOM     34  O   UNK A   0       9.873   1.175  25.187  0.00  0.00    -0.494 OA
ATOM     35  H   UNK A   0       9.822   0.208  25.360  0.00  0.00    +0.293 HD
ENDBRANCH  32  34
BRANCH  32  36
ATOM     36  C   UNK A   0      10.435   2.282  23.134  0.00  0.00    +0.196 C 
ATOM     37  C   UNK A   0      10.227   3.726  23.553  0.00  0.00    +0.048 C 
BRANCH  36  38
ATOM     38  O   UNK A   0      10.111   2.157  21.741  0.00  0.00    -0.383 OA
ATOM     39  H   UNK A   0      10.709   2.759  21.258  0.00  0.00    +0.210 HD
ENDBRANCH  36  38
ENDBRANCH  32  36
ENDBRANCH   1  33
TORSDOF 18
ENDMDL
