MODEL 1
REMARK VINA RESULT:      -5.8      0.000      0.000
REMARK  Name = 
REMARK  5 active torsions:
REMARK  status: ('A' for Active; 'I' for Inactive)
REMARK    1  A    between atoms: O_1  and  C_2
REMARK    2  A    between atoms: C_4  and  O_5
REMARK    3  A    between atoms: C_7  and  O_8
REMARK    4  A    between atoms: C_10  and  O_11
REMARK    5  A    between atoms: C_12  and  O_13
REMARK                            x       y       z     vdW  Elec       q    Type
REMARK                         _______ _______ _______ _____ _____    ______ ____
ROOT
ATOM      1  C   UNL     1       8.952  -4.014  24.508  0.00  0.00    +0.121 A 
ATOM      2  C   UNL     1       7.903  -4.251  23.627  0.00  0.00    +0.058 A 
ATOM      3  C   UNL     1       6.779  -5.005  24.020  0.00  0.00    +0.038 A 
ATOM      4  C   UNL     1       6.719  -5.528  25.335  0.00  0.00    +0.069 A 
ATOM      5  C   UNL     1       5.568  -6.283  25.695  0.00  0.00    +0.132 A 
ATOM      6  C   UNL     1       4.516  -6.521  24.812  0.00  0.00    +0.095 A 
ATOM      7  C   UNL     1       4.597  -6.001  23.534  0.00  0.00    +0.162 A 
ATOM      8  C   UNL     1       7.812  -5.264  26.203  0.00  0.00    +0.132 A 
ATOM      9  C   UNL     1       5.708  -5.254  23.141  0.00  0.00    +0.167 A 
ATOM     10  C   UNL     1       8.920  -4.515  25.800  0.00  0.00    +0.091 A 
ENDROOT
BRANCH   1  11
ATOM     11  O   UNL     1      10.006  -3.277  24.056  0.00  0.00    -0.507 OA
ATOM     12  H   UNL     1      10.090  -3.389  23.096  0.00  0.00    +0.292 HD
ENDBRANCH   1  11
BRANCH   7  13
ATOM     13  O   UNL     1       3.602  -6.193  22.613  0.00  0.00    -0.503 OA
ATOM     14  H   UNL     1       3.109  -6.993  22.868  0.00  0.00    +0.292 HD
ENDBRANCH   7  13
BRANCH   5  15
ATOM     15  O   UNL     1       5.422  -6.829  26.948  0.00  0.00    -0.506 OA
ATOM     16  H   UNL     1       6.182  -6.507  27.476  0.00  0.00    +0.292 HD
ENDBRANCH   5  15
BRANCH   8  17
ATOM     17  O   UNL     1       7.772  -5.765  27.485  0.00  0.00    -0.506 OA
ATOM     18  H   UNL     1       8.484  -5.349  28.003  0.00  0.00    +0.292 HD
ENDBRANCH   8  17
BRANCH   9  19
ATOM     19  O   UNL     1       5.732  -4.763  21.858  0.00  0.00    -0.503 OA
ATOM     20  H   UNL     1       4.929  -4.208  21.794  0.00  0.00    +0.292 HD
ENDBRANCH   9  19
TORSDOF 5
ENDMDL
MODEL 2
REMARK VINA RESULT:      -5.7      0.661      4.040
REMARK  Name = 
REMARK  5 active torsions:
REMARK  status: ('A' for Active; 'I' for Inactive)
REMARK    1  A    between atoms: O_1  and  C_2
REMARK    2  A    between atoms: C_4  and  O_5
REMARK    3  A    between atoms: C_7  and  O_8
REMARK    4  A    between atoms: C_10  and  O_11
REMARK    5  A    between atoms: C_12  and  O_13
REMARK                            x       y       z     vdW  Elec       q    Type
REMARK                         _______ _______ _______ _____ _____    ______ ____
ROOT
ATOM      1  C   UNL     1       4.538  -5.977  23.566  0.00  0.00    +0.121 A 
ATOM      2  C   UNL     1       5.655  -5.238  23.191  0.00  0.00    +0.058 A 
ATOM      3  C   UNL     1       6.721  -5.026  24.088  0.00  0.00    +0.038 A 
ATOM      4  C   UNL     1       6.651  -5.574  25.392  0.00  0.00    +0.069 A 
ATOM      5  C   UNL     1       7.746  -5.338  26.269  0.00  0.00    +0.132 A 
ATOM      6  C   UNL     1       8.866  -4.598  25.894  0.00  0.00    +0.095 A 
ATOM      7  C   UNL     1       8.912  -4.072  24.616  0.00  0.00    +0.162 A 
ATOM      8  C   UNL     1       5.492  -6.320  25.735  0.00  0.00    +0.132 A 
ATOM      9  C   UNL     1       7.859  -4.281  23.725  0.00  0.00    +0.167 A 
ATOM     10  C   UNL     1       4.443  -6.524  24.836  0.00  0.00    +0.091 A 
ENDROOT
BRANCH   1  11
ATOM     11  O   UNL     1       3.548  -6.140  22.644  0.00  0.00    -0.507 OA
ATOM     12  H   UNL     1       2.685  -6.092  23.085  0.00  0.00    +0.292 HD
ENDBRANCH   1  11
BRANCH   7  13
ATOM     13  O   UNL     1       9.979  -3.335  24.177  0.00  0.00    -0.503 OA
ATOM     14  H   UNL     1      10.688  -3.954  23.927  0.00  0.00    +0.292 HD
ENDBRANCH   7  13
BRANCH   5  15
ATOM     15  O   UNL     1       7.767  -5.831  27.552  0.00  0.00    -0.506 OA
ATOM     16  H   UNL     1       8.439  -5.306  28.035  0.00  0.00    +0.292 HD
ENDBRANCH   5  15
BRANCH   8  17
ATOM     17  O   UNL     1       5.406  -6.861  26.999  0.00  0.00    -0.506 OA
ATOM     18  H   UNL     1       4.801  -7.623  26.969  0.00  0.00    +0.292 HD
ENDBRANCH   8  17
BRANCH   9  19
ATOM     19  O   UNL     1       7.962  -3.733  22.469  0.00  0.00    -0.503 OA
ATOM     20  H   UNL     1       7.544  -4.393  21.880  0.00  0.00    +0.292 HD
ENDBRANCH   9  19
TORSDOF 5
ENDMDL
MODEL 3
REMARK VINA RESULT:      -5.5      4.067      6.333
REMARK  Name = 
REMARK  5 active torsions:
REMARK  status: ('A' for Active; 'I' for Inactive)
REMARK    1  A    between atoms: O_1  and  C_2
REMARK    2  A    between atoms: C_4  and  O_5
REMARK    3  A    between atoms: C_7  and  O_8
REMARK    4  A    between atoms: C_10  and  O_11
REMARK    5  A    between atoms: C_12  and  O_13
REMARK                            x       y       z     vdW  Elec       q    Type
REMARK                         _______ _______ _______ _____ _____    ______ ____
ROOT
ATOM      1  C   UNL     1       9.196  -3.250  24.602  0.00  0.00    +0.121 A 
ATOM      2  C   UNL     1       9.482  -2.442  23.508  0.00  0.00    +0.058 A 
ATOM      3  C   UNL     1       9.348  -1.041  23.584  0.00  0.00    +0.038 A 
ATOM      4  C   UNL     1       8.914  -0.449  24.796  0.00  0.00    +0.069 A 
ATOM      5  C   UNL     1       8.791   0.968  24.834  0.00  0.00    +0.132 A 
ATOM      6  C   UNL     1       9.077   1.779  23.737  0.00  0.00    +0.095 A 
ATOM      7  C   UNL     1       9.499   1.179  22.565  0.00  0.00    +0.162 A 
ATOM      8  C   UNL     1       8.632  -1.311  25.889  0.00  0.00    +0.132 A 
ATOM      9  C   UNL     1       9.633  -0.207  22.486  0.00  0.00    +0.167 A 
ATOM     10  C   UNL     1       8.769  -2.697  25.800  0.00  0.00    +0.091 A 
ENDROOT
BRANCH   1  11
ATOM     11  O   UNL     1       9.349  -4.596  24.454  0.00  0.00    -0.507 OA
ATOM     12  H   UNL     1       9.610  -4.987  25.302  0.00  0.00    +0.292 HD
ENDBRANCH   1  11
BRANCH   7  13
ATOM     13  O   UNL     1       9.798   1.911  21.447  0.00  0.00    -0.503 OA
ATOM     14  H   UNL     1       9.287   2.739  21.485  0.00  0.00    +0.292 HD
ENDBRANCH   7  13
BRANCH   5  15
ATOM     15  O   UNL     1       8.378   1.630  25.965  0.00  0.00    -0.506 OA
ATOM     16  H   UNL     1       9.072   1.474  26.640  0.00  0.00    +0.292 HD
ENDBRANCH   5  15
BRANCH   8  17
ATOM     17  O   UNL     1       8.208  -0.754  27.075  0.00  0.00    -0.506 OA
ATOM     18  H   UNL     1       8.936  -0.224  27.446  0.00  0.00    +0.292 HD
ENDBRANCH   8  17
BRANCH   9  19
ATOM     19  O   UNL     1      10.055  -0.746  21.294  0.00  0.00    -0.503 OA
ATOM     20  H   UNL     1      11.025  -0.827  21.392  0.00  0.00    +0.292 HD
ENDBRANCH   9  19
TORSDOF 5
ENDMDL
MODEL 4
REMARK VINA RESULT:      -5.5      1.546      3.882
REMARK  Name = 
REMARK  5 active torsions:
REMARK  status: ('A' for Active; 'I' for Inactive)
REMARK    1  A    between atoms: O_1  and  C_2
REMARK    2  A    between atoms: C_4  and  O_5
REMARK    3  A    between atoms: C_7  and  O_8
REMARK    4  A    between atoms: C_10  and  O_11
REMARK    5  A    between atoms: C_12  and  O_13
REMARK                            x       y       z     vdW  Elec       q    Type
REMARK                         _______ _______ _______ _____ _____    ______ ____
ROOT
ATOM      1  C   UNL     1       9.407  -2.517  23.294  0.00  0.00    +0.121 A 
ATOM      2  C   UNL     1       9.491  -3.217  24.492  0.00  0.00    +0.058 A 
ATOM      3  C   UNL     1       8.402  -3.974  24.969  0.00  0.00    +0.038 A 
ATOM      4  C   UNL     1       7.204  -4.022  24.215  0.00  0.00    +0.069 A 
ATOM      5  C   UNL     1       6.128  -4.797  24.729  0.00  0.00    +0.132 A 
ATOM      6  C   UNL     1       6.211  -5.499  25.930  0.00  0.00    +0.095 A 
ATOM      7  C   UNL     1       7.390  -5.438  26.650  0.00  0.00    +0.162 A 
ATOM      8  C   UNL     1       7.161  -3.291  22.997  0.00  0.00    +0.132 A 
ATOM      9  C   UNL     1       8.469  -4.689  26.180  0.00  0.00    +0.167 A 
ATOM     10  C   UNL     1       8.247  -2.545  22.536  0.00  0.00    +0.091 A 
ENDROOT
BRANCH   1  11
ATOM     11  O   UNL     1      10.500  -1.806  22.897  0.00  0.00    -0.507 OA
ATOM     12  H   UNL     1      10.216  -0.961  22.516  0.00  0.00    +0.292 HD
ENDBRANCH   1  11
BRANCH   7  13
ATOM     13  O   UNL     1       7.545  -6.101  27.838  0.00  0.00    -0.503 OA
ATOM     14  H   UNL     1       6.850  -6.780  27.894  0.00  0.00    +0.292 HD
ENDBRANCH   7  13
BRANCH   5  15
ATOM     15  O   UNL     1       4.929  -4.902  24.065  0.00  0.00    -0.506 OA
ATOM     16  H   UNL     1       4.284  -5.241  24.721  0.00  0.00    +0.292 HD
ENDBRANCH   5  15
BRANCH   8  17
ATOM     17  O   UNL     1       6.004  -3.324  22.250  0.00  0.00    -0.506 OA
ATOM     18  H   UNL     1       5.244  -3.226  22.850  0.00  0.00    +0.292 HD
ENDBRANCH   8  17
BRANCH   9  19
ATOM     19  O   UNL     1       9.614  -4.666  26.940  0.00  0.00    -0.503 OA
ATOM     20  H   UNL     1       9.526  -3.864  27.492  0.00  0.00    +0.292 HD
ENDBRANCH   9  19
TORSDOF 5
ENDMDL
MODEL 5
REMARK VINA RESULT:      -5.4      0.819      3.423
REMARK  Name = 
REMARK  5 active torsions:
REMARK  status: ('A' for Active; 'I' for Inactive)
REMARK    1  A    between atoms: O_1  and  C_2
REMARK    2  A    between atoms: C_4  and  O_5
REMARK    3  A    between atoms: C_7  and  O_8
REMARK    4  A    between atoms: C_10  and  O_11
REMARK    5  A    between atoms: C_12  and  O_13
REMARK                            x       y       z     vdW  Elec       q    Type
REMARK                         _______ _______ _______ _____ _____    ______ ____
ROOT
ATOM      1  C   UNL     1       8.374  -3.495  23.670  0.00  0.00    +0.121 A 
ATOM      2  C   UNL     1       7.984  -4.211  24.796  0.00  0.00    +0.058 A 
ATOM      3  C   UNL     1       6.828  -5.017  24.781  0.00  0.00    +0.038 A 
ATOM      4  C   UNL     1       6.052  -5.098  23.598  0.00  0.00    +0.069 A 
ATOM      5  C   UNL     1       4.893  -5.922  23.621  0.00  0.00    +0.132 A 
ATOM      6  C   UNL     1       4.501  -6.640  24.750  0.00  0.00    +0.095 A 
ATOM      7  C   UNL     1       5.273  -6.546  25.893  0.00  0.00    +0.162 A 
ATOM      8  C   UNL     1       6.486  -4.350  22.471  0.00  0.00    +0.132 A 
ATOM      9  C   UNL     1       6.418  -5.749  25.912  0.00  0.00    +0.167 A 
ATOM     10  C   UNL     1       7.633  -3.555  22.500  0.00  0.00    +0.091 A 
ENDROOT
BRANCH   1  11
ATOM     11  O   UNL     1       9.503  -2.737  23.761  0.00  0.00    -0.507 OA
ATOM     12  H   UNL     1      10.234  -3.192  23.313  0.00  0.00    +0.292 HD
ENDBRANCH   1  11
BRANCH   7  13
ATOM     13  O   UNL     1       4.951  -7.222  27.039  0.00  0.00    -0.503 OA
ATOM     14  H   UNL     1       4.466  -6.610  27.621  0.00  0.00    +0.292 HD
ENDBRANCH   7  13
BRANCH   5  15
ATOM     15  O   UNL     1       4.081  -6.062  22.522  0.00  0.00    -0.506 OA
ATOM     16  H   UNL     1       3.772  -6.992  22.528  0.00  0.00    +0.292 HD
ENDBRANCH   5  15
BRANCH   8  17
ATOM     17  O   UNL     1       5.744  -4.415  21.312  0.00  0.00    -0.506 OA
ATOM     18  H   UNL     1       4.912  -3.927  21.449  0.00  0.00    +0.292 HD
ENDBRANCH   8  17
BRANCH   9  19
ATOM     19  O   UNL     1       7.144  -5.695  27.077  0.00  0.00    -0.503 OA
ATOM     20  H   UNL     1       6.891  -6.506  27.561  0.00  0.00    +0.292 HD
ENDBRANCH   9  19
TORSDOF 5
ENDMDL
MODEL 6
REMARK VINA RESULT:      -5.3      1.523      3.754
REMARK  Name = 
REMARK  5 active torsions:
REMARK  status: ('A' for Active; 'I' for Inactive)
REMARK    1  A    between atoms: O_1  and  C_2
REMARK    2  A    between atoms: C_4  and  O_5
REMARK    3  A    between atoms: C_7  and  O_8
REMARK    4  A    between atoms: C_10  and  O_11
REMARK    5  A    between atoms: C_12  and  O_13
REMARK                            x       y       z     vdW  Elec       q    Type
REMARK                         _______ _______ _______ _____ _____    ______ ____
ROOT
ATOM      1  C   UNL     1       5.097  -6.770  27.828  0.00  0.00    +0.121 A 
ATOM      2  C   UNL     1       4.660  -6.998  26.529  0.00  0.00    +0.058 A 
ATOM      3  C   UNL     1       5.275  -6.361  25.432  0.00  0.00    +0.038 A 
ATOM      4  C   UNL     1       6.355  -5.473  25.660  0.00  0.00    +0.069 A 
ATOM      5  C   UNL     1       6.950  -4.849  24.529  0.00  0.00    +0.132 A 
ATOM      6  C   UNL     1       6.512  -5.078  23.226  0.00  0.00    +0.095 A 
ATOM      7  C   UNL     1       5.457  -5.948  23.027  0.00  0.00    +0.162 A 
ATOM      8  C   UNL     1       6.769  -5.267  27.004  0.00  0.00    +0.132 A 
ATOM      9  C   UNL     1       4.846  -6.581  24.110  0.00  0.00    +0.167 A 
ATOM     10  C   UNL     1       6.151  -5.905  28.081  0.00  0.00    +0.091 A 
ENDROOT
BRANCH   1  11
ATOM     11  O   UNL     1       4.453  -7.422  28.838  0.00  0.00    -0.507 OA
ATOM     12  H   UNL     1       4.201  -6.785  29.525  0.00  0.00    +0.292 HD
ENDBRANCH   1  11
BRANCH   7  13
ATOM     13  O   UNL     1       4.973  -6.222  21.775  0.00  0.00    -0.503 OA
ATOM     14  H   UNL     1       4.812  -7.180  21.720  0.00  0.00    +0.292 HD
ENDBRANCH   7  13
BRANCH   5  15
ATOM     15  O   UNL     1       8.002  -3.975  24.653  0.00  0.00    -0.506 OA
ATOM     16  H   UNL     1       7.663  -3.211  25.166  0.00  0.00    +0.292 HD
ENDBRANCH   5  15
BRANCH   8  17
ATOM     17  O   UNL     1       7.817  -4.407  27.246  0.00  0.00    -0.506 OA
ATOM     18  H   UNL     1       7.454  -3.551  27.535  0.00  0.00    +0.292 HD
ENDBRANCH   8  17
BRANCH   9  19
ATOM     19  O   UNL     1       3.800  -7.434  23.850  0.00  0.00    -0.503 OA
ATOM     20  H   UNL     1       3.116  -7.190  24.505  0.00  0.00    +0.292 HD
ENDBRANCH   9  19
TORSDOF 5
ENDMDL
MODEL 7
REMARK VINA RESULT:      -5.3      1.422      4.151
REMARK  Name = 
REMARK  5 active torsions:
REMARK  status: ('A' for Active; 'I' for Inactive)
REMARK    1  A    between atoms: O_1  and  C_2
REMARK    2  A    between atoms: C_4  and  O_5
REMARK    3  A    between atoms: C_7  and  O_8
REMARK    4  A    between atoms: C_10  and  O_11
REMARK    5  A    between atoms: C_12  and  O_13
REMARK                            x       y       z     vdW  Elec       q    Type
REMARK                         _______ _______ _______ _____ _____    ______ ____
ROOT
ATOM      1  C   UNL     1       7.271  -5.476  26.560  0.00  0.00    +0.121 A 
ATOM      2  C   UNL     1       8.100  -4.657  25.803  0.00  0.00    +0.058 A 
ATOM      3  C   UNL     1       7.667  -4.120  24.574  0.00  0.00    +0.038 A 
ATOM      4  C   UNL     1       6.365  -4.420  24.104  0.00  0.00    +0.069 A 
ATOM      5  C   UNL     1       5.964  -3.860  22.860  0.00  0.00    +0.132 A 
ATOM      6  C   UNL     1       6.796  -3.039  22.101  0.00  0.00    +0.095 A 
ATOM      7  C   UNL     1       8.062  -2.758  22.578  0.00  0.00    +0.162 A 
ATOM      8  C   UNL     1       5.551  -5.262  24.908  0.00  0.00    +0.132 A 
ATOM      9  C   UNL     1       8.494  -3.288  23.795  0.00  0.00    +0.167 A 
ATOM     10  C   UNL     1       5.992  -5.788  26.124  0.00  0.00    +0.091 A 
ENDROOT
BRANCH   1  11
ATOM     11  O   UNL     1       7.759  -5.958  27.738  0.00  0.00    -0.507 OA
ATOM     12  H   UNL     1       8.719  -5.822  27.769  0.00  0.00    +0.292 HD
ENDBRANCH   1  11
BRANCH   7  13
ATOM     13  O   UNL     1       8.934  -1.960  21.888  0.00  0.00    -0.503 OA
ATOM     14  H   UNL     1       8.557  -1.063  21.856  0.00  0.00    +0.292 HD
ENDBRANCH   7  13
BRANCH   5  15
ATOM     15  O   UNL     1       4.720  -4.096  22.326  0.00  0.00    -0.506 OA
ATOM     16  H   UNL     1       4.152  -4.379  23.073  0.00  0.00    +0.292 HD
ENDBRANCH   5  15
BRANCH   8  17
ATOM     17  O   UNL     1       4.281  -5.567  24.468  0.00  0.00    -0.506 OA
ATOM     18  H   UNL     1       4.014  -4.901  23.810  0.00  0.00    +0.292 HD
ENDBRANCH   8  17
BRANCH   9  19
ATOM     19  O   UNL     1       9.763  -2.975  24.217  0.00  0.00    -0.503 OA
ATOM     20  H   UNL     1      10.289  -3.778  24.029  0.00  0.00    +0.292 HD
ENDBRANCH   9  19
TORSDOF 5
ENDMDL
MODEL 8
REMARK VINA RESULT:      -5.3      5.512      7.626
REMARK  Name = 
REMARK  5 active torsions:
REMARK  status: ('A' for Active; 'I' for Inactive)
REMARK    1  A    between atoms: O_1  and  C_2
REMARK    2  A    between atoms: C_4  and  O_5
REMARK    3  A    between atoms: C_7  and  O_8
REMARK    4  A    between atoms: C_10  and  O_11
REMARK    5  A    between atoms: C_12  and  O_13
REMARK                            x       y       z     vdW  Elec       q    Type
REMARK                         _______ _______ _______ _____ _____    ______ ____
ROOT
ATOM      1  C   UNL     1      10.004  -1.355  23.487  0.00  0.00    +0.121 A 
ATOM      2  C   UNL     1      10.117  -0.101  22.898  0.00  0.00    +0.058 A 
ATOM      3  C   UNL     1       9.573   1.044  23.515  0.00  0.00    +0.038 A 
ATOM      4  C   UNL     1       8.901   0.912  24.755  0.00  0.00    +0.069 A 
ATOM      5  C   UNL     1       8.366   2.090  25.347  0.00  0.00    +0.132 A 
ATOM      6  C   UNL     1       8.479   3.347  24.757  0.00  0.00    +0.095 A 
ATOM      7  C   UNL     1       9.138   3.452  23.547  0.00  0.00    +0.162 A 
ATOM      8  C   UNL     1       8.808  -0.387  25.322  0.00  0.00    +0.132 A 
ATOM      9  C   UNL     1       9.678   2.321  22.933  0.00  0.00    +0.167 A 
ATOM     10  C   UNL     1       9.351  -1.513  24.700  0.00  0.00    +0.091 A 
ENDROOT
BRANCH   1  11
ATOM     11  O   UNL     1      10.555  -2.415  22.831  0.00  0.00    -0.507 OA
ATOM     12  H   UNL     1      11.436  -2.597  23.194  0.00  0.00    +0.292 HD
ENDBRANCH   1  11
BRANCH   7  13
ATOM     13  O   UNL     1       9.288   4.654  22.907  0.00  0.00    -0.503 OA
ATOM     14  H   UNL     1       8.628   4.696  22.193  0.00  0.00    +0.292 HD
ENDBRANCH   7  13
BRANCH   5  15
ATOM     15  O   UNL     1       7.700   2.059  26.549  0.00  0.00    -0.506 OA
ATOM     16  H   UNL     1       7.719   1.126  26.847  0.00  0.00    +0.292 HD
ENDBRANCH   5  15
BRANCH   8  17
ATOM     17  O   UNL     1       8.158  -0.536  26.527  0.00  0.00    -0.506 OA
ATOM     18  H   UNL     1       8.536  -1.305  26.990  0.00  0.00    +0.292 HD
ENDBRANCH   8  17
BRANCH   9  19
ATOM     19  O   UNL     1      10.321   2.488  21.730  0.00  0.00    -0.503 OA
ATOM     20  H   UNL     1      11.273   2.446  21.954  0.00  0.00    +0.292 HD
ENDBRANCH   9  19
TORSDOF 5
ENDMDL
MODEL 9
REMARK VINA RESULT:      -5.3      1.269      5.123
REMARK  Name = 
REMARK  5 active torsions:
REMARK  status: ('A' for Active; 'I' for Inactive)
REMARK    1  A    between atoms: O_1  and  C_2
REMARK    2  A    between atoms: C_4  and  O_5
REMARK    3  A    between atoms: C_7  and  O_8
REMARK    4  A    between atoms: C_10  and  O_11
REMARK    5  A    between atoms: C_12  and  O_13
REMARK                            x       y       z     vdW  Elec       q    Type
REMARK                         _______ _______ _______ _____ _____    ______ ____
ROOT
ATOM      1  C   UNL     1       4.064  -6.062  25.472  0.00  0.00    +0.121 A 
ATOM      2  C   UNL     1       5.241  -6.039  26.211  0.00  0.00    +0.058 A 
ATOM      3  C   UNL     1       6.425  -5.493  25.676  0.00  0.00    +0.038 A 
ATOM      4  C   UNL     1       6.413  -4.959  24.364  0.00  0.00    +0.069 A 
ATOM      5  C   UNL     1       7.628  -4.416  23.859  0.00  0.00    +0.132 A 
ATOM      6  C   UNL     1       8.808  -4.393  24.600  0.00  0.00    +0.095 A 
ATOM      7  C   UNL     1       8.796  -4.919  25.878  0.00  0.00    +0.162 A 
ATOM      8  C   UNL     1       5.190  -5.004  23.644  0.00  0.00    +0.132 A 
ATOM      9  C   UNL     1       7.626  -5.461  26.411  0.00  0.00    +0.167 A 
ATOM     10  C   UNL     1       4.024  -5.548  24.185  0.00  0.00    +0.091 A 
ENDROOT
BRANCH   1  11
ATOM     11  O   UNL     1       2.959  -6.607  26.056  0.00  0.00    -0.507 OA
ATOM     12  H   UNL     1       2.163  -6.270  25.617  0.00  0.00    +0.292 HD
ENDBRANCH   1  11
BRANCH   7  13
ATOM     13  O   UNL     1       9.917  -4.931  26.665  0.00  0.00    -0.503 OA
ATOM     14  H   UNL     1      10.310  -5.820  26.611  0.00  0.00    +0.292 HD
ENDBRANCH   7  13
BRANCH   5  15
ATOM     15  O   UNL     1       7.711  -3.876  22.599  0.00  0.00    -0.506 OA
ATOM     16  H   UNL     1       7.815  -4.632  21.984  0.00  0.00    +0.292 HD
ENDBRANCH   5  15
BRANCH   8  17
ATOM     17  O   UNL     1       5.159  -4.490  22.366  0.00  0.00    -0.506 OA
ATOM     18  H   UNL     1       5.187  -5.231  21.734  0.00  0.00    +0.292 HD
ENDBRANCH   8  17
BRANCH   9  19
ATOM     19  O   UNL     1       7.676  -5.970  27.686  0.00  0.00    -0.503 OA
ATOM     20  H   UNL     1       7.661  -5.182  28.265  0.00  0.00    +0.292 HD
ENDBRANCH   9  19
TORSDOF 5
ENDMDL
