MODEL 1
REMARK VINA RESULT:      -6.5      0.000      0.000
REMARK  Name = 
REMARK  19 active torsions:
REMARK  status: ('A' for Active; 'I' for Inactive)
REMARK    1  A    between atoms: C_1  and  C_2
REMARK    2  A    between atoms: C_2  and  N_3
REMARK    3  A    between atoms: N_3  and  C_4
REMARK    4  A    between atoms: N_3  and  C_6
REMARK    5  A    between atoms: N_3  and  C_29
REMARK    6  A    between atoms: C_4  and  C_5
REMARK    7  A    between atoms: C_6  and  C_7
REMARK    8  A    between atoms: C_7  and  N_8
REMARK    9  A    between atoms: C_9  and  C_11
REMARK   10  A    between atoms: N_13  and  C_14
REMARK   11  A    between atoms: C_14  and  C_15
REMARK   12  A    between atoms: C_15  and  N_16
REMARK   13  A    between atoms: N_16  and  C_17
REMARK   14  A    between atoms: N_16  and  C_19
REMARK   15  A    between atoms: N_16  and  C_21
REMARK   16  A    between atoms: C_17  and  C_18
REMARK   17  A    between atoms: C_19  and  C_20
REMARK   18  A    between atoms: C_21  and  C_22
REMARK   19  A    between atoms: C_29  and  C_30
REMARK                            x       y       z     vdW  Elec       q    Type
REMARK                         _______ _______ _______ _____ _____    ______ ____
ROOT
ATOM      1  N   UNL     1       8.277  -3.621  25.845  0.00  0.00    -0.303 N 
ATOM      2  H   UNL     1       7.797  -2.721  25.787  0.00  0.00    +0.149 HD
ATOM      3  C   UNL     1       9.262  -3.854  24.916  0.00  0.00    +0.299 C 
ATOM      4  O   UNL     1       9.868  -4.899  24.754  0.00  0.00    -0.265 OA
ENDROOT
BRANCH   3   5
ATOM      5  C   UNL     1       9.628  -2.667  24.037  0.00  0.00    +0.299 C 
ATOM      6  N   UNL     1       8.800  -1.569  24.237  0.00  0.00    -0.303 N 
ATOM      7  H   UNL     1       8.200  -1.643  25.067  0.00  0.00    +0.149 HD
ATOM      8  O   UNL     1      10.559  -2.736  23.258  0.00  0.00    -0.265 OA
BRANCH   6   9
ATOM      9  C   UNL     1       9.217  -0.295  23.724  0.00  0.00    +0.155 C 
BRANCH   9  10
ATOM     10  C   UNL     1       8.139   0.450  22.912  0.00  0.00    +0.152 C 
BRANCH  10  11
ATOM     11  N   UNL     1       7.916   1.905  23.407  0.00  0.00    +0.247 N 
BRANCH  11  12
ATOM     12  C   UNL     1       6.584   1.940  24.209  0.00  0.00    +0.130 C 
ATOM     13  C   UNL     1       5.900   0.598  24.399  0.00  0.00    +0.060 C 
ENDBRANCH  11  12
BRANCH  11  14
ATOM     14  C   UNL     1       7.887   2.877  22.200  0.00  0.00    +0.130 C 
ATOM     15  C   UNL     1       6.634   3.733  22.101  0.00  0.00    +0.060 C 
ENDBRANCH  11  14
BRANCH  11  16
ATOM     16  C   UNL     1       9.096   2.355  24.354  0.00  0.00    +0.171 C 
BRANCH  16  17
ATOM     17  C   UNL     1       9.909   3.589  24.010  0.00  0.00    +0.015 A 
ATOM     18  C   UNL     1       9.504   4.883  24.392  0.00  0.00    +0.049 A 
ATOM     19 CL   UNL     1       7.987   5.184  25.163  0.00  0.00    -0.083 Cl
ATOM     20  C   UNL     1      10.336   5.991  24.192  0.00  0.00    +0.020 A 
ATOM     21  C   UNL     1      11.589   5.834  23.606  0.00  0.00    +0.001 A 
ATOM     22  C   UNL     1      12.003   4.572  23.200  0.00  0.00    +0.001 A 
ATOM     23  C   UNL     1      11.177   3.462  23.401  0.00  0.00    +0.010 A 
ENDBRANCH  16  17
ENDBRANCH  11  16
ENDBRANCH  10  11
ENDBRANCH   9  10
ENDBRANCH   6   9
ENDBRANCH   3   5
BRANCH   1  24
ATOM     24  C   UNL     1       7.868  -4.631  26.802  0.00  0.00    +0.155 C 
BRANCH  24  25
ATOM     25  C   UNL     1       6.583  -5.371  26.362  0.00  0.00    +0.152 C 
BRANCH  25  26
ATOM     26  N   UNL     1       5.242  -4.653  26.710  0.00  0.00    +0.247 N 
BRANCH  26  28
ATOM     27  C   UNL     1       5.072  -6.894  27.978  0.00  0.00    +0.060 C 
ATOM     28  C   UNL     1       4.321  -5.713  27.379  0.00  0.00    +0.130 C 
ENDBRANCH  26  28
BRANCH  26  29
ATOM     29  C   UNL     1       5.486  -3.461  27.673  0.00  0.00    +0.130 C 
ATOM     30  C   UNL     1       5.023  -2.120  27.111  0.00  0.00    +0.060 C 
ENDBRANCH  26  29
BRANCH  26  31
ATOM     31  C   UNL     1       4.538  -4.099  25.382  0.00  0.00    +0.171 C 
BRANCH  31  32
ATOM     32  C   UNL     1       5.182  -4.466  24.058  0.00  0.00    +0.015 A 
ATOM     33  C   UNL     1       5.254  -5.763  23.530  0.00  0.00    +0.049 A 
ATOM     34 CL   UNL     1       4.268  -7.051  24.104  0.00  0.00    -0.083 Cl
ATOM     35  C   UNL     1       6.093  -6.058  22.447  0.00  0.00    +0.020 A 
ATOM     36  C   UNL     1       6.807  -5.048  21.812  0.00  0.00    +0.001 A 
ATOM     37  C   UNL     1       6.614  -3.735  22.211  0.00  0.00    +0.001 A 
ATOM     38  C   UNL     1       5.789  -3.452  23.303  0.00  0.00    +0.010 A 
ENDBRANCH  31  32
ENDBRANCH  26  31
ENDBRANCH  25  26
ENDBRANCH  24  25
ENDBRANCH   1  24
TORSDOF 15
ENDMDL
MODEL 2
REMARK VINA RESULT:      -6.4      2.051      8.573
REMARK  Name = 
REMARK  19 active torsions:
REMARK  status: ('A' for Active; 'I' for Inactive)
REMARK    1  A    between atoms: C_1  and  C_2
REMARK    2  A    between atoms: C_2  and  N_3
REMARK    3  A    between atoms: N_3  and  C_4
REMARK    4  A    between atoms: N_3  and  C_6
REMARK    5  A    between atoms: N_3  and  C_29
REMARK    6  A    between atoms: C_4  and  C_5
REMARK    7  A    between atoms: C_6  and  C_7
REMARK    8  A    between atoms: C_7  and  N_8
REMARK    9  A    between atoms: C_9  and  C_11
REMARK   10  A    between atoms: N_13  and  C_14
REMARK   11  A    between atoms: C_14  and  C_15
REMARK   12  A    between atoms: C_15  and  N_16
REMARK   13  A    between atoms: N_16  and  C_17
REMARK   14  A    between atoms: N_16  and  C_19
REMARK   15  A    between atoms: N_16  and  C_21
REMARK   16  A    between atoms: C_17  and  C_18
REMARK   17  A    between atoms: C_19  and  C_20
REMARK   18  A    between atoms: C_21  and  C_22
REMARK   19  A    between atoms: C_29  and  C_30
REMARK                            x       y       z     vdW  Elec       q    Type
REMARK                         _______ _______ _______ _____ _____    ______ ____
ROOT
ATOM      1  N   UNL     1       7.436   1.075  25.626  0.00  0.00    -0.303 N 
ATOM      2  H   UNL     1       7.823   1.027  26.572  0.00  0.00    +0.149 HD
ATOM      3  C   UNL     1       7.181  -0.124  25.006  0.00  0.00    +0.299 C 
ATOM      4  O   UNL     1       6.825  -0.278  23.851  0.00  0.00    -0.265 OA
ENDROOT
BRANCH   3   5
ATOM      5  C   UNL     1       7.340  -1.361  25.879  0.00  0.00    +0.299 C 
ATOM      6  N   UNL     1       6.168  -1.716  26.536  0.00  0.00    -0.303 N 
ATOM      7  H   UNL     1       5.333  -1.225  26.196  0.00  0.00    +0.149 HD
ATOM      8  O   UNL     1       8.410  -1.935  25.952  0.00  0.00    -0.265 OA
BRANCH   6   9
ATOM      9  C   UNL     1       6.082  -3.021  27.127  0.00  0.00    +0.155 C 
BRANCH   9  10
ATOM     10  C   UNL     1       4.890  -3.867  26.637  0.00  0.00    +0.152 C 
BRANCH  10  11
ATOM     11  N   UNL     1       5.143  -5.393  26.776  0.00  0.00    +0.247 N 
BRANCH  11  12
ATOM     12  C   UNL     1       3.876  -6.032  27.413  0.00  0.00    +0.130 C 
ATOM     13  C   UNL     1       2.551  -5.571  26.834  0.00  0.00    +0.060 C 
ENDBRANCH  11  12
BRANCH  11  14
ATOM     14  C   UNL     1       6.407  -5.644  27.635  0.00  0.00    +0.130 C 
ATOM     15  C   UNL     1       6.148  -6.330  28.968  0.00  0.00    +0.060 C 
ENDBRANCH  11  14
BRANCH  11  16
ATOM     16  C   UNL     1       5.390  -6.046  25.360  0.00  0.00    +0.171 C 
BRANCH  16  17
ATOM     17  C   UNL     1       5.888  -5.188  24.212  0.00  0.00    +0.015 A 
ATOM     18  C   UNL     1       5.008  -4.577  23.298  0.00  0.00    +0.049 A 
ATOM     19 CL   UNL     1       3.304  -4.860  23.328  0.00  0.00    -0.083 Cl
ATOM     20  C   UNL     1       5.476  -3.675  22.335  0.00  0.00    +0.020 A 
ATOM     21  C   UNL     1       6.831  -3.366  22.259  0.00  0.00    +0.001 A 
ATOM     22  C   UNL     1       7.723  -3.973  23.134  0.00  0.00    +0.001 A 
ATOM     23  C   UNL     1       7.259  -4.871  24.101  0.00  0.00    +0.010 A 
ENDBRANCH  16  17
ENDBRANCH  11  16
ENDBRANCH  10  11
ENDBRANCH   9  10
ENDBRANCH   6   9
ENDBRANCH   3   5
BRANCH   1  24
ATOM     24  C   UNL     1       7.259   2.343  24.949  0.00  0.00    +0.155 C 
BRANCH  24  25
ATOM     25  C   UNL     1       8.520   3.237  25.035  0.00  0.00    +0.152 C 
BRANCH  25  26
ATOM     26  N   UNL     1       9.036   3.803  23.677  0.00  0.00    +0.247 N 
BRANCH  26  28
ATOM     27  C   UNL     1       7.263   5.072  22.297  0.00  0.00    +0.060 C 
ATOM     28  C   UNL     1       7.852   3.720  22.672  0.00  0.00    +0.130 C 
ENDBRANCH  26  28
BRANCH  26  29
ATOM     29  C   UNL     1       9.511   5.272  23.835  0.00  0.00    +0.130 C 
ATOM     30  C   UNL     1      11.021   5.443  23.687  0.00  0.00    +0.060 C 
ENDBRANCH  26  29
BRANCH  26  31
ATOM     31  C   UNL     1      10.261   2.928  23.130  0.00  0.00    +0.171 C 
BRANCH  31  32
ATOM     32  C   UNL     1       9.971   1.481  22.780  0.00  0.00    +0.015 A 
ATOM     33  C   UNL     1      10.387   0.372  23.532  0.00  0.00    +0.049 A 
ATOM     34 CL   UNL     1      10.922   0.507  25.161  0.00  0.00    -0.083 Cl
ATOM     35  C   UNL     1      10.316  -0.926  23.007  0.00  0.00    +0.020 A 
ATOM     36  C   UNL     1       9.746  -1.152  21.759  0.00  0.00    +0.001 A 
ATOM     37  C   UNL     1       9.174  -0.089  21.078  0.00  0.00    +0.001 A 
ATOM     38  C   UNL     1       9.264   1.204  21.601  0.00  0.00    +0.010 A 
ENDBRANCH  31  32
ENDBRANCH  26  31
ENDBRANCH  25  26
ENDBRANCH  24  25
ENDBRANCH   1  24
TORSDOF 15
ENDMDL
MODEL 3
REMARK VINA RESULT:      -6.3      2.543      7.890
REMARK  Name = 
REMARK  19 active torsions:
REMARK  status: ('A' for Active; 'I' for Inactive)
REMARK    1  A    between atoms: C_1  and  C_2
REMARK    2  A    between atoms: C_2  and  N_3
REMARK    3  A    between atoms: N_3  and  C_4
REMARK    4  A    between atoms: N_3  and  C_6
REMARK    5  A    between atoms: N_3  and  C_29
REMARK    6  A    between atoms: C_4  and  C_5
REMARK    7  A    between atoms: C_6  and  C_7
REMARK    8  A    between atoms: C_7  and  N_8
REMARK    9  A    between atoms: C_9  and  C_11
REMARK   10  A    between atoms: N_13  and  C_14
REMARK   11  A    between atoms: C_14  and  C_15
REMARK   12  A    between atoms: C_15  and  N_16
REMARK   13  A    between atoms: N_16  and  C_17
REMARK   14  A    between atoms: N_16  and  C_19
REMARK   15  A    between atoms: N_16  and  C_21
REMARK   16  A    between atoms: C_17  and  C_18
REMARK   17  A    between atoms: C_19  and  C_20
REMARK   18  A    between atoms: C_21  and  C_22
REMARK   19  A    between atoms: C_29  and  C_30
REMARK                            x       y       z     vdW  Elec       q    Type
REMARK                         _______ _______ _______ _____ _____    ______ ____
ROOT
ATOM      1  N   UNL     1       7.546  -2.996  26.731  0.00  0.00    -0.303 N 
ATOM      2  H   UNL     1       6.572  -2.860  27.009  0.00  0.00    +0.149 HD
ATOM      3  C   UNL     1       8.045  -4.271  26.845  0.00  0.00    +0.299 C 
ATOM      4  O   UNL     1       9.202  -4.612  26.669  0.00  0.00    -0.265 OA
ENDROOT
BRANCH   3   5
ATOM      5  C   UNL     1       7.027  -5.345  27.202  0.00  0.00    +0.299 C 
ATOM      6  N   UNL     1       5.816  -5.185  26.539  0.00  0.00    -0.303 N 
ATOM      7  H   UNL     1       5.845  -4.501  25.775  0.00  0.00    +0.149 HD
ATOM      8  O   UNL     1       7.305  -6.225  27.994  0.00  0.00    -0.265 OA
BRANCH   6   9
ATOM      9  C   UNL     1       4.891  -6.282  26.529  0.00  0.00    +0.155 C 
BRANCH   9  10
ATOM     10  C   UNL     1       4.597  -6.856  25.129  0.00  0.00    +0.152 C 
BRANCH  10  11
ATOM     11  N   UNL     1       3.219  -6.403  24.575  0.00  0.00    +0.247 N 
BRANCH  11  12
ATOM     12  C   UNL     1       2.430  -5.736  25.738  0.00  0.00    +0.130 C 
ATOM     13  C   UNL     1       1.612  -4.516  25.358  0.00  0.00    +0.060 C 
ENDBRANCH  11  12
BRANCH  11  14
ATOM     14  C   UNL     1       2.459  -7.618  23.987  0.00  0.00    +0.130 C 
ATOM     15  C   UNL     1       1.581  -7.302  22.786  0.00  0.00    +0.060 C 
ENDBRANCH  11  14
BRANCH  11  16
ATOM     16  C   UNL     1       3.406  -5.350  23.414  0.00  0.00    +0.171 C 
BRANCH  16  17
ATOM     17  C   UNL     1       4.804  -4.947  22.981  0.00  0.00    +0.015 A 
ATOM     18  C   UNL     1       5.452  -3.811  23.505  0.00  0.00    +0.049 A 
ATOM     19 CL   UNL     1       4.661  -2.711  24.577  0.00  0.00    -0.083 Cl
ATOM     20  C   UNL     1       6.791  -3.538  23.203  0.00  0.00    +0.020 A 
ATOM     21  C   UNL     1       7.513  -4.388  22.371  0.00  0.00    +0.001 A 
ATOM     22  C   UNL     1       6.891  -5.503  21.823  0.00  0.00    +0.001 A 
ATOM     23  C   UNL     1       5.555  -5.783  22.126  0.00  0.00    +0.010 A 
ENDBRANCH  16  17
ENDBRANCH  11  16
ENDBRANCH  10  11
ENDBRANCH   9  10
ENDBRANCH   6   9
ENDBRANCH   3   5
BRANCH   1  24
ATOM     24  C   UNL     1       8.376  -1.879  26.327  0.00  0.00    +0.155 C 
BRANCH  24  25
ATOM     25  C   UNL     1       7.887  -0.538  26.925  0.00  0.00    +0.152 C 
BRANCH  25  26
ATOM     26  N   UNL     1       7.755   0.641  25.912  0.00  0.00    +0.247 N 
BRANCH  26  28
ATOM     27  C   UNL     1       5.676   1.159  24.475  0.00  0.00    +0.060 C 
ATOM     28  C   UNL     1       6.787   0.168  24.791  0.00  0.00    +0.130 C 
ENDBRANCH  26  28
BRANCH  26  29
ATOM     29  C   UNL     1       7.199   1.910  26.610  0.00  0.00    +0.130 C 
ATOM     30  C   UNL     1       6.860   1.696  28.083  0.00  0.00    +0.060 C 
ENDBRANCH  26  29
BRANCH  26  31
ATOM     31  C   UNL     1       9.180   0.995  25.271  0.00  0.00    +0.171 C 
BRANCH  31  32
ATOM     32  C   UNL     1       9.380   0.652  23.807  0.00  0.00    +0.015 A 
ATOM     33  C   UNL     1       8.977   1.454  22.730  0.00  0.00    +0.049 A 
ATOM     34 CL   UNL     1       8.576   3.117  22.914  0.00  0.00    -0.083 Cl
ATOM     35  C   UNL     1       8.951   0.950  21.422  0.00  0.00    +0.020 A 
ATOM     36  C   UNL     1       9.412  -0.333  21.152  0.00  0.00    +0.001 A 
ATOM     37  C   UNL     1       9.974  -1.076  22.177  0.00  0.00    +0.001 A 
ATOM     38  C   UNL     1       9.981  -0.573  23.481  0.00  0.00    +0.010 A 
ENDBRANCH  31  32
ENDBRANCH  26  31
ENDBRANCH  25  26
ENDBRANCH  24  25
ENDBRANCH   1  24
TORSDOF 15
ENDMDL
MODEL 4
REMARK VINA RESULT:      -6.3      1.487      8.835
REMARK  Name = 
REMARK  19 active torsions:
REMARK  status: ('A' for Active; 'I' for Inactive)
REMARK    1  A    between atoms: C_1  and  C_2
REMARK    2  A    between atoms: C_2  and  N_3
REMARK    3  A    between atoms: N_3  and  C_4
REMARK    4  A    between atoms: N_3  and  C_6
REMARK    5  A    between atoms: N_3  and  C_29
REMARK    6  A    between atoms: C_4  and  C_5
REMARK    7  A    between atoms: C_6  and  C_7
REMARK    8  A    between atoms: C_7  and  N_8
REMARK    9  A    between atoms: C_9  and  C_11
REMARK   10  A    between atoms: N_13  and  C_14
REMARK   11  A    between atoms: C_14  and  C_15
REMARK   12  A    between atoms: C_15  and  N_16
REMARK   13  A    between atoms: N_16  and  C_17
REMARK   14  A    between atoms: N_16  and  C_19
REMARK   15  A    between atoms: N_16  and  C_21
REMARK   16  A    between atoms: C_17  and  C_18
REMARK   17  A    between atoms: C_19  and  C_20
REMARK   18  A    between atoms: C_21  and  C_22
REMARK   19  A    between atoms: C_29  and  C_30
REMARK                            x       y       z     vdW  Elec       q    Type
REMARK                         _______ _______ _______ _____ _____    ______ ____
ROOT
ATOM      1  N   UNL     1       9.988  -0.499  24.935  0.00  0.00    -0.303 N 
ATOM      2  H   UNL     1       9.724  -0.642  25.913  0.00  0.00    +0.149 HD
ATOM      3  C   UNL     1       9.917  -1.596  24.113  0.00  0.00    +0.299 C 
ATOM      4  O   UNL     1      10.289  -1.655  22.954  0.00  0.00    -0.265 OA
ENDROOT
BRANCH   3   5
ATOM      5  C   UNL     1       9.284  -2.837  24.727  0.00  0.00    +0.299 C 
ATOM      6  N   UNL     1       8.482  -2.548  25.825  0.00  0.00    -0.303 N 
ATOM      7  H   UNL     1       8.277  -1.550  25.942  0.00  0.00    +0.149 HD
ATOM      8  O   UNL     1       9.498  -3.939  24.260  0.00  0.00    -0.265 OA
BRANCH   6   9
ATOM      9  C   UNL     1       7.581  -3.560  26.299  0.00  0.00    +0.155 C 
BRANCH   9  10
ATOM     10  C   UNL     1       6.123  -3.088  26.468  0.00  0.00    +0.152 C 
BRANCH  10  11
ATOM     11  N   UNL     1       5.097  -4.239  26.283  0.00  0.00    +0.247 N 
BRANCH  11  12
ATOM     12  C   UNL     1       3.971  -4.053  27.340  0.00  0.00    +0.130 C 
ATOM     13  C   UNL     1       4.165  -2.896  28.304  0.00  0.00    +0.060 C 
ENDBRANCH  11  12
BRANCH  11  14
ATOM     14  C   UNL     1       5.805  -5.609  26.432  0.00  0.00    +0.130 C 
ATOM     15  C   UNL     1       4.899  -6.753  26.862  0.00  0.00    +0.060 C 
ENDBRANCH  11  14
BRANCH  11  16
ATOM     16  C   UNL     1       4.457  -4.186  24.840  0.00  0.00    +0.171 C 
BRANCH  16  17
ATOM     17  C   UNL     1       5.275  -4.617  23.637  0.00  0.00    +0.015 A 
ATOM     18  C   UNL     1       6.064  -3.709  22.903  0.00  0.00    +0.049 A 
ATOM     19 CL   UNL     1       6.059  -2.012  23.229  0.00  0.00    -0.083 Cl
ATOM     20  C   UNL     1       6.921  -4.150  21.889  0.00  0.00    +0.020 A 
ATOM     21  C   UNL     1       7.010  -5.505  21.582  0.00  0.00    +0.001 A 
ATOM     22  C   UNL     1       6.227  -6.419  22.275  0.00  0.00    +0.001 A 
ATOM     23  C   UNL     1       5.372  -5.983  23.292  0.00  0.00    +0.010 A 
ENDBRANCH  16  17
ENDBRANCH  11  16
ENDBRANCH  10  11
ENDBRANCH   9  10
ENDBRANCH   6   9
ENDBRANCH   3   5
BRANCH   1  24
ATOM     24  C   UNL     1      10.498   0.777  24.473  0.00  0.00    +0.155 C 
BRANCH  24  25
ATOM     25  C   UNL     1       9.464   1.917  24.633  0.00  0.00    +0.152 C 
BRANCH  25  26
ATOM     26  N   UNL     1       8.613   2.234  23.365  0.00  0.00    +0.247 N 
BRANCH  26  28
ATOM     27  C   UNL     1       8.907   0.873  21.192  0.00  0.00    +0.060 C 
ATOM     28  C   UNL     1       9.503   1.913  22.130  0.00  0.00    +0.130 C 
ENDBRANCH  26  28
BRANCH  26  29
ATOM     29  C   UNL     1       7.319   1.378  23.338  0.00  0.00    +0.130 C 
ATOM     30  C   UNL     1       6.621   1.288  24.692  0.00  0.00    +0.060 C 
ENDBRANCH  26  29
BRANCH  26  31
ATOM     31  C   UNL     1       8.201   3.782  23.336  0.00  0.00    +0.171 C 
BRANCH  31  32
ATOM     32  C   UNL     1       9.028   4.730  24.183  0.00  0.00    +0.015 A 
ATOM     33  C   UNL     1       8.641   5.241  25.431  0.00  0.00    +0.049 A 
ATOM     34 CL   UNL     1       7.371   4.546  26.360  0.00  0.00    -0.083 Cl
ATOM     35  C   UNL     1       9.327   6.311  26.020  0.00  0.00    +0.020 A 
ATOM     36  C   UNL     1      10.467   6.833  25.419  0.00  0.00    +0.001 A 
ATOM     37  C   UNL     1      10.962   6.229  24.276  0.00  0.00    +0.001 A 
ATOM     38  C   UNL     1      10.262   5.173  23.686  0.00  0.00    +0.010 A 
ENDBRANCH  31  32
ENDBRANCH  26  31
ENDBRANCH  25  26
ENDBRANCH  24  25
ENDBRANCH   1  24
TORSDOF 15
ENDMDL
MODEL 5
REMARK VINA RESULT:      -6.2      2.497      8.617
REMARK  Name = 
REMARK  19 active torsions:
REMARK  status: ('A' for Active; 'I' for Inactive)
REMARK    1  A    between atoms: C_1  and  C_2
REMARK    2  A    between atoms: C_2  and  N_3
REMARK    3  A    between atoms: N_3  and  C_4
REMARK    4  A    between atoms: N_3  and  C_6
REMARK    5  A    between atoms: N_3  and  C_29
REMARK    6  A    between atoms: C_4  and  C_5
REMARK    7  A    between atoms: C_6  and  C_7
REMARK    8  A    between atoms: C_7  and  N_8
REMARK    9  A    between atoms: C_9  and  C_11
REMARK   10  A    between atoms: N_13  and  C_14
REMARK   11  A    between atoms: C_14  and  C_15
REMARK   12  A    between atoms: C_15  and  N_16
REMARK   13  A    between atoms: N_16  and  C_17
REMARK   14  A    between atoms: N_16  and  C_19
REMARK   15  A    between atoms: N_16  and  C_21
REMARK   16  A    between atoms: C_17  and  C_18
REMARK   17  A    between atoms: C_19  and  C_20
REMARK   18  A    between atoms: C_21  and  C_22
REMARK   19  A    between atoms: C_29  and  C_30
REMARK                            x       y       z     vdW  Elec       q    Type
REMARK                         _______ _______ _______ _____ _____    ______ ____
ROOT
ATOM      1  N   UNL     1       6.860   1.147  25.067  0.00  0.00    -0.303 N 
ATOM      2  H   UNL     1       7.657   0.518  24.949  0.00  0.00    +0.149 HD
ATOM      3  C   UNL     1       5.661   0.564  25.399  0.00  0.00    +0.299 C 
ATOM      4  O   UNL     1       4.582   1.125  25.476  0.00  0.00    -0.265 OA
ENDROOT
BRANCH   3   5
ATOM      5  C   UNL     1       5.723  -0.923  25.722  0.00  0.00    +0.299 C 
ATOM      6  N   UNL     1       4.466  -1.491  25.900  0.00  0.00    -0.303 N 
ATOM      7  H   UNL     1       3.690  -0.889  25.602  0.00  0.00    +0.149 HD
ATOM      8  O   UNL     1       6.791  -1.496  25.803  0.00  0.00    -0.265 OA
BRANCH   6   9
ATOM      9  C   UNL     1       4.355  -2.921  25.889  0.00  0.00    +0.155 C 
BRANCH   9  10
ATOM     10  C   UNL     1       4.422  -3.557  24.486  0.00  0.00    +0.152 C 
BRANCH  10  11
ATOM     11  N   UNL     1       4.065  -5.068  24.497  0.00  0.00    +0.247 N 
BRANCH  11  12
ATOM     12  C   UNL     1       3.115  -5.344  23.296  0.00  0.00    +0.130 C 
ATOM     13  C   UNL     1       1.635  -5.163  23.579  0.00  0.00    +0.060 C 
ENDBRANCH  11  12
BRANCH  11  14
ATOM     14  C   UNL     1       3.409  -5.448  25.848  0.00  0.00    +0.130 C 
ATOM     15  C   UNL     1       3.637  -6.887  26.286  0.00  0.00    +0.060 C 
ENDBRANCH  11  14
BRANCH  11  16
ATOM     16  C   UNL     1       5.366  -5.947  24.333  0.00  0.00    +0.171 C 
BRANCH  16  17
ATOM     17  C   UNL     1       6.708  -5.397  24.780  0.00  0.00    +0.015 A 
ATOM     18  C   UNL     1       7.568  -4.713  23.899  0.00  0.00    +0.049 A 
ATOM     19 CL   UNL     1       7.228  -4.562  22.211  0.00  0.00    -0.083 Cl
ATOM     20  C   UNL     1       8.732  -4.090  24.362  0.00  0.00    +0.020 A 
ATOM     21  C   UNL     1       9.066  -4.136  25.712  0.00  0.00    +0.001 A 
ATOM     22  C   UNL     1       8.247  -4.824  26.599  0.00  0.00    +0.001 A 
ATOM     23  C   UNL     1       7.080  -5.444  26.141  0.00  0.00    +0.010 A 
ENDBRANCH  16  17
ENDBRANCH  11  16
ENDBRANCH  10  11
ENDBRANCH   9  10
ENDBRANCH   6   9
ENDBRANCH   3   5
BRANCH   1  24
ATOM     24  C   UNL     1       6.976   2.567  24.803  0.00  0.00    +0.155 C 
BRANCH  24  25
ATOM     25  C   UNL     1       8.417   3.089  25.019  0.00  0.00    +0.152 C 
BRANCH  25  26
ATOM     26  N   UNL     1       9.068   3.794  23.790  0.00  0.00    +0.247 N 
BRANCH  26  28
ATOM     27  C   UNL     1       7.480   5.368  22.501  0.00  0.00    +0.060 C 
ATOM     28  C   UNL     1       7.958   3.938  22.710  0.00  0.00    +0.130 C 
ENDBRANCH  26  28
BRANCH  26  29
ATOM     29  C   UNL     1       9.626   5.188  24.183  0.00  0.00    +0.130 C 
ATOM     30  C   UNL     1      11.042   5.443  23.671  0.00  0.00    +0.060 C 
ENDBRANCH  26  29
BRANCH  26  31
ATOM     31  C   UNL     1      10.269   2.911  23.205  0.00  0.00    +0.171 C 
BRANCH  31  32
ATOM     32  C   UNL     1       9.950   1.475  22.832  0.00  0.00    +0.015 A 
ATOM     33  C   UNL     1      10.318   0.349  23.583  0.00  0.00    +0.049 A 
ATOM     34 CL   UNL     1      10.814   0.454  25.227  0.00  0.00    -0.083 Cl
ATOM     35  C   UNL     1      10.227  -0.941  23.043  0.00  0.00    +0.020 A 
ATOM     36  C   UNL     1       9.684  -1.140  21.779  0.00  0.00    +0.001 A 
ATOM     37  C   UNL     1       9.158  -0.056  21.095  0.00  0.00    +0.001 A 
ATOM     38  C   UNL     1       9.268   1.229  21.633  0.00  0.00    +0.010 A 
ENDBRANCH  31  32
ENDBRANCH  26  31
ENDBRANCH  25  26
ENDBRANCH  24  25
ENDBRANCH   1  24
TORSDOF 15
ENDMDL
MODEL 6
REMARK VINA RESULT:      -6.2      3.003      8.275
REMARK  Name = 
REMARK  19 active torsions:
REMARK  status: ('A' for Active; 'I' for Inactive)
REMARK    1  A    between atoms: C_1  and  C_2
REMARK    2  A    between atoms: C_2  and  N_3
REMARK    3  A    between atoms: N_3  and  C_4
REMARK    4  A    between atoms: N_3  and  C_6
REMARK    5  A    between atoms: N_3  and  C_29
REMARK    6  A    between atoms: C_4  and  C_5
REMARK    7  A    between atoms: C_6  and  C_7
REMARK    8  A    between atoms: C_7  and  N_8
REMARK    9  A    between atoms: C_9  and  C_11
REMARK   10  A    between atoms: N_13  and  C_14
REMARK   11  A    between atoms: C_14  and  C_15
REMARK   12  A    between atoms: C_15  and  N_16
REMARK   13  A    between atoms: N_16  and  C_17
REMARK   14  A    between atoms: N_16  and  C_19
REMARK   15  A    between atoms: N_16  and  C_21
REMARK   16  A    between atoms: C_17  and  C_18
REMARK   17  A    between atoms: C_19  and  C_20
REMARK   18  A    between atoms: C_21  and  C_22
REMARK   19  A    between atoms: C_29  and  C_30
REMARK                            x       y       z     vdW  Elec       q    Type
REMARK                         _______ _______ _______ _____ _____    ______ ____
ROOT
ATOM      1  N   UNL     1       5.113   2.993  25.719  0.00  0.00    -0.303 N 
ATOM      2  H   UNL     1       4.194   2.890  25.283  0.00  0.00    +0.149 HD
ATOM      3  C   UNL     1       5.682   1.851  26.229  0.00  0.00    +0.299 C 
ATOM      4  O   UNL     1       6.712   1.785  26.877  0.00  0.00    -0.265 OA
ENDROOT
BRANCH   3   5
ATOM      5  C   UNL     1       4.946   0.556  25.916  0.00  0.00    +0.299 C 
ATOM      6  N   UNL     1       5.683  -0.305  25.110  0.00  0.00    -0.303 N 
ATOM      7  H   UNL     1       6.669  -0.038  25.006  0.00  0.00    +0.149 HD
ATOM      8  O   UNL     1       3.831   0.354  26.356  0.00  0.00    -0.265 OA
BRANCH   6   9
ATOM      9  C   UNL     1       5.259  -1.671  25.002  0.00  0.00    +0.155 C 
BRANCH   9  10
ATOM     10  C   UNL     1       5.906  -2.451  23.840  0.00  0.00    +0.152 C 
BRANCH  10  11
ATOM     11  N   UNL     1       6.335  -3.886  24.248  0.00  0.00    +0.247 N 
BRANCH  11  12
ATOM     12  C   UNL     1       6.101  -4.822  23.028  0.00  0.00    +0.130 C 
ATOM     13  C   UNL     1       7.322  -5.581  22.542  0.00  0.00    +0.060 C 
ENDBRANCH  11  12
BRANCH  11  14
ATOM     14  C   UNL     1       5.530  -4.347  25.489  0.00  0.00    +0.130 C 
ATOM     15  C   UNL     1       6.211  -5.414  26.332  0.00  0.00    +0.060 C 
ENDBRANCH  11  14
BRANCH  11  16
ATOM     16  C   UNL     1       7.866  -3.920  24.632  0.00  0.00    +0.171 C 
BRANCH  16  17
ATOM     17  C   UNL     1       8.556  -2.648  25.089  0.00  0.00    +0.015 A 
ATOM     18  C   UNL     1       9.257  -1.815  24.195  0.00  0.00    +0.049 A 
ATOM     19 CL   UNL     1       9.502  -2.239  22.538  0.00  0.00    -0.083 Cl
ATOM     20  C   UNL     1       9.763  -0.576  24.606  0.00  0.00    +0.020 A 
ATOM     21  C   UNL     1       9.584  -0.142  25.916  0.00  0.00    +0.001 A 
ATOM     22  C   UNL     1       8.916  -0.955  26.823  0.00  0.00    +0.001 A 
ATOM     23  C   UNL     1       8.405  -2.191  26.416  0.00  0.00    +0.010 A 
ENDBRANCH  16  17
ENDBRANCH  11  16
ENDBRANCH  10  11
ENDBRANCH   9  10
ENDBRANCH   6   9
ENDBRANCH   3   5
BRANCH   1  24
ATOM     24  C   UNL     1       5.733   4.294  25.871  0.00  0.00    +0.155 C 
BRANCH  24  25
ATOM     25  C   UNL     1       5.923   5.016  24.515  0.00  0.00    +0.152 C 
BRANCH  25  26
ATOM     26  N   UNL     1       7.403   5.236  24.074  0.00  0.00    +0.247 N 
BRANCH  26  28
ATOM     27  C   UNL     1       7.068   6.629  21.927  0.00  0.00    +0.060 C 
ATOM     28  C   UNL     1       7.412   5.269  22.519  0.00  0.00    +0.130 C 
ENDBRANCH  26  28
BRANCH  26  29
ATOM     29  C   UNL     1       7.960   6.566  24.648  0.00  0.00    +0.130 C 
ATOM     30  C   UNL     1       9.483   6.600  24.738  0.00  0.00    +0.060 C 
ENDBRANCH  26  29
BRANCH  26  31
ATOM     31  C   UNL     1       8.329   4.033  24.586  0.00  0.00    +0.171 C 
BRANCH  31  32
ATOM     32  C   UNL     1       8.613   2.916  23.600  0.00  0.00    +0.015 A 
ATOM     33  C   UNL     1       9.842   2.701  22.959  0.00  0.00    +0.049 A 
ATOM     34 CL   UNL     1      11.308   3.415  23.507  0.00  0.00    -0.083 Cl
ATOM     35  C   UNL     1       9.947   1.826  21.870  0.00  0.00    +0.020 A 
ATOM     36  C   UNL     1       8.849   1.079  21.457  0.00  0.00    +0.001 A 
ATOM     37  C   UNL     1       7.674   1.150  22.187  0.00  0.00    +0.001 A 
ATOM     38  C   UNL     1       7.573   2.039  23.262  0.00  0.00    +0.010 A 
ENDBRANCH  31  32
ENDBRANCH  26  31
ENDBRANCH  25  26
ENDBRANCH  24  25
ENDBRANCH   1  24
TORSDOF 15
ENDMDL
MODEL 7
REMARK VINA RESULT:      -6.2      2.444      8.276
REMARK  Name = 
REMARK  19 active torsions:
REMARK  status: ('A' for Active; 'I' for Inactive)
REMARK    1  A    between atoms: C_1  and  C_2
REMARK    2  A    between atoms: C_2  and  N_3
REMARK    3  A    between atoms: N_3  and  C_4
REMARK    4  A    between atoms: N_3  and  C_6
REMARK    5  A    between atoms: N_3  and  C_29
REMARK    6  A    between atoms: C_4  and  C_5
REMARK    7  A    between atoms: C_6  and  C_7
REMARK    8  A    between atoms: C_7  and  N_8
REMARK    9  A    between atoms: C_9  and  C_11
REMARK   10  A    between atoms: N_13  and  C_14
REMARK   11  A    between atoms: C_14  and  C_15
REMARK   12  A    between atoms: C_15  and  N_16
REMARK   13  A    between atoms: N_16  and  C_17
REMARK   14  A    between atoms: N_16  and  C_19
REMARK   15  A    between atoms: N_16  and  C_21
REMARK   16  A    between atoms: C_17  and  C_18
REMARK   17  A    between atoms: C_19  and  C_20
REMARK   18  A    between atoms: C_21  and  C_22
REMARK   19  A    between atoms: C_29  and  C_30
REMARK                            x       y       z     vdW  Elec       q    Type
REMARK                         _______ _______ _______ _____ _____    ______ ____
ROOT
ATOM      1  N   UNL     1       7.722  -3.394  26.681  0.00  0.00    -0.303 N 
ATOM      2  H   UNL     1       6.815  -3.092  27.043  0.00  0.00    +0.149 HD
ATOM      3  C   UNL     1       7.984  -4.742  26.730  0.00  0.00    +0.299 C 
ATOM      4  O   UNL     1       9.040  -5.283  26.451  0.00  0.00    -0.265 OA
ENDROOT
BRANCH   3   5
ATOM      5  C   UNL     1       6.817  -5.623  27.153  0.00  0.00    +0.299 C 
ATOM      6  N   UNL     1       5.683  -5.432  26.370  0.00  0.00    -0.303 N 
ATOM      7  H   UNL     1       5.851  -4.884  25.518  0.00  0.00    +0.149 HD
ATOM      8  O   UNL     1       6.926  -6.393  28.087  0.00  0.00    -0.265 OA
BRANCH   6   9
ATOM      9  C   UNL     1       4.631  -6.404  26.442  0.00  0.00    +0.155 C 
BRANCH   9  10
ATOM     10  C   UNL     1       4.169  -6.948  25.076  0.00  0.00    +0.152 C 
BRANCH  10  11
ATOM     11  N   UNL     1       2.910  -6.216  24.536  0.00  0.00    +0.247 N 
BRANCH  11  12
ATOM     12  C   UNL     1       2.267  -5.435  25.717  0.00  0.00    +0.130 C 
ATOM     13  C   UNL     1       1.719  -4.062  25.372  0.00  0.00    +0.060 C 
ENDBRANCH  11  12
BRANCH  11  14
ATOM     14  C   UNL     1       1.925  -7.241  23.921  0.00  0.00    +0.130 C 
ATOM     15  C   UNL     1       2.007  -8.640  24.512  0.00  0.00    +0.060 C 
ENDBRANCH  11  14
BRANCH  11  16
ATOM     16  C   UNL     1       3.306  -5.193  23.401  0.00  0.00    +0.171 C 
BRANCH  16  17
ATOM     17  C   UNL     1       4.759  -5.052  22.988  0.00  0.00    +0.015 A 
ATOM     18  C   UNL     1       5.572  -4.000  23.454  0.00  0.00    +0.049 A 
ATOM     19 CL   UNL     1       4.947  -2.713  24.422  0.00  0.00    -0.083 Cl
ATOM     20  C   UNL     1       6.943  -3.968  23.178  0.00  0.00    +0.020 A 
ATOM     21  C   UNL     1       7.535  -4.981  22.430  0.00  0.00    +0.001 A 
ATOM     22  C   UNL     1       6.753  -6.018  21.939  0.00  0.00    +0.001 A 
ATOM     23  C   UNL     1       5.382  -6.058  22.216  0.00  0.00    +0.010 A 
ENDBRANCH  16  17
ENDBRANCH  11  16
ENDBRANCH  10  11
ENDBRANCH   9  10
ENDBRANCH   6   9
ENDBRANCH   3   5
BRANCH   1  24
ATOM     24  C   UNL     1       8.710  -2.435  26.229  0.00  0.00    +0.155 C 
BRANCH  24  25
ATOM     25  C   UNL     1       8.071  -1.095  25.792  0.00  0.00    +0.152 C 
BRANCH  25  26
ATOM     26  N   UNL     1       8.648  -0.471  24.484  0.00  0.00    +0.247 N 
BRANCH  26  28
ATOM     27  C   UNL     1      10.695   1.100  24.482  0.00  0.00    +0.060 C 
ATOM     28  C   UNL     1       9.233   0.919  24.865  0.00  0.00    +0.130 C 
ENDBRANCH  26  28
BRANCH  26  29
ATOM     29  C   UNL     1       9.753  -1.378  23.880  0.00  0.00    +0.130 C 
ATOM     30  C   UNL     1       9.519  -1.726  22.412  0.00  0.00    +0.060 C 
ENDBRANCH  26  29
BRANCH  26  31
ATOM     31  C   UNL     1       7.492  -0.281  23.392  0.00  0.00    +0.171 C 
BRANCH  31  32
ATOM     32  C   UNL     1       7.067   1.142  23.081  0.00  0.00    +0.015 A 
ATOM     33  C   UNL     1       7.757   2.021  22.234  0.00  0.00    +0.049 A 
ATOM     34 CL   UNL     1       8.944   1.483  21.111  0.00  0.00    -0.083 Cl
ATOM     35  C   UNL     1       7.456   3.389  22.211  0.00  0.00    +0.020 A 
ATOM     36  C   UNL     1       6.402   3.893  22.965  0.00  0.00    +0.001 A 
ATOM     37  C   UNL     1       5.601   3.012  23.674  0.00  0.00    +0.001 A 
ATOM     38  C   UNL     1       5.919   1.651  23.705  0.00  0.00    +0.010 A 
ENDBRANCH  31  32
ENDBRANCH  26  31
ENDBRANCH  25  26
ENDBRANCH  24  25
ENDBRANCH   1  24
TORSDOF 15
ENDMDL
MODEL 8
REMARK VINA RESULT:      -6.1      2.646      8.407
REMARK  Name = 
REMARK  19 active torsions:
REMARK  status: ('A' for Active; 'I' for Inactive)
REMARK    1  A    between atoms: C_1  and  C_2
REMARK    2  A    between atoms: C_2  and  N_3
REMARK    3  A    between atoms: N_3  and  C_4
REMARK    4  A    between atoms: N_3  and  C_6
REMARK    5  A    between atoms: N_3  and  C_29
REMARK    6  A    between atoms: C_4  and  C_5
REMARK    7  A    between atoms: C_6  and  C_7
REMARK    8  A    between atoms: C_7  and  N_8
REMARK    9  A    between atoms: C_9  and  C_11
REMARK   10  A    between atoms: N_13  and  C_14
REMARK   11  A    between atoms: C_14  and  C_15
REMARK   12  A    between atoms: C_15  and  N_16
REMARK   13  A    between atoms: N_16  and  C_17
REMARK   14  A    between atoms: N_16  and  C_19
REMARK   15  A    between atoms: N_16  and  C_21
REMARK   16  A    between atoms: C_17  and  C_18
REMARK   17  A    between atoms: C_19  and  C_20
REMARK   18  A    between atoms: C_21  and  C_22
REMARK   19  A    between atoms: C_29  and  C_30
REMARK                            x       y       z     vdW  Elec       q    Type
REMARK                         _______ _______ _______ _____ _____    ______ ____
ROOT
ATOM      1  N   UNL     1       4.976   2.167  25.084  0.00  0.00    -0.303 N 
ATOM      2  H   UNL     1       4.160   1.874  24.543  0.00  0.00    +0.149 HD
ATOM      3  C   UNL     1       5.637   1.185  25.781  0.00  0.00    +0.299 C 
ATOM      4  O   UNL     1       6.557   1.349  26.563  0.00  0.00    -0.265 OA
ENDROOT
BRANCH   3   5
ATOM      5  C   UNL     1       5.170  -0.239  25.510  0.00  0.00    +0.299 C 
ATOM      6  N   UNL     1       5.833  -0.833  24.442  0.00  0.00    -0.303 N 
ATOM      7  H   UNL     1       6.659  -0.314  24.123  0.00  0.00    +0.149 HD
ATOM      8  O   UNL     1       4.302  -0.747  26.193  0.00  0.00    -0.265 OA
BRANCH   6   9
ATOM      9  C   UNL     1       5.730  -2.254  24.279  0.00  0.00    +0.155 C 
BRANCH   9  10
ATOM     10  C   UNL     1       6.426  -3.076  25.383  0.00  0.00    +0.152 C 
BRANCH  10  11
ATOM     11  N   UNL     1       7.469  -4.078  24.815  0.00  0.00    +0.247 N 
BRANCH  11  12
ATOM     12  C   UNL     1       7.218  -4.215  23.286  0.00  0.00    +0.130 C 
ATOM     13  C   UNL     1       6.800  -5.595  22.813  0.00  0.00    +0.060 C 
ENDBRANCH  11  12
BRANCH  11  14
ATOM     14  C   UNL     1       7.345  -5.440  25.542  0.00  0.00    +0.130 C 
ATOM     15  C   UNL     1       7.011  -5.344  27.023  0.00  0.00    +0.060 C 
ENDBRANCH  11  14
BRANCH  11  16
ATOM     16  C   UNL     1       8.936  -3.543  25.047  0.00  0.00    +0.171 C 
BRANCH  16  17
ATOM     17  C   UNL     1       9.342  -2.192  24.487  0.00  0.00    +0.015 A 
ATOM     18  C   UNL     1       9.377  -1.031  25.285  0.00  0.00    +0.049 A 
ATOM     19 CL   UNL     1       8.833  -1.023  26.925  0.00  0.00    -0.083 Cl
ATOM     20  C   UNL     1       9.891   0.172  24.789  0.00  0.00    +0.020 A 
ATOM     21  C   UNL     1      10.378   0.247  23.488  0.00  0.00    +0.001 A 
ATOM     22  C   UNL     1      10.334  -0.877  22.673  0.00  0.00    +0.001 A 
ATOM     23  C   UNL     1       9.826  -2.083  23.165  0.00  0.00    +0.010 A 
ENDBRANCH  16  17
ENDBRANCH  11  16
ENDBRANCH  10  11
ENDBRANCH   9  10
ENDBRANCH   6   9
ENDBRANCH   3   5
BRANCH   1  24
ATOM     24  C   UNL     1       5.352   3.563  25.180  0.00  0.00    +0.155 C 
BRANCH  24  25
ATOM     25  C   UNL     1       5.662   4.185  23.798  0.00  0.00    +0.152 C 
BRANCH  25  26
ATOM     26  N   UNL     1       7.025   3.770  23.164  0.00  0.00    +0.247 N 
BRANCH  26  28
ATOM     27  C   UNL     1       7.932   2.061  21.456  0.00  0.00    +0.060 C 
ATOM     28  C   UNL     1       6.770   2.470  22.350  0.00  0.00    +0.130 C 
ENDBRANCH  26  28
BRANCH  26  29
ATOM     29  C   UNL     1       7.570   4.891  22.239  0.00  0.00    +0.130 C 
ATOM     30  C   UNL     1       6.774   6.191  22.325  0.00  0.00    +0.060 C 
ENDBRANCH  26  29
BRANCH  26  31
ATOM     31  C   UNL     1       8.111   3.479  24.305  0.00  0.00    +0.171 C 
BRANCH  31  32
ATOM     32  C   UNL     1       9.398   4.280  24.251  0.00  0.00    +0.015 A 
ATOM     33  C   UNL     1       9.555   5.585  24.740  0.00  0.00    +0.049 A 
ATOM     34 CL   UNL     1       8.439   6.303  25.835  0.00  0.00    -0.083 Cl
ATOM     35  C   UNL     1      10.683   6.350  24.413  0.00  0.00    +0.020 A 
ATOM     36  C   UNL     1      11.717   5.798  23.665  0.00  0.00    +0.001 A 
ATOM     37  C   UNL     1      11.656   4.457  23.321  0.00  0.00    +0.001 A 
ATOM     38  C   UNL     1      10.520   3.706  23.637  0.00  0.00    +0.010 A 
ENDBRANCH  31  32
ENDBRANCH  26  31
ENDBRANCH  25  26
ENDBRANCH  24  25
ENDBRANCH   1  24
TORSDOF 15
ENDMDL
MODEL 9
REMARK VINA RESULT:      -6.1      2.746      4.450
REMARK  Name = 
REMARK  19 active torsions:
REMARK  status: ('A' for Active; 'I' for Inactive)
REMARK    1  A    between atoms: C_1  and  C_2
REMARK    2  A    between atoms: C_2  and  N_3
REMARK    3  A    between atoms: N_3  and  C_4
REMARK    4  A    between atoms: N_3  and  C_6
REMARK    5  A    between atoms: N_3  and  C_29
REMARK    6  A    between atoms: C_4  and  C_5
REMARK    7  A    between atoms: C_6  and  C_7
REMARK    8  A    between atoms: C_7  and  N_8
REMARK    9  A    between atoms: C_9  and  C_11
REMARK   10  A    between atoms: N_13  and  C_14
REMARK   11  A    between atoms: C_14  and  C_15
REMARK   12  A    between atoms: C_15  and  N_16
REMARK   13  A    between atoms: N_16  and  C_17
REMARK   14  A    between atoms: N_16  and  C_19
REMARK   15  A    between atoms: N_16  and  C_21
REMARK   16  A    between atoms: C_17  and  C_18
REMARK   17  A    between atoms: C_19  and  C_20
REMARK   18  A    between atoms: C_21  and  C_22
REMARK   19  A    between atoms: C_29  and  C_30
REMARK                            x       y       z     vdW  Elec       q    Type
REMARK                         _______ _______ _______ _____ _____    ______ ____
ROOT
ATOM      1  N   UNL     1       5.131  -1.182  26.386  0.00  0.00    -0.303 N 
ATOM      2  H   UNL     1       5.856  -1.084  25.671  0.00  0.00    +0.149 HD
ATOM      3  C   UNL     1       4.583  -0.019  26.869  0.00  0.00    +0.299 C 
ATOM      4  O   UNL     1       3.792   0.078  27.791  0.00  0.00    -0.265 OA
ENDROOT
BRANCH   3   5
ATOM      5  C   UNL     1       5.003   1.253  26.146  0.00  0.00    +0.299 C 
ATOM      6  N   UNL     1       6.267   1.696  26.519  0.00  0.00    -0.303 N 
ATOM      7  H   UNL     1       6.805   1.014  27.065  0.00  0.00    +0.149 HD
ATOM      8  O   UNL     1       4.264   1.781  25.338  0.00  0.00    -0.265 OA
BRANCH   6   9
ATOM      9  C   UNL     1       6.916   2.681  25.701  0.00  0.00    +0.155 C 
BRANCH   9  10
ATOM     10  C   UNL     1       7.638   2.109  24.465  0.00  0.00    +0.152 C 
BRANCH  10  11
ATOM     11  N   UNL     1       8.433   3.190  23.683  0.00  0.00    +0.247 N 
BRANCH  11  12
ATOM     12  C   UNL     1       8.824   4.314  24.685  0.00  0.00    +0.130 C 
ATOM     13  C   UNL     1       9.755   5.381  24.139  0.00  0.00    +0.060 C 
ENDBRANCH  11  12
BRANCH  11  14
ATOM     14  C   UNL     1       7.577   3.735  22.513  0.00  0.00    +0.130 C 
ATOM     15  C   UNL     1       6.366   2.884  22.159  0.00  0.00    +0.060 C 
ENDBRANCH  11  14
BRANCH  11  16
ATOM     16  C   UNL     1       9.749   2.574  23.067  0.00  0.00    +0.171 C 
BRANCH  16  17
ATOM     17  C   UNL     1       9.787   1.105  22.689  0.00  0.00    +0.015 A 
ATOM     18  C   UNL     1      10.234   0.113  23.584  0.00  0.00    +0.049 A 
ATOM     19 CL   UNL     1      10.899   0.499  25.131  0.00  0.00    -0.083 Cl
ATOM     20  C   UNL     1      10.127  -1.247  23.270  0.00  0.00    +0.020 A 
ATOM     21  C   UNL     1       9.575  -1.648  22.057  0.00  0.00    +0.001 A 
ATOM     22  C   UNL     1       9.148  -0.690  21.147  0.00  0.00    +0.001 A 
ATOM     23  C   UNL     1       9.249   0.670  21.458  0.00  0.00    +0.010 A 
ENDBRANCH  16  17
ENDBRANCH  11  16
ENDBRANCH  10  11
ENDBRANCH   9  10
ENDBRANCH   6   9
ENDBRANCH   3   5
BRANCH   1  24
ATOM     24  C   UNL     1       4.774  -2.481  26.922  0.00  0.00    +0.155 C 
BRANCH  24  25
ATOM     25  C   UNL     1       6.015  -3.360  27.207  0.00  0.00    +0.152 C 
BRANCH  25  26
ATOM     26  N   UNL     1       6.169  -4.619  26.298  0.00  0.00    +0.247 N 
BRANCH  26  28
ATOM     27  C   UNL     1       8.348  -3.281  25.954  0.00  0.00    +0.060 C 
ATOM     28  C   UNL     1       7.620  -4.600  25.739  0.00  0.00    +0.130 C 
ENDBRANCH  26  28
BRANCH  26  29
ATOM     29  C   UNL     1       5.916  -5.919  27.108  0.00  0.00    +0.130 C 
ATOM     30  C   UNL     1       4.653  -6.664  26.684  0.00  0.00    +0.060 C 
ENDBRANCH  26  29
BRANCH  26  31
ATOM     31  C   UNL     1       5.129  -4.567  25.081  0.00  0.00    +0.171 C 
BRANCH  31  32
ATOM     32  C   UNL     1       5.694  -4.740  23.685  0.00  0.00    +0.015 A 
ATOM     33  C   UNL     1       5.980  -3.693  22.796  0.00  0.00    +0.049 A 
ATOM     34 CL   UNL     1       6.119  -2.057  23.309  0.00  0.00    -0.083 Cl
ATOM     35  C   UNL     1       6.240  -3.944  21.442  0.00  0.00    +0.020 A 
ATOM     36  C   UNL     1       6.309  -5.249  20.967  0.00  0.00    +0.001 A 
ATOM     37  C   UNL     1       6.201  -6.298  21.865  0.00  0.00    +0.001 A 
ATOM     38  C   UNL     1       5.925  -6.039  23.210  0.00  0.00    +0.010 A 
ENDBRANCH  31  32
ENDBRANCH  26  31
ENDBRANCH  25  26
ENDBRANCH  24  25
ENDBRANCH   1  24
TORSDOF 15
ENDMDL
