MODEL 1
REMARK VINA RESULT:      -4.7      0.000      0.000
REMARK  Name = 
REMARK  10 active torsions:
REMARK  status: ('A' for Active; 'I' for Inactive)
REMARK    1  A    between atoms: C_1  and  C_2
REMARK    2  A    between atoms: C_2  and  C_3
REMARK    3  A    between atoms: C_2  and  O_8
REMARK    4  A    between atoms: C_3  and  C_4
REMARK    5  A    between atoms: C_4  and  C_5
REMARK    6  A    between atoms: C_4  and  C_6
REMARK    7  A    between atoms: C_4  and  O_7
REMARK    8  A    between atoms: O_8  and  C_9
REMARK    9  A    between atoms: C_9  and  O_10
REMARK   10  A    between atoms: C_9  and  C_11
REMARK                            x       y       z     vdW  Elec       q    Type
REMARK                         _______ _______ _______ _____ _____    ______ ____
ROOT
ATOM      1  C   UNL     1       9.055  -3.458  24.588  0.00  0.00    +0.038 C 
ATOM      2  C   UNL     1       8.274  -3.422  23.269  0.00  0.00    +0.121 C 
ENDROOT
BRANCH   2   3
ATOM      3  O   UNL     1       8.337  -2.124  22.670  0.00  0.00    -0.344 OA
BRANCH   3   4
ATOM      4  C   UNL     1       9.616  -1.475  22.711  0.00  0.00    +0.299 C 
BRANCH   4   5
ATOM      5  C   UNL     1       9.528   0.019  23.258  0.00  0.00    +0.241 C 
ATOM      6 CL   UNL     1       7.864   0.404  23.852  0.00  0.00    -0.078 Cl
ATOM      7 CL   UNL     1       9.913   1.195  21.945  0.00  0.00    -0.078 Cl
ATOM      8 CL   UNL     1      10.655   0.347  24.624  0.00  0.00    -0.078 Cl
ENDBRANCH   4   5
BRANCH   4   9
ATOM      9  O   UNL     1      10.239  -1.595  21.427  0.00  0.00    -0.364 OA
ATOM     10  H   UNL     1      11.199  -1.498  21.565  0.00  0.00    +0.213 HD
ENDBRANCH   4   9
ENDBRANCH   3   4
ENDBRANCH   2   3
BRANCH   2  11
ATOM     11  C   UNL     1       6.800  -3.743  23.577  0.00  0.00    +0.065 C 
BRANCH  11  12
ATOM     12  C   UNL     1       5.960  -4.435  22.479  0.00  0.00    +0.063 C 
ATOM     13  C   UNL     1       4.625  -4.954  23.008  0.00  0.00    +0.041 C 
ATOM     14  C   UNL     1       6.697  -5.544  21.730  0.00  0.00    +0.041 C 
BRANCH  12  15
ATOM     15  O   UNL     1       5.641  -3.416  21.514  0.00  0.00    -0.389 OA
ATOM     16  H   UNL     1       6.002  -3.696  20.654  0.00  0.00    +0.210 HD
ENDBRANCH  12  15
ENDBRANCH  11  12
ENDBRANCH   2  11
TORSDOF 7
ENDMDL
MODEL 2
REMARK VINA RESULT:      -4.6      2.905      5.064
REMARK  Name = 
REMARK  10 active torsions:
REMARK  status: ('A' for Active; 'I' for Inactive)
REMARK    1  A    between atoms: C_1  and  C_2
REMARK    2  A    between atoms: C_2  and  C_3
REMARK    3  A    between atoms: C_2  and  O_8
REMARK    4  A    between atoms: C_3  and  C_4
REMARK    5  A    between atoms: C_4  and  C_5
REMARK    6  A    between atoms: C_4  and  C_6
REMARK    7  A    between atoms: C_4  and  O_7
REMARK    8  A    between atoms: O_8  and  C_9
REMARK    9  A    between atoms: C_9  and  O_10
REMARK   10  A    between atoms: C_9  and  C_11
REMARK                            x       y       z     vdW  Elec       q    Type
REMARK                         _______ _______ _______ _____ _____    ______ ____
ROOT
ATOM      1  C   UNL     1       6.222  -2.662  22.792  0.00  0.00    +0.038 C 
ATOM      2  C   UNL     1       7.692  -2.443  22.411  0.00  0.00    +0.121 C 
ENDROOT
BRANCH   2   3
ATOM      3  O   UNL     1       8.549  -3.323  23.144  0.00  0.00    -0.344 OA
BRANCH   3   4
ATOM      4  C   UNL     1       7.898  -4.391  23.849  0.00  0.00    +0.299 C 
BRANCH   4   5
ATOM      5  C   UNL     1       8.297  -4.442  25.390  0.00  0.00    +0.241 C 
ATOM      6 CL   UNL     1       8.285  -2.790  26.127  0.00  0.00    -0.078 Cl
ATOM      7 CL   UNL     1       9.963  -5.105  25.589  0.00  0.00    -0.078 Cl
ATOM      8 CL   UNL     1       7.190  -5.460  26.381  0.00  0.00    -0.078 Cl
ENDBRANCH   4   5
BRANCH   4   9
ATOM      9  O   UNL     1       8.122  -5.617  23.142  0.00  0.00    -0.364 OA
ATOM     10  H   UNL     1       8.298  -6.304  23.810  0.00  0.00    +0.213 HD
ENDBRANCH   4   9
ENDBRANCH   3   4
ENDBRANCH   2   3
BRANCH   2  11
ATOM     11  C   UNL     1       8.067  -0.993  22.766  0.00  0.00    +0.065 C 
BRANCH  11  12
ATOM     12  C   UNL     1       9.470  -0.484  22.361  0.00  0.00    +0.063 C 
ATOM     13  C   UNL     1      10.403  -0.336  23.560  0.00  0.00    +0.041 C 
ATOM     14  C   UNL     1       9.458   0.806  21.542  0.00  0.00    +0.041 C 
BRANCH  12  15
ATOM     15  O   UNL     1      10.045  -1.506  21.528  0.00  0.00    -0.389 OA
ATOM     16  H   UNL     1       9.497  -2.306  21.617  0.00  0.00    +0.210 HD
ENDBRANCH  12  15
ENDBRANCH  11  12
ENDBRANCH   2  11
TORSDOF 7
ENDMDL
MODEL 3
REMARK VINA RESULT:      -4.6      2.535      3.580
REMARK  Name = 
REMARK  10 active torsions:
REMARK  status: ('A' for Active; 'I' for Inactive)
REMARK    1  A    between atoms: C_1  and  C_2
REMARK    2  A    between atoms: C_2  and  C_3
REMARK    3  A    between atoms: C_2  and  O_8
REMARK    4  A    between atoms: C_3  and  C_4
REMARK    5  A    between atoms: C_4  and  C_5
REMARK    6  A    between atoms: C_4  and  C_6
REMARK    7  A    between atoms: C_4  and  O_7
REMARK    8  A    between atoms: O_8  and  C_9
REMARK    9  A    between atoms: C_9  and  O_10
REMARK   10  A    between atoms: C_9  and  C_11
REMARK                            x       y       z     vdW  Elec       q    Type
REMARK                         _______ _______ _______ _____ _____    ______ ____
ROOT
ATOM      1  C   UNL     1       8.551  -1.992  22.273  0.00  0.00    +0.038 C 
ATOM      2  C   UNL     1       8.435  -2.132  23.796  0.00  0.00    +0.121 C 
ENDROOT
BRANCH   2   3
ATOM      3  O   UNL     1       8.562  -0.860  24.440  0.00  0.00    -0.344 OA
BRANCH   3   4
ATOM      4  C   UNL     1       8.349   0.289  23.607  0.00  0.00    +0.299 C 
BRANCH   4   5
ATOM      5  C   UNL     1       9.574   1.307  23.641  0.00  0.00    +0.241 C 
ATOM      6 CL   UNL     1      11.009   0.581  24.469  0.00  0.00    -0.078 Cl
ATOM      7 CL   UNL     1       9.129   2.800  24.550  0.00  0.00    -0.078 Cl
ATOM      8 CL   UNL     1      10.124   1.817  22.004  0.00  0.00    -0.078 Cl
ENDBRANCH   4   5
BRANCH   4   9
ATOM      9  O   UNL     1       7.086   0.877  23.943  0.00  0.00    -0.364 OA
ATOM     10  H   UNL     1       7.026   0.890  24.915  0.00  0.00    +0.213 HD
ENDBRANCH   4   9
ENDBRANCH   3   4
ENDBRANCH   2   3
BRANCH   2  11
ATOM     11  C   UNL     1       9.581  -3.038  24.282  0.00  0.00    +0.065 C 
BRANCH  11  12
ATOM     12  C   UNL     1       9.212  -4.367  24.981  0.00  0.00    +0.063 C 
ATOM     13  C   UNL     1       8.156  -5.155  24.211  0.00  0.00    +0.041 C 
ATOM     14  C   UNL     1       8.793  -4.213  26.442  0.00  0.00    +0.041 C 
BRANCH  12  15
ATOM     15  O   UNL     1      10.404  -5.173  24.968  0.00  0.00    -0.389 OA
ATOM     16  H   UNL     1      10.136  -6.103  25.070  0.00  0.00    +0.210 HD
ENDBRANCH  12  15
ENDBRANCH  11  12
ENDBRANCH   2  11
TORSDOF 7
ENDMDL
MODEL 4
REMARK VINA RESULT:      -4.6      3.180      5.462
REMARK  Name = 
REMARK  10 active torsions:
REMARK  status: ('A' for Active; 'I' for Inactive)
REMARK    1  A    between atoms: C_1  and  C_2
REMARK    2  A    between atoms: C_2  and  C_3
REMARK    3  A    between atoms: C_2  and  O_8
REMARK    4  A    between atoms: C_3  and  C_4
REMARK    5  A    between atoms: C_4  and  C_5
REMARK    6  A    between atoms: C_4  and  C_6
REMARK    7  A    between atoms: C_4  and  O_7
REMARK    8  A    between atoms: O_8  and  C_9
REMARK    9  A    between atoms: C_9  and  O_10
REMARK   10  A    between atoms: C_9  and  C_11
REMARK                            x       y       z     vdW  Elec       q    Type
REMARK                         _______ _______ _______ _____ _____    ______ ____
ROOT
ATOM      1  C   UNL     1       6.119  -1.503  23.959  0.00  0.00    +0.038 C 
ATOM      2  C   UNL     1       7.242  -1.430  22.917  0.00  0.00    +0.121 C 
ENDROOT
BRANCH   2   3
ATOM      3  O   UNL     1       7.397  -2.682  22.241  0.00  0.00    -0.344 OA
BRANCH   3   4
ATOM      4  C   UNL     1       6.296  -3.595  22.350  0.00  0.00    +0.299 C 
BRANCH   4   5
ATOM      5  C   UNL     1       6.710  -4.978  23.025  0.00  0.00    +0.241 C 
ATOM      6 CL   UNL     1       8.267  -4.826  23.931  0.00  0.00    -0.078 Cl
ATOM      7 CL   UNL     1       6.945  -6.248  21.765  0.00  0.00    -0.078 Cl
ATOM      8 CL   UNL     1       5.488  -5.597  24.193  0.00  0.00    -0.078 Cl
ENDBRANCH   4   5
BRANCH   4   9
ATOM      9  O   UNL     1       5.675  -3.730  21.066  0.00  0.00    -0.364 OA
ATOM     10  H   UNL     1       6.078  -3.061  20.482  0.00  0.00    +0.213 HD
ENDBRANCH   4   9
ENDBRANCH   3   4
ENDBRANCH   2   3
BRANCH   2  11
ATOM     11  C   UNL     1       8.556  -1.110  23.652  0.00  0.00    +0.065 C 
BRANCH  11  12
ATOM     12  C   UNL     1       9.754  -0.603  22.815  0.00  0.00    +0.063 C 
ATOM     13  C   UNL     1      10.746   0.203  23.648  0.00  0.00    +0.041 C 
ATOM     14  C   UNL     1       9.359   0.179  21.563  0.00  0.00    +0.041 C 
BRANCH  12  15
ATOM     15  O   UNL     1      10.460  -1.776  22.372  0.00  0.00    -0.389 OA
ATOM     16  H   UNL     1       9.846  -2.530  22.418  0.00  0.00    +0.210 HD
ENDBRANCH  12  15
ENDBRANCH  11  12
ENDBRANCH   2  11
TORSDOF 7
ENDMDL
MODEL 5
REMARK VINA RESULT:      -4.5      3.638      5.237
REMARK  Name = 
REMARK  10 active torsions:
REMARK  status: ('A' for Active; 'I' for Inactive)
REMARK    1  A    between atoms: C_1  and  C_2
REMARK    2  A    between atoms: C_2  and  C_3
REMARK    3  A    between atoms: C_2  and  O_8
REMARK    4  A    between atoms: C_3  and  C_4
REMARK    5  A    between atoms: C_4  and  C_5
REMARK    6  A    between atoms: C_4  and  C_6
REMARK    7  A    between atoms: C_4  and  O_7
REMARK    8  A    between atoms: O_8  and  C_9
REMARK    9  A    between atoms: C_9  and  O_10
REMARK   10  A    between atoms: C_9  and  C_11
REMARK                            x       y       z     vdW  Elec       q    Type
REMARK                         _______ _______ _______ _____ _____    ______ ____
ROOT
ATOM      1  C   UNL     1       6.408  -0.492  24.619  0.00  0.00    +0.038 C 
ATOM      2  C   UNL     1       7.698  -0.803  23.849  0.00  0.00    +0.121 C 
ENDROOT
BRANCH   2   3
ATOM      3  O   UNL     1       8.577  -1.620  24.629  0.00  0.00    -0.344 OA
BRANCH   3   4
ATOM      4  C   UNL     1       8.871  -2.918  24.092  0.00  0.00    +0.299 C 
BRANCH   4   5
ATOM      5  C   UNL     1       8.328  -4.100  25.011  0.00  0.00    +0.241 C 
ATOM      6 CL   UNL     1       6.969  -4.984  24.210  0.00  0.00    -0.078 Cl
ATOM      7 CL   UNL     1       7.696  -3.447  26.570  0.00  0.00    -0.078 Cl
ATOM      8 CL   UNL     1       9.582  -5.328  25.410  0.00  0.00    -0.078 Cl
ENDBRANCH   4   5
BRANCH   4   9
ATOM      9  O   UNL     1      10.272  -2.993  23.802  0.00  0.00    -0.364 OA
ATOM     10  H   UNL     1      10.561  -3.898  24.022  0.00  0.00    +0.213 HD
ENDBRANCH   4   9
ENDBRANCH   3   4
ENDBRANCH   2   3
BRANCH   2  11
ATOM     11  C   UNL     1       8.410   0.529  23.551  0.00  0.00    +0.065 C 
BRANCH  11  12
ATOM     12  C   UNL     1       9.635   0.505  22.608  0.00  0.00    +0.063 C 
ATOM     13  C   UNL     1      10.043   1.902  22.150  0.00  0.00    +0.041 C 
ATOM     14  C   UNL     1       9.480  -0.420  21.402  0.00  0.00    +0.041 C 
BRANCH  12  15
ATOM     15  O   UNL     1      10.734   0.000  23.388  0.00  0.00    -0.389 OA
ATOM     16  H   UNL     1      11.296  -0.534  22.800  0.00  0.00    +0.210 HD
ENDBRANCH  12  15
ENDBRANCH  11  12
ENDBRANCH   2  11
TORSDOF 7
ENDMDL
MODEL 6
REMARK VINA RESULT:      -4.4      3.251      5.277
REMARK  Name = 
REMARK  10 active torsions:
REMARK  status: ('A' for Active; 'I' for Inactive)
REMARK    1  A    between atoms: C_1  and  C_2
REMARK    2  A    between atoms: C_2  and  C_3
REMARK    3  A    between atoms: C_2  and  O_8
REMARK    4  A    between atoms: C_3  and  C_4
REMARK    5  A    between atoms: C_4  and  C_5
REMARK    6  A    between atoms: C_4  and  C_6
REMARK    7  A    between atoms: C_4  and  O_7
REMARK    8  A    between atoms: O_8  and  C_9
REMARK    9  A    between atoms: C_9  and  O_10
REMARK   10  A    between atoms: C_9  and  C_11
REMARK                            x       y       z     vdW  Elec       q    Type
REMARK                         _______ _______ _______ _____ _____    ______ ____
ROOT
ATOM      1  C   UNL     1       8.641  -1.682  26.264  0.00  0.00    +0.038 C 
ATOM      2  C   UNL     1       8.345  -2.293  24.889  0.00  0.00    +0.121 C 
ENDROOT
BRANCH   2   3
ATOM      3  O   UNL     1       7.988  -3.674  25.007  0.00  0.00    -0.344 OA
BRANCH   3   4
ATOM      4  C   UNL     1       8.205  -4.481  23.841  0.00  0.00    +0.299 C 
BRANCH   4   5
ATOM      5  C   UNL     1       6.847  -4.882  23.110  0.00  0.00    +0.241 C 
ATOM      6 CL   UNL     1       6.166  -3.490  22.178  0.00  0.00    -0.078 Cl
ATOM      7 CL   UNL     1       5.603  -5.376  24.320  0.00  0.00    -0.078 Cl
ATOM      8 CL   UNL     1       7.037  -6.242  21.946  0.00  0.00    -0.078 Cl
ENDBRANCH   4   5
BRANCH   4   9
ATOM      9  O   UNL     1       9.033  -5.595  24.195  0.00  0.00    -0.364 OA
ATOM     10  H   UNL     1       8.473  -6.392  24.156  0.00  0.00    +0.213 HD
ENDBRANCH   4   9
ENDBRANCH   3   4
ENDBRANCH   2   3
BRANCH   2  11
ATOM     11  C   UNL     1       9.623  -2.194  24.036  0.00  0.00    +0.065 C 
BRANCH  11  12
ATOM     12  C   UNL     1       9.707  -1.067  22.981  0.00  0.00    +0.063 C 
ATOM     13  C   UNL     1      10.569   0.104  23.448  0.00  0.00    +0.041 C 
ATOM     14  C   UNL     1       8.351  -0.561  22.492  0.00  0.00    +0.041 C 
BRANCH  12  15
ATOM     15  O   UNL     1      10.382  -1.632  21.842  0.00  0.00    -0.389 OA
ATOM     16  H   UNL     1      11.329  -1.426  21.924  0.00  0.00    +0.210 HD
ENDBRANCH  12  15
ENDBRANCH  11  12
ENDBRANCH   2  11
TORSDOF 7
ENDMDL
MODEL 7
REMARK VINA RESULT:      -4.4      1.498      2.960
REMARK  Name = 
REMARK  10 active torsions:
REMARK  status: ('A' for Active; 'I' for Inactive)
REMARK    1  A    between atoms: C_1  and  C_2
REMARK    2  A    between atoms: C_2  and  C_3
REMARK    3  A    between atoms: C_2  and  O_8
REMARK    4  A    between atoms: C_3  and  C_4
REMARK    5  A    between atoms: C_4  and  C_5
REMARK    6  A    between atoms: C_4  and  C_6
REMARK    7  A    between atoms: C_4  and  O_7
REMARK    8  A    between atoms: O_8  and  C_9
REMARK    9  A    between atoms: C_9  and  O_10
REMARK   10  A    between atoms: C_9  and  C_11
REMARK                            x       y       z     vdW  Elec       q    Type
REMARK                         _______ _______ _______ _____ _____    ______ ____
ROOT
ATOM      1  C   UNL     1       5.822  -2.771  22.650  0.00  0.00    +0.038 C 
ATOM      2  C   UNL     1       7.282  -2.610  23.091  0.00  0.00    +0.121 C 
ENDROOT
BRANCH   2   3
ATOM      3  O   UNL     1       8.048  -1.933  22.089  0.00  0.00    -0.344 OA
BRANCH   3   4
ATOM      4  C   UNL     1       9.287  -1.357  22.528  0.00  0.00    +0.299 C 
BRANCH   4   5
ATOM      5  C   UNL     1       9.131   0.163  22.979  0.00  0.00    +0.241 C 
ATOM      6 CL   UNL     1      10.034   1.273  21.873  0.00  0.00    -0.078 Cl
ATOM      7 CL   UNL     1       9.800   0.400  24.638  0.00  0.00    -0.078 Cl
ATOM      8 CL   UNL     1       7.422   0.730  23.002  0.00  0.00    -0.078 Cl
ENDBRANCH   4   5
BRANCH   4   9
ATOM      9  O   UNL     1      10.282  -1.572  21.519  0.00  0.00    -0.364 OA
ATOM     10  H   UNL     1       9.932  -1.202  20.689  0.00  0.00    +0.213 HD
ENDBRANCH   4   9
ENDBRANCH   3   4
ENDBRANCH   2   3
BRANCH   2  11
ATOM     11  C   UNL     1       7.879  -4.015  23.291  0.00  0.00    +0.065 C 
BRANCH  11  12
ATOM     12  C   UNL     1       8.244  -4.452  24.728  0.00  0.00    +0.063 C 
ATOM     13  C   UNL     1       7.117  -5.229  25.403  0.00  0.00    +0.041 C 
ATOM     14  C   UNL     1       8.713  -3.313  25.632  0.00  0.00    +0.041 C 
BRANCH  12  15
ATOM     15  O   UNL     1       9.345  -5.370  24.603  0.00  0.00    -0.389 OA
ATOM     16  H   UNL     1       8.977  -6.258  24.452  0.00  0.00    +0.210 HD
ENDBRANCH  12  15
ENDBRANCH  11  12
ENDBRANCH   2  11
TORSDOF 7
ENDMDL
MODEL 8
REMARK VINA RESULT:      -4.4      3.216      5.461
REMARK  Name = 
REMARK  10 active torsions:
REMARK  status: ('A' for Active; 'I' for Inactive)
REMARK    1  A    between atoms: C_1  and  C_2
REMARK    2  A    between atoms: C_2  and  C_3
REMARK    3  A    between atoms: C_2  and  O_8
REMARK    4  A    between atoms: C_3  and  C_4
REMARK    5  A    between atoms: C_4  and  C_5
REMARK    6  A    between atoms: C_4  and  C_6
REMARK    7  A    between atoms: C_4  and  O_7
REMARK    8  A    between atoms: O_8  and  C_9
REMARK    9  A    between atoms: C_9  and  O_10
REMARK   10  A    between atoms: C_9  and  C_11
REMARK                            x       y       z     vdW  Elec       q    Type
REMARK                         _______ _______ _______ _____ _____    ______ ____
ROOT
ATOM      1  C   UNL     1       9.498  -1.356  21.690  0.00  0.00    +0.038 C 
ATOM      2  C   UNL     1      10.063  -0.617  22.910  0.00  0.00    +0.121 C 
ENDROOT
BRANCH   2   3
ATOM      3  O   UNL     1      10.051  -1.455  24.069  0.00  0.00    -0.344 OA
BRANCH   3   4
ATOM      4  C   UNL     1       9.213  -2.618  23.995  0.00  0.00    +0.299 C 
BRANCH   4   5
ATOM      5  C   UNL     1       7.893  -2.480  24.877  0.00  0.00    +0.241 C 
ATOM      6 CL   UNL     1       6.520  -1.817  23.905  0.00  0.00    -0.078 Cl
ATOM      7 CL   UNL     1       8.171  -1.347  26.254  0.00  0.00    -0.078 Cl
ATOM      8 CL   UNL     1       7.331  -4.043  25.571  0.00  0.00    -0.078 Cl
ENDBRANCH   4   5
BRANCH   4   9
ATOM      9  O   UNL     1      10.001  -3.777  24.292  0.00  0.00    -0.364 OA
ATOM     10  H   UNL     1       9.395  -4.541  24.293  0.00  0.00    +0.213 HD
ENDBRANCH   4   9
ENDBRANCH   3   4
ENDBRANCH   2   3
BRANCH   2  11
ATOM     11  C   UNL     1       9.169   0.606  23.185  0.00  0.00    +0.065 C 
BRANCH  11  12
ATOM     12  C   UNL     1       9.688   1.680  24.168  0.00  0.00    +0.063 C 
ATOM     13  C   UNL     1       8.558   2.348  24.948  0.00  0.00    +0.041 C 
ATOM     14  C   UNL     1      10.582   2.739  23.526  0.00  0.00    +0.041 C 
BRANCH  12  15
ATOM     15  O   UNL     1      10.490   0.985  25.139  0.00  0.00    -0.389 OA
ATOM     16  H   UNL     1      11.410   1.285  25.037  0.00  0.00    +0.210 HD
ENDBRANCH  12  15
ENDBRANCH  11  12
ENDBRANCH   2  11
TORSDOF 7
ENDMDL
MODEL 9
REMARK VINA RESULT:      -4.4      2.255      3.134
REMARK  Name = 
REMARK  10 active torsions:
REMARK  status: ('A' for Active; 'I' for Inactive)
REMARK    1  A    between atoms: C_1  and  C_2
REMARK    2  A    between atoms: C_2  and  C_3
REMARK    3  A    between atoms: C_2  and  O_8
REMARK    4  A    between atoms: C_3  and  C_4
REMARK    5  A    between atoms: C_4  and  C_5
REMARK    6  A    between atoms: C_4  and  C_6
REMARK    7  A    between atoms: C_4  and  O_7
REMARK    8  A    between atoms: O_8  and  C_9
REMARK    9  A    between atoms: C_9  and  O_10
REMARK   10  A    between atoms: C_9  and  C_11
REMARK                            x       y       z     vdW  Elec       q    Type
REMARK                         _______ _______ _______ _____ _____    ______ ____
ROOT
ATOM      1  C   UNL     1       9.645  -1.341  21.846  0.00  0.00    +0.038 C 
ATOM      2  C   UNL     1       8.303  -0.842  22.396  0.00  0.00    +0.121 C 
ENDROOT
BRANCH   2   3
ATOM      3  O   UNL     1       8.324   0.576  22.593  0.00  0.00    -0.344 OA
BRANCH   3   4
ATOM      4  C   UNL     1       9.602   1.212  22.443  0.00  0.00    +0.299 C 
BRANCH   4   5
ATOM      5  C   UNL     1      10.121   1.872  23.796  0.00  0.00    +0.241 C 
ATOM      6 CL   UNL     1      11.129   3.337  23.469  0.00  0.00    -0.078 Cl
ATOM      7 CL   UNL     1      11.151   0.706  24.711  0.00  0.00    -0.078 Cl
ATOM      8 CL   UNL     1       8.792   2.392  24.894  0.00  0.00    -0.078 Cl
ENDBRANCH   4   5
BRANCH   4   9
ATOM      9  O   UNL     1       9.542   2.116  21.332  0.00  0.00    -0.364 OA
ATOM     10  H   UNL     1       8.780   2.704  21.483  0.00  0.00    +0.213 HD
ENDBRANCH   4   9
ENDBRANCH   3   4
ENDBRANCH   2   3
BRANCH   2  11
ATOM     11  C   UNL     1       8.064  -1.517  23.759  0.00  0.00    +0.065 C 
BRANCH  11  12
ATOM     12  C   UNL     1       7.088  -2.715  23.816  0.00  0.00    +0.063 C 
ATOM     13  C   UNL     1       7.811  -4.057  23.741  0.00  0.00    +0.041 C 
ATOM     14  C   UNL     1       5.967  -2.662  22.779  0.00  0.00    +0.041 C 
BRANCH  12  15
ATOM     15  O   UNL     1       6.465  -2.666  25.112  0.00  0.00    -0.389 OA
ATOM     16  H   UNL     1       5.875  -3.436  25.189  0.00  0.00    +0.210 HD
ENDBRANCH  12  15
ENDBRANCH  11  12
ENDBRANCH   2  11
TORSDOF 7
ENDMDL
