MODEL 1
REMARK VINA RESULT:      -5.6      0.000      0.000
REMARK  Name = 
REMARK  7 active torsions:
REMARK  status: ('A' for Active; 'I' for Inactive)
REMARK    1  A    between atoms: C_4  and  C_6
REMARK    2  A    between atoms: C_6  and  O_7
REMARK    3  A    between atoms: C_8  and  O_10
REMARK    4  A    between atoms: C_11  and  O_13
REMARK    5  A    between atoms: C_17  and  C_18
REMARK    6  A    between atoms: C_18  and  C_19
REMARK    7  A    between atoms: C_19  and  C_20
REMARK                            x       y       z     vdW  Elec       q    Type
REMARK                         _______ _______ _______ _____ _____    ______ ____
ROOT
ATOM      1  C   UNL     1       8.067  -2.652  25.153  0.00  0.00    +0.209 C 
ATOM      2  S   UNL     1       8.060  -1.208  24.066  0.00  0.00    -0.077 S 
ATOM      3  C   UNL     1       9.460  -1.800  23.217  0.00  0.00    +0.072 C 
ATOM      4  N   UNL     1      10.087  -2.824  23.698  0.00  0.00    -0.272 NA
ATOM      5  C   UNL     1       9.498  -3.198  25.007  0.00  0.00    +0.176 C 
ATOM      6  C   UNL     1       9.636  -4.713  25.250  0.00  0.00    +0.173 C 
ATOM      7  C   UNL     1       8.388  -5.517  24.863  0.00  0.00    +0.176 C 
ATOM      8  C   UNL     1       7.109  -4.836  25.382  0.00  0.00    +0.176 C 
ATOM      9  O   UNL     1       7.001  -3.532  24.805  0.00  0.00    -0.355 OA
ENDROOT
BRANCH   6  10
ATOM     10  O   UNL     1       9.966  -4.893  26.641  0.00  0.00    -0.387 OA
ATOM     11  H   UNL     1      10.662  -4.259  26.897  0.00  0.00    +0.210 HD
ENDBRANCH   6  10
BRANCH   7  12
ATOM     12  O   UNL     1       8.331  -5.650  23.437  0.00  0.00    -0.387 OA
ATOM     13  H   UNL     1       7.553  -6.186  23.201  0.00  0.00    +0.210 HD
ENDBRANCH   7  12
BRANCH   3  14
ATOM     14  C   UNL     1       9.919  -1.059  21.991  0.00  0.00    +0.062 C 
BRANCH  14  15
ATOM     15  C   UNL     1       9.120   0.215  21.731  0.00  0.00    +0.003 C 
ATOM     16  C   UNL     1       9.936   1.472  21.977  0.00  0.00    +0.004 C 
ENDBRANCH  14  15
ENDBRANCH   3  14
BRANCH   8  17
ATOM     17  C   UNL     1       6.971  -4.825  26.915  0.00  0.00    +0.190 C 
BRANCH  17  18
ATOM     18  O   UNL     1       7.511  -6.011  27.486  0.00  0.00    -0.392 OA
ATOM     19  H   UNL     1       8.478  -5.900  27.534  0.00  0.00    +0.210 HD
ENDBRANCH  17  18
ENDBRANCH   8  17
TORSDOF 6
ENDMDL
MODEL 2
REMARK VINA RESULT:      -5.4      1.265      1.357
REMARK  Name = 
REMARK  7 active torsions:
REMARK  status: ('A' for Active; 'I' for Inactive)
REMARK    1  A    between atoms: C_4  and  C_6
REMARK    2  A    between atoms: C_6  and  O_7
REMARK    3  A    between atoms: C_8  and  O_10
REMARK    4  A    between atoms: C_11  and  O_13
REMARK    5  A    between atoms: C_17  and  C_18
REMARK    6  A    between atoms: C_18  and  C_19
REMARK    7  A    between atoms: C_19  and  C_20
REMARK                            x       y       z     vdW  Elec       q    Type
REMARK                         _______ _______ _______ _____ _____    ______ ____
ROOT
ATOM      1  C   UNL     1       7.304  -3.278  23.974  0.00  0.00    +0.209 C 
ATOM      2  S   UNL     1       7.659  -2.234  22.541  0.00  0.00    -0.077 S 
ATOM      3  C   UNL     1       9.269  -1.924  23.125  0.00  0.00    +0.072 C 
ATOM      4  N   UNL     1       9.578  -2.310  24.320  0.00  0.00    -0.272 NA
ATOM      5  C   UNL     1       8.373  -2.852  24.995  0.00  0.00    +0.176 C 
ATOM      6  C   UNL     1       8.765  -3.943  26.009  0.00  0.00    +0.173 C 
ATOM      7  C   UNL     1       8.656  -5.369  25.454  0.00  0.00    +0.176 C 
ATOM      8  C   UNL     1       7.337  -5.564  24.686  0.00  0.00    +0.176 C 
ATOM      9  O   UNL     1       7.289  -4.650  23.589  0.00  0.00    -0.355 OA
ENDROOT
BRANCH   6  10
ATOM     10  O   UNL     1       7.929  -3.766  27.170  0.00  0.00    -0.387 OA
ATOM     11  H   UNL     1       7.416  -4.580  27.330  0.00  0.00    +0.210 HD
ENDBRANCH   6  10
BRANCH   7  12
ATOM     12  O   UNL     1       9.770  -5.631  24.592  0.00  0.00    -0.387 OA
ATOM     13  H   UNL     1       9.987  -4.819  24.100  0.00  0.00    +0.210 HD
ENDBRANCH   7  12
BRANCH   3  14
ATOM     14  C   UNL     1      10.218  -1.164  22.238  0.00  0.00    +0.062 C 
BRANCH  14  15
ATOM     15  C   UNL     1       9.537  -0.038  21.465  0.00  0.00    +0.003 C 
ATOM     16  C   UNL     1       9.907   1.336  21.996  0.00  0.00    +0.004 C 
ENDBRANCH  14  15
ENDBRANCH   3  14
BRANCH   8  17
ATOM     17  C   UNL     1       6.074  -5.509  25.566  0.00  0.00    +0.190 C 
BRANCH  17  18
ATOM     18  O   UNL     1       6.236  -6.292  26.743  0.00  0.00    -0.392 OA
ATOM     19  H   UNL     1       6.957  -6.926  26.577  0.00  0.00    +0.210 HD
ENDBRANCH  17  18
ENDBRANCH   8  17
TORSDOF 6
ENDMDL
MODEL 3
REMARK VINA RESULT:      -5.4      3.198      5.341
REMARK  Name = 
REMARK  7 active torsions:
REMARK  status: ('A' for Active; 'I' for Inactive)
REMARK    1  A    between atoms: C_4  and  C_6
REMARK    2  A    between atoms: C_6  and  O_7
REMARK    3  A    between atoms: C_8  and  O_10
REMARK    4  A    between atoms: C_11  and  O_13
REMARK    5  A    between atoms: C_17  and  C_18
REMARK    6  A    between atoms: C_18  and  C_19
REMARK    7  A    between atoms: C_19  and  C_20
REMARK                            x       y       z     vdW  Elec       q    Type
REMARK                         _______ _______ _______ _____ _____    ______ ____
ROOT
ATOM      1  C   UNL     1       8.539  -2.716  24.321  0.00  0.00    +0.209 C 
ATOM      2  S   UNL     1       8.260  -4.502  24.311  0.00  0.00    -0.077 S 
ATOM      3  C   UNL     1       7.582  -4.420  22.710  0.00  0.00    +0.072 C 
ATOM      4  N   UNL     1       7.338  -3.256  22.202  0.00  0.00    -0.272 NA
ATOM      5  C   UNL     1       7.599  -2.205  23.215  0.00  0.00    +0.176 C 
ATOM      6  C   UNL     1       8.053  -0.899  22.537  0.00  0.00    +0.173 C 
ATOM      7  C   UNL     1       9.577  -0.726  22.488  0.00  0.00    +0.176 C 
ATOM      8  C   UNL     1      10.216  -1.073  23.844  0.00  0.00    +0.176 C 
ATOM      9  O   UNL     1       9.928  -2.436  24.168  0.00  0.00    -0.355 OA
ENDROOT
BRANCH   6  10
ATOM     10  O   UNL     1       7.424   0.189  23.242  0.00  0.00    -0.387 OA
ATOM     11  H   UNL     1       7.599   1.027  22.774  0.00  0.00    +0.210 HD
ENDBRANCH   6  10
BRANCH   7  12
ATOM     12  O   UNL     1      10.118  -1.566  21.460  0.00  0.00    -0.387 OA
ATOM     13  H   UNL     1       9.419  -2.161  21.138  0.00  0.00    +0.210 HD
ENDBRANCH   7  12
BRANCH   3  14
ATOM     14  C   UNL     1       7.250  -5.708  22.008  0.00  0.00    +0.062 C 
BRANCH  14  15
ATOM     15  C   UNL     1       5.770  -5.831  21.658  0.00  0.00    +0.003 C 
ATOM     16  C   UNL     1       4.879  -5.808  22.889  0.00  0.00    +0.004 C 
ENDBRANCH  14  15
ENDBRANCH   3  14
BRANCH   8  17
ATOM     17  C   UNL     1       9.861  -0.100  24.983  0.00  0.00    +0.190 C 
BRANCH  17  18
ATOM     18  O   UNL     1       9.976   1.252  24.556  0.00  0.00    -0.392 OA
ATOM     19  H   UNL     1       9.600   1.815  25.256  0.00  0.00    +0.210 HD
ENDBRANCH  17  18
ENDBRANCH   8  17
TORSDOF 6
ENDMDL
MODEL 4
REMARK VINA RESULT:      -5.3      2.949      5.867
REMARK  Name = 
REMARK  7 active torsions:
REMARK  status: ('A' for Active; 'I' for Inactive)
REMARK    1  A    between atoms: C_4  and  C_6
REMARK    2  A    between atoms: C_6  and  O_7
REMARK    3  A    between atoms: C_8  and  O_10
REMARK    4  A    between atoms: C_11  and  O_13
REMARK    5  A    between atoms: C_17  and  C_18
REMARK    6  A    between atoms: C_18  and  C_19
REMARK    7  A    between atoms: C_19  and  C_20
REMARK                            x       y       z     vdW  Elec       q    Type
REMARK                         _______ _______ _______ _____ _____    ______ ____
ROOT
ATOM      1  C   UNL     1       7.846  -1.235  23.716  0.00  0.00    +0.209 C 
ATOM      2  S   UNL     1       7.155  -2.330  24.978  0.00  0.00    -0.077 S 
ATOM      3  C   UNL     1       8.680  -3.153  25.145  0.00  0.00    +0.072 C 
ATOM      4  N   UNL     1       9.618  -2.895  24.292  0.00  0.00    -0.272 NA
ATOM      5  C   UNL     1       9.096  -1.992  23.237  0.00  0.00    +0.176 C 
ATOM      6  C   UNL     1      10.221  -1.094  22.687  0.00  0.00    +0.173 C 
ATOM      7  C   UNL     1      10.279   0.292  23.342  0.00  0.00    +0.176 C 
ATOM      8  C   UNL     1       8.875   0.912  23.451  0.00  0.00    +0.176 C 
ATOM      9  O   UNL     1       8.048   0.069  24.256  0.00  0.00    -0.355 OA
ENDROOT
BRANCH   6  10
ATOM     10  O   UNL     1      10.029  -0.994  21.263  0.00  0.00    -0.387 OA
ATOM     11  H   UNL     1       9.178  -0.555  21.077  0.00  0.00    +0.210 HD
ENDBRANCH   6  10
BRANCH   7  12
ATOM     12  O   UNL     1      10.869   0.179  24.644  0.00  0.00    -0.387 OA
ATOM     13  H   UNL     1      10.817  -0.748  24.935  0.00  0.00    +0.210 HD
ENDBRANCH   7  12
BRANCH   3  14
ATOM     14  C   UNL     1       8.825  -4.176  26.239  0.00  0.00    +0.062 C 
BRANCH  14  15
ATOM     15  C   UNL     1       7.797  -5.300  26.141  0.00  0.00    +0.003 C 
ATOM     16  C   UNL     1       6.898  -5.371  27.363  0.00  0.00    +0.004 C 
ENDBRANCH  14  15
ENDBRANCH   3  14
BRANCH   8  17
ATOM     17  C   UNL     1       8.230   1.268  22.099  0.00  0.00    +0.190 C 
BRANCH  17  18
ATOM     18  O   UNL     1       9.155   1.938  21.252  0.00  0.00    -0.392 OA
ATOM     19  H   UNL     1       9.513   1.280  20.628  0.00  0.00    +0.210 HD
ENDBRANCH  17  18
ENDBRANCH   8  17
TORSDOF 6
ENDMDL
MODEL 5
REMARK VINA RESULT:      -5.3      3.866      6.321
REMARK  Name = 
REMARK  7 active torsions:
REMARK  status: ('A' for Active; 'I' for Inactive)
REMARK    1  A    between atoms: C_4  and  C_6
REMARK    2  A    between atoms: C_6  and  O_7
REMARK    3  A    between atoms: C_8  and  O_10
REMARK    4  A    between atoms: C_11  and  O_13
REMARK    5  A    between atoms: C_17  and  C_18
REMARK    6  A    between atoms: C_18  and  C_19
REMARK    7  A    between atoms: C_19  and  C_20
REMARK                            x       y       z     vdW  Elec       q    Type
REMARK                         _______ _______ _______ _____ _____    ______ ____
ROOT
ATOM      1  C   UNL     1       7.728   0.653  23.212  0.00  0.00    +0.209 C 
ATOM      2  S   UNL     1       6.792  -0.879  23.424  0.00  0.00    -0.077 S 
ATOM      3  C   UNL     1       8.159  -1.824  22.905  0.00  0.00    +0.072 C 
ATOM      4  N   UNL     1       9.183  -1.208  22.409  0.00  0.00    -0.272 NA
ATOM      5  C   UNL     1       8.880   0.238  22.281  0.00  0.00    +0.176 C 
ATOM      6  C   UNL     1      10.164   1.077  22.432  0.00  0.00    +0.173 C 
ATOM      7  C   UNL     1      10.385   1.615  23.852  0.00  0.00    +0.176 C 
ATOM      8  C   UNL     1       9.087   2.208  24.427  0.00  0.00    +0.176 C 
ATOM      9  O   UNL     1       8.087   1.188  24.484  0.00  0.00    -0.355 OA
ENDROOT
BRANCH   6  10
ATOM     10  O   UNL     1      10.090   2.147  21.470  0.00  0.00    -0.387 OA
ATOM     11  H   UNL     1       9.222   2.128  21.026  0.00  0.00    +0.210 HD
ENDBRANCH   6  10
BRANCH   7  12
ATOM     12  O   UNL     1      10.858   0.556  24.694  0.00  0.00    -0.387 OA
ATOM     13  H   UNL     1      10.908   0.879  25.611  0.00  0.00    +0.210 HD
ENDBRANCH   7  12
BRANCH   3  14
ATOM     14  C   UNL     1       8.070  -3.322  22.999  0.00  0.00    +0.062 C 
BRANCH  14  15
ATOM     15  C   UNL     1       6.945  -3.905  22.148  0.00  0.00    +0.003 C 
ATOM     16  C   UNL     1       7.085  -5.405  21.951  0.00  0.00    +0.004 C 
ENDBRANCH  14  15
ENDBRANCH   3  14
BRANCH   8  17
ATOM     17  C   UNL     1       8.600   3.484  23.716  0.00  0.00    +0.190 C 
BRANCH  17  18
ATOM     18  O   UNL     1       9.691   4.340  23.398  0.00  0.00    -0.392 OA
ATOM     19  H   UNL     1       9.558   4.659  22.487  0.00  0.00    +0.210 HD
ENDBRANCH  17  18
ENDBRANCH   8  17
TORSDOF 6
ENDMDL
MODEL 6
REMARK VINA RESULT:      -5.2      3.154      5.887
REMARK  Name = 
REMARK  7 active torsions:
REMARK  status: ('A' for Active; 'I' for Inactive)
REMARK    1  A    between atoms: C_4  and  C_6
REMARK    2  A    between atoms: C_6  and  O_7
REMARK    3  A    between atoms: C_8  and  O_10
REMARK    4  A    between atoms: C_11  and  O_13
REMARK    5  A    between atoms: C_17  and  C_18
REMARK    6  A    between atoms: C_18  and  C_19
REMARK    7  A    between atoms: C_19  and  C_20
REMARK                            x       y       z     vdW  Elec       q    Type
REMARK                         _______ _______ _______ _____ _____    ______ ____
ROOT
ATOM      1  C   UNL     1       8.977  -0.025  25.067  0.00  0.00    +0.209 C 
ATOM      2  S   UNL     1       8.763  -0.978  26.588  0.00  0.00    -0.077 S 
ATOM      3  C   UNL     1       8.059  -2.299  25.701  0.00  0.00    +0.072 C 
ATOM      4  N   UNL     1       7.766  -2.119  24.454  0.00  0.00    -0.272 NA
ATOM      5  C   UNL     1       8.003  -0.702  24.086  0.00  0.00    +0.176 C 
ATOM      6  C   UNL     1       8.399  -0.586  22.602  0.00  0.00    +0.173 C 
ATOM      7  C   UNL     1       9.915  -0.525  22.372  0.00  0.00    +0.176 C 
ATOM      8  C   UNL     1      10.586   0.448  23.357  0.00  0.00    +0.176 C 
ATOM      9  O   UNL     1      10.352   0.003  24.695  0.00  0.00    -0.355 OA
ENDROOT
BRANCH   6  10
ATOM     10  O   UNL     1       7.741   0.583  22.075  0.00  0.00    -0.387 OA
ATOM     11  H   UNL     1       8.373   1.104  21.547  0.00  0.00    +0.210 HD
ENDBRANCH   6  10
BRANCH   7  12
ATOM     12  O   UNL     1      10.472  -1.837  22.521  0.00  0.00    -0.387 OA
ATOM     13  H   UNL     1      10.969  -1.877  23.357  0.00  0.00    +0.210 HD
ENDBRANCH   7  12
BRANCH   3  14
ATOM     14  C   UNL     1       7.765  -3.578  26.436  0.00  0.00    +0.062 C 
BRANCH  14  15
ATOM     15  C   UNL     1       8.979  -4.496  26.544  0.00  0.00    +0.003 C 
ATOM     16  C   UNL     1       9.182  -5.338  25.296  0.00  0.00    +0.004 C 
ENDBRANCH  14  15
ENDBRANCH   3  14
BRANCH   8  17
ATOM     17  C   UNL     1      10.211   1.927  23.145  0.00  0.00    +0.190 C 
BRANCH  17  18
ATOM     18  O   UNL     1      10.233   2.267  21.764  0.00  0.00    -0.392 OA
ATOM     19  H   UNL     1      11.084   2.707  21.583  0.00  0.00    +0.210 HD
ENDBRANCH  17  18
ENDBRANCH   8  17
TORSDOF 6
ENDMDL
MODEL 7
REMARK VINA RESULT:      -5.2      2.532      3.451
REMARK  Name = 
REMARK  7 active torsions:
REMARK  status: ('A' for Active; 'I' for Inactive)
REMARK    1  A    between atoms: C_4  and  C_6
REMARK    2  A    between atoms: C_6  and  O_7
REMARK    3  A    between atoms: C_8  and  O_10
REMARK    4  A    between atoms: C_11  and  O_13
REMARK    5  A    between atoms: C_17  and  C_18
REMARK    6  A    between atoms: C_18  and  C_19
REMARK    7  A    between atoms: C_19  and  C_20
REMARK                            x       y       z     vdW  Elec       q    Type
REMARK                         _______ _______ _______ _____ _____    ______ ____
ROOT
ATOM      1  C   UNL     1       7.113  -4.959  24.729  0.00  0.00    +0.209 C 
ATOM      2  S   UNL     1       8.244  -3.725  25.413  0.00  0.00    -0.077 S 
ATOM      3  C   UNL     1       8.508  -3.044  23.833  0.00  0.00    +0.072 C 
ATOM      4  N   UNL     1       8.045  -3.676  22.803  0.00  0.00    -0.272 NA
ATOM      5  C   UNL     1       7.468  -4.973  23.232  0.00  0.00    +0.176 C 
ATOM      6  C   UNL     1       6.313  -5.387  22.301  0.00  0.00    +0.173 C 
ATOM      7  C   UNL     1       4.925  -5.002  22.831  0.00  0.00    +0.176 C 
ATOM      8  C   UNL     1       4.786  -5.354  24.322  0.00  0.00    +0.176 C 
ATOM      9  O   UNL     1       5.768  -4.634  25.071  0.00  0.00    -0.355 OA
ENDROOT
BRANCH   6  10
ATOM     10  O   UNL     1       6.421  -6.809  22.094  0.00  0.00    -0.387 OA
ATOM     11  H   UNL     1       7.304  -7.022  21.740  0.00  0.00    +0.210 HD
ENDBRANCH   6  10
BRANCH   7  12
ATOM     12  O   UNL     1       4.713  -3.598  22.634  0.00  0.00    -0.387 OA
ATOM     13  H   UNL     1       3.757  -3.431  22.557  0.00  0.00    +0.210 HD
ENDBRANCH   7  12
BRANCH   3  14
ATOM     14  C   UNL     1       9.317  -1.780  23.725  0.00  0.00    +0.062 C 
BRANCH  14  15
ATOM     15  C   UNL     1       9.996  -1.623  22.368  0.00  0.00    +0.003 C 
ATOM     16  C   UNL     1       9.450  -0.446  21.578  0.00  0.00    +0.004 C 
ENDBRANCH  14  15
ENDBRANCH   3  14
BRANCH   8  17
ATOM     17  C   UNL     1       4.792  -6.863  24.624  0.00  0.00    +0.190 C 
BRANCH  17  18
ATOM     18  O   UNL     1       3.956  -7.570  23.715  0.00  0.00    -0.392 OA
ATOM     19  H   UNL     1       4.483  -7.757  22.917  0.00  0.00    +0.210 HD
ENDBRANCH  17  18
ENDBRANCH   8  17
TORSDOF 6
ENDMDL
MODEL 8
REMARK VINA RESULT:      -5.2      2.883      4.028
REMARK  Name = 
REMARK  7 active torsions:
REMARK  status: ('A' for Active; 'I' for Inactive)
REMARK    1  A    between atoms: C_4  and  C_6
REMARK    2  A    between atoms: C_6  and  O_7
REMARK    3  A    between atoms: C_8  and  O_10
REMARK    4  A    between atoms: C_11  and  O_13
REMARK    5  A    between atoms: C_17  and  C_18
REMARK    6  A    between atoms: C_18  and  C_19
REMARK    7  A    between atoms: C_19  and  C_20
REMARK                            x       y       z     vdW  Elec       q    Type
REMARK                         _______ _______ _______ _____ _____    ______ ____
ROOT
ATOM      1  C   UNL     1       8.508  -0.142  24.215  0.00  0.00    +0.209 C 
ATOM      2  S   UNL     1       8.606   1.627  24.574  0.00  0.00    -0.077 S 
ATOM      3  C   UNL     1      10.190   1.717  23.858  0.00  0.00    +0.072 C 
ATOM      4  N   UNL     1      10.787   0.615  23.537  0.00  0.00    -0.272 NA
ATOM      5  C   UNL     1       9.978  -0.541  23.995  0.00  0.00    +0.176 C 
ATOM      6  C   UNL     1      10.184  -1.750  23.063  0.00  0.00    +0.173 C 
ATOM      7  C   UNL     1       9.107  -1.884  21.979  0.00  0.00    +0.176 C 
ATOM      8  C   UNL     1       7.700  -1.684  22.568  0.00  0.00    +0.176 C 
ATOM      9  O   UNL     1       7.607  -0.374  23.134  0.00  0.00    -0.355 OA
ENDROOT
BRANCH   6  10
ATOM     10  O   UNL     1      10.240  -2.925  23.896  0.00  0.00    -0.387 OA
ATOM     11  H   UNL     1      10.571  -3.680  23.374  0.00  0.00    +0.210 HD
ENDBRANCH   6  10
BRANCH   7  12
ATOM     12  O   UNL     1       9.350  -0.920  20.946  0.00  0.00    -0.387 OA
ATOM     13  H   UNL     1      10.307  -0.759  20.882  0.00  0.00    +0.210 HD
ENDBRANCH   7  12
BRANCH   3  14
ATOM     14  C   UNL     1      10.827   3.071  23.699  0.00  0.00    +0.062 C 
BRANCH  14  15
ATOM     15  C   UNL     1       9.824   4.216  23.806  0.00  0.00    +0.003 C 
ATOM     16  C   UNL     1      10.498   5.577  23.827  0.00  0.00    +0.004 C 
ENDBRANCH  14  15
ENDBRANCH   3  14
BRANCH   8  17
ATOM     17  C   UNL     1       7.255  -2.789  23.543  0.00  0.00    +0.190 C 
BRANCH  17  18
ATOM     18  O   UNL     1       7.596  -4.078  23.045  0.00  0.00    -0.392 OA
ATOM     19  H   UNL     1       6.967  -4.716  23.428  0.00  0.00    +0.210 HD
ENDBRANCH  17  18
ENDBRANCH   8  17
TORSDOF 6
ENDMDL
MODEL 9
REMARK VINA RESULT:      -5.0      3.053      5.268
REMARK  Name = 
REMARK  7 active torsions:
REMARK  status: ('A' for Active; 'I' for Inactive)
REMARK    1  A    between atoms: C_4  and  C_6
REMARK    2  A    between atoms: C_6  and  O_7
REMARK    3  A    between atoms: C_8  and  O_10
REMARK    4  A    between atoms: C_11  and  O_13
REMARK    5  A    between atoms: C_17  and  C_18
REMARK    6  A    between atoms: C_18  and  C_19
REMARK    7  A    between atoms: C_19  and  C_20
REMARK                            x       y       z     vdW  Elec       q    Type
REMARK                         _______ _______ _______ _____ _____    ______ ____
ROOT
ATOM      1  C   UNL     1       7.666  -0.720  23.770  0.00  0.00    +0.209 C 
ATOM      2  S   UNL     1       6.039  -1.288  24.315  0.00  0.00    -0.077 S 
ATOM      3  C   UNL     1       6.140  -2.679  23.274  0.00  0.00    +0.072 C 
ATOM      4  N   UNL     1       7.107  -2.740  22.417  0.00  0.00    -0.272 NA
ATOM      5  C   UNL     1       7.879  -1.474  22.446  0.00  0.00    +0.176 C 
ATOM      6  C   UNL     1       9.353  -1.729  22.081  0.00  0.00    +0.173 C 
ATOM      7  C   UNL     1      10.270  -1.898  23.299  0.00  0.00    +0.176 C 
ATOM      8  C   UNL     1       9.986  -0.820  24.359  0.00  0.00    +0.176 C 
ATOM      9  O   UNL     1       8.630  -0.935  24.798  0.00  0.00    -0.355 OA
ENDROOT
BRANCH   6  10
ATOM     10  O   UNL     1       9.782  -0.634  21.248  0.00  0.00    -0.387 OA
ATOM     11  H   UNL     1      10.063  -0.975  20.378  0.00  0.00    +0.210 HD
ENDBRANCH   6  10
BRANCH   7  12
ATOM     12  O   UNL     1      10.080  -3.203  23.861  0.00  0.00    -0.387 OA
ATOM     13  H   UNL     1       9.261  -3.204  24.388  0.00  0.00    +0.210 HD
ENDBRANCH   7  12
BRANCH   3  14
ATOM     14  C   UNL     1       5.062  -3.724  23.370  0.00  0.00    +0.062 C 
BRANCH  14  15
ATOM     15  C   UNL     1       5.616  -5.135  23.549  0.00  0.00    +0.003 C 
ATOM     16  C   UNL     1       5.620  -5.925  22.252  0.00  0.00    +0.004 C 
ENDBRANCH  14  15
ENDBRANCH   3  14
BRANCH   8  17
ATOM     17  C   UNL     1      10.355   0.611  23.927  0.00  0.00    +0.190 C 
BRANCH  17  18
ATOM     18  O   UNL     1       9.985   1.558  24.921  0.00  0.00    -0.392 OA
ATOM     19  H   UNL     1       9.696   1.060  25.708  0.00  0.00    +0.210 HD
ENDBRANCH  17  18
ENDBRANCH   8  17
TORSDOF 6
ENDMDL
