MODEL 1
REMARK VINA RESULT:      -6.5      0.000      0.000
REMARK  Name = 
REMARK  16 active torsions:
REMARK  status: ('A' for Active; 'I' for Inactive)
REMARK    1  A    between atoms: CA_2  and  C_3
REMARK    2  A    between atoms: CA_2  and  CB_5
REMARK    3  A    between atoms: CA_2  and  N_12
REMARK    4  A    between atoms: C_3  and  O_4
REMARK    5  A    between atoms: CB_5  and  CG_6
REMARK    6  A    between atoms: C_13  and  CA_15
REMARK    7  A    between atoms: CA_15  and  N_17
REMARK    8  A    between atoms: CA_15  and  CB_34
REMARK    9  A    between atoms: C_18  and  CA_20
REMARK   10  A    between atoms: CA_20  and  CB_22
REMARK   11  A    between atoms: CA_20  and  N_23
REMARK   12  A    between atoms: C_24  and  O_26
REMARK   13  A    between atoms: O_26  and  C_27
REMARK   14  A    between atoms: C_27  and  C_28
REMARK   15  A    between atoms: CB_34  and  CG1_35
REMARK   16  A    between atoms: CB_34  and  CG2_36
REMARK                            x       y       z     vdW  Elec       q    Type
REMARK                         _______ _______ _______ _____ _____    ______ ____
ROOT
ATOM      1  CA  ALA A   1       7.862  -3.626  26.359  0.00  0.00    +0.161 C 
ENDROOT
BRANCH   1   4
ATOM      2  N   ALA A   1       6.648  -1.440  25.944  0.00  0.00    -0.308 N 
ATOM      3  H   ALA A   1       5.978  -2.001  25.429  0.00  0.00    +0.149 HD
ATOM      4  C   ALA A   1       7.784  -2.050  26.456  0.00  0.00    +0.234 C 
ATOM      5  O   ALA A   1       8.683  -1.386  26.965  0.00  0.00    -0.274 OA
BRANCH   2   6
ATOM      6  CA  ALA A   1       6.394   0.050  25.956  0.00  0.00    +0.103 C 
BRANCH   6   7
ATOM      7  CB  ALA A   1       6.550   0.632  24.539  0.00  0.00    +0.059 C 
BRANCH   7   8
ATOM      8  CG  ALA A   1       7.802   0.643  23.679  0.00  0.00    -0.046 A 
ATOM      9  CD2 ALA A   1       9.055   0.872  24.294  0.00  0.00    +0.004 A 
ATOM     10  CE2 ALA A   1      10.179   1.240  23.548  0.00  0.00    +0.000 A 
ATOM     11  CZ  ALA A   1      10.085   1.348  22.168  0.00  0.00    +0.000 A 
ATOM     12  CE1 ALA A   1       8.865   1.086  21.539  0.00  0.00    +0.000 A 
ATOM     13  CD1 ALA A   1       7.728   0.745  22.285  0.00  0.00    +0.004 A 
ENDBRANCH   7   8
ENDBRANCH   6   7
BRANCH   6  14
ATOM     14  C   ALA A   1       4.992   0.331  26.502  0.00  0.00    +0.178 C 
BRANCH  14  15
ATOM     15  O   ALA A   1       4.242   1.126  25.585  0.00  0.00    -0.393 OA
ATOM     16  H   ALA A   1       4.872   1.708  25.122  0.00  0.00    +0.209 HD
ENDBRANCH  14  15
ENDBRANCH   6  14
ENDBRANCH   2   6
ENDBRANCH   1   4
BRANCH   1  17
ATOM     17  N   ALA A   1       6.572  -4.322  26.647  0.00  0.00    -0.302 N 
ATOM     18  H   ALA A   1       5.722  -3.961  26.226  0.00  0.00    +0.150 HD
ATOM     19  C   ALA A   1       6.504  -5.439  27.462  0.00  0.00    +0.234 C 
ATOM     20  O   ALA A   1       7.521  -5.917  27.961  0.00  0.00    -0.274 OA
BRANCH  19  21
ATOM     21  CA  ALA A   1       5.117  -6.133  27.703  0.00  0.00    +0.159 C 
ATOM     22  CB  ALA A   1       4.972  -6.641  29.135  0.00  0.00    +0.038 C 
BRANCH  21  23
ATOM     23  N   ALA A   1       4.747  -7.190  26.770  0.00  0.00    -0.270 N 
ATOM     24  H   ALA A   1       5.039  -8.143  26.938  0.00  0.00    +0.153 HD
ATOM     25  C   UNK A   0       4.073  -6.992  25.592  0.00  0.00    +0.401 C 
ATOM     26  O   UNK A   0       3.876  -7.911  24.812  0.00  0.00    -0.226 OA
BRANCH  25  27
ATOM     27  O   UNK A   0       3.778  -5.681  25.370  0.00  0.00    -0.446 OA
BRANCH  27  28
ATOM     28  C   UNK A   0       3.587  -5.276  23.995  0.00  0.00    +0.269 C 
BRANCH  28  29
ATOM     29  C   UNK A   0       4.838  -4.647  23.426  0.00  0.00    -0.010 A 
ATOM     30  C   UNK A   0       5.031  -3.263  23.454  0.00  0.00    +0.007 A 
ATOM     31  C   UNK A   0       5.974  -2.676  22.611  0.00  0.00    +0.000 A 
ATOM     32  C   UNK A   0       6.657  -3.460  21.693  0.00  0.00    +0.000 A 
ATOM     33  C   UNK A   0       6.509  -4.839  21.727  0.00  0.00    +0.000 A 
ATOM     34  C   UNK A   0       5.726  -5.430  22.695  0.00  0.00    +0.007 A 
ENDBRANCH  28  29
ENDBRANCH  27  28
ENDBRANCH  25  27
ENDBRANCH  21  23
ENDBRANCH  19  21
ENDBRANCH   1  17
BRANCH   1  35
ATOM     35  CB  ALA A   1       8.371  -3.982  24.927  0.00  0.00    +0.012 C 
ATOM     36  CG2 ALA A   1       9.060  -5.350  24.852  0.00  0.00    +0.009 C 
ATOM     37  CG1 ALA A   1       9.358  -2.921  24.409  0.00  0.00    +0.009 C 
ENDBRANCH   1  35
TORSDOF 13
ENDMDL
MODEL 2
REMARK VINA RESULT:      -6.1      2.294      4.961
REMARK  Name = 
REMARK  16 active torsions:
REMARK  status: ('A' for Active; 'I' for Inactive)
REMARK    1  A    between atoms: CA_2  and  C_3
REMARK    2  A    between atoms: CA_2  and  CB_5
REMARK    3  A    between atoms: CA_2  and  N_12
REMARK    4  A    between atoms: C_3  and  O_4
REMARK    5  A    between atoms: CB_5  and  CG_6
REMARK    6  A    between atoms: C_13  and  CA_15
REMARK    7  A    between atoms: CA_15  and  N_17
REMARK    8  A    between atoms: CA_15  and  CB_34
REMARK    9  A    between atoms: C_18  and  CA_20
REMARK   10  A    between atoms: CA_20  and  CB_22
REMARK   11  A    between atoms: CA_20  and  N_23
REMARK   12  A    between atoms: C_24  and  O_26
REMARK   13  A    between atoms: O_26  and  C_27
REMARK   14  A    between atoms: C_27  and  C_28
REMARK   15  A    between atoms: CB_34  and  CG1_35
REMARK   16  A    between atoms: CB_34  and  CG2_36
REMARK                            x       y       z     vdW  Elec       q    Type
REMARK                         _______ _______ _______ _____ _____    ______ ____
ROOT
ATOM      1  CA  ALA A   1       4.430  -3.138  24.869  0.00  0.00    +0.161 C 
ENDROOT
BRANCH   1   4
ATOM      2  N   ALA A   1       5.405  -0.848  25.349  0.00  0.00    -0.308 N 
ATOM      3  H   ALA A   1       5.830  -0.924  24.431  0.00  0.00    +0.149 HD
ATOM      4  C   ALA A   1       4.690  -1.927  25.851  0.00  0.00    +0.234 C 
ATOM      5  O   ALA A   1       4.278  -1.927  27.007  0.00  0.00    -0.274 OA
BRANCH   2   6
ATOM      6  CA  ALA A   1       5.743   0.399  26.134  0.00  0.00    +0.103 C 
BRANCH   6   7
ATOM      7  CB  ALA A   1       6.951   1.118  25.507  0.00  0.00    +0.059 C 
BRANCH   7   8
ATOM      8  CG  ALA A   1       6.929   2.203  24.443  0.00  0.00    -0.046 A 
ATOM      9  CD2 ALA A   1       6.557   1.861  23.123  0.00  0.00    +0.004 A 
ATOM     10  CE2 ALA A   1       6.846   2.700  22.042  0.00  0.00    +0.000 A 
ATOM     11  CZ  ALA A   1       7.476   3.917  22.263  0.00  0.00    +0.000 A 
ATOM     12  CE1 ALA A   1       7.815   4.289  23.567  0.00  0.00    +0.000 A 
ATOM     13  CD1 ALA A   1       7.553   3.439  24.650  0.00  0.00    +0.004 A 
ENDBRANCH   7   8
ENDBRANCH   6   7
BRANCH   6  14
ATOM     14  C   ALA A   1       4.527   1.327  26.179  0.00  0.00    +0.178 C 
BRANCH  14  15
ATOM     15  O   ALA A   1       3.681   0.999  27.282  0.00  0.00    -0.393 OA
ATOM     16  H   ALA A   1       3.582   0.030  27.294  0.00  0.00    +0.209 HD
ENDBRANCH  14  15
ENDBRANCH   6  14
ENDBRANCH   2   6
ENDBRANCH   1   4
BRANCH   1  17
ATOM     17  N   ALA A   1       5.657  -3.910  24.509  0.00  0.00    -0.302 N 
ATOM     18  H   ALA A   1       6.096  -4.483  25.222  0.00  0.00    +0.150 HD
ATOM     19  C   ALA A   1       6.208  -3.866  23.239  0.00  0.00    +0.234 C 
ATOM     20  O   ALA A   1       5.681  -3.203  22.347  0.00  0.00    -0.274 OA
BRANCH  19  21
ATOM     21  CA  ALA A   1       7.486  -4.720  22.925  0.00  0.00    +0.159 C 
ATOM     22  CB  ALA A   1       7.171  -5.913  22.027  0.00  0.00    +0.038 C 
BRANCH  21  23
ATOM     23  N   ALA A   1       8.269  -5.165  24.072  0.00  0.00    -0.270 N 
ATOM     24  H   ALA A   1       8.008  -6.005  24.571  0.00  0.00    +0.153 HD
ATOM     25  C   UNK A   0       9.330  -4.481  24.606  0.00  0.00    +0.401 C 
ATOM     26  O   UNK A   0       9.885  -4.865  25.625  0.00  0.00    -0.226 OA
BRANCH  25  27
ATOM     27  O   UNK A   0       9.588  -3.315  23.950  0.00  0.00    -0.446 OA
BRANCH  27  28
ATOM     28  C   UNK A   0       9.284  -2.088  24.651  0.00  0.00    +0.269 C 
BRANCH  28  29
ATOM     29  C   UNK A   0       9.915  -0.894  23.973  0.00  0.00    -0.010 A 
ATOM     30  C   UNK A   0      10.412   0.183  24.714  0.00  0.00    +0.007 A 
ATOM     31  C   UNK A   0      10.634   1.411  24.092  0.00  0.00    +0.000 A 
ATOM     32  C   UNK A   0      10.285   1.579  22.760  0.00  0.00    +0.000 A 
ATOM     33  C   UNK A   0       9.863   0.484  22.020  0.00  0.00    +0.000 A 
ATOM     34  C   UNK A   0       9.834  -0.770  22.589  0.00  0.00    +0.007 A 
ENDBRANCH  28  29
ENDBRANCH  27  28
ENDBRANCH  25  27
ENDBRANCH  21  23
ENDBRANCH  19  21
ENDBRANCH   1  17
BRANCH   1  35
ATOM     35  CB  ALA A   1       3.375  -4.069  25.545  0.00  0.00    +0.012 C 
ATOM     36  CG2 ALA A   1       3.988  -5.330  26.165  0.00  0.00    +0.009 C 
ATOM     37  CG1 ALA A   1       2.298  -4.509  24.537  0.00  0.00    +0.009 C 
ENDBRANCH   1  35
TORSDOF 13
ENDMDL
MODEL 3
REMARK VINA RESULT:      -6.0      2.096      4.090
REMARK  Name = 
REMARK  16 active torsions:
REMARK  status: ('A' for Active; 'I' for Inactive)
REMARK    1  A    between atoms: CA_2  and  C_3
REMARK    2  A    between atoms: CA_2  and  CB_5
REMARK    3  A    between atoms: CA_2  and  N_12
REMARK    4  A    between atoms: C_3  and  O_4
REMARK    5  A    between atoms: CB_5  and  CG_6
REMARK    6  A    between atoms: C_13  and  CA_15
REMARK    7  A    between atoms: CA_15  and  N_17
REMARK    8  A    between atoms: CA_15  and  CB_34
REMARK    9  A    between atoms: C_18  and  CA_20
REMARK   10  A    between atoms: CA_20  and  CB_22
REMARK   11  A    between atoms: CA_20  and  N_23
REMARK   12  A    between atoms: C_24  and  O_26
REMARK   13  A    between atoms: O_26  and  C_27
REMARK   14  A    between atoms: C_27  and  C_28
REMARK   15  A    between atoms: CB_34  and  CG1_35
REMARK   16  A    between atoms: CB_34  and  CG2_36
REMARK                            x       y       z     vdW  Elec       q    Type
REMARK                         _______ _______ _______ _____ _____    ______ ____
ROOT
ATOM      1  CA  ALA A   1       5.905  -0.861  24.663  0.00  0.00    +0.161 C 
ENDROOT
BRANCH   1   4
ATOM      2  N   ALA A   1       8.041  -2.222  24.546  0.00  0.00    -0.308 N 
ATOM      3  H   ALA A   1       8.218  -1.878  25.483  0.00  0.00    +0.149 HD
ATOM      4  C   ALA A   1       6.928  -1.758  23.858  0.00  0.00    +0.234 C 
ATOM      5  O   ALA A   1       6.753  -2.043  22.677  0.00  0.00    -0.274 OA
BRANCH   2   6
ATOM      6  CA  ALA A   1       9.119  -3.095  23.947  0.00  0.00    +0.103 C 
BRANCH   6   7
ATOM      7  CB  ALA A   1      10.285  -2.233  23.430  0.00  0.00    +0.059 C 
BRANCH   7   8
ATOM      8  CG  ALA A   1      10.280  -0.736  23.168  0.00  0.00    -0.046 A 
ATOM      9  CD2 ALA A   1      10.473   0.150  24.253  0.00  0.00    +0.004 A 
ATOM     10  CE2 ALA A   1      10.138   1.505  24.157  0.00  0.00    +0.000 A 
ATOM     11  CZ  ALA A   1       9.642   2.010  22.963  0.00  0.00    +0.000 A 
ATOM     12  CE1 ALA A   1       9.483   1.156  21.869  0.00  0.00    +0.000 A 
ATOM     13  CD1 ALA A   1       9.790  -0.207  21.968  0.00  0.00    +0.004 A 
ENDBRANCH   7   8
ENDBRANCH   6   7
BRANCH   6  14
ATOM     14  C   ALA A   1       9.612  -4.098  24.992  0.00  0.00    +0.178 C 
BRANCH  14  15
ATOM     15  O   ALA A   1       9.611  -5.424  24.461  0.00  0.00    -0.393 OA
ATOM     16  H   ALA A   1       9.679  -5.348  23.492  0.00  0.00    +0.209 HD
ENDBRANCH  14  15
ENDBRANCH   6  14
ENDBRANCH   2   6
ENDBRANCH   1   4
BRANCH   1  17
ATOM     17  N   ALA A   1       5.442  -1.464  25.949  0.00  0.00    -0.302 N 
ATOM     18  H   ALA A   1       5.911  -1.194  26.808  0.00  0.00    +0.150 HD
ATOM     19  C   ALA A   1       4.397  -2.372  26.002  0.00  0.00    +0.234 C 
ATOM     20  O   ALA A   1       3.792  -2.695  24.982  0.00  0.00    -0.274 OA
BRANCH  19  21
ATOM     21  CA  ALA A   1       3.949  -2.948  27.391  0.00  0.00    +0.159 C 
ATOM     22  CB  ALA A   1       3.156  -1.928  28.205  0.00  0.00    +0.038 C 
BRANCH  21  23
ATOM     23  N   ALA A   1       4.996  -3.529  28.223  0.00  0.00    -0.270 N 
ATOM     24  H   ALA A   1       5.665  -2.932  28.691  0.00  0.00    +0.153 HD
ATOM     25  C   UNK A   0       5.214  -4.874  28.379  0.00  0.00    +0.401 C 
ATOM     26  O   UNK A   0       6.168  -5.292  29.018  0.00  0.00    -0.226 OA
BRANCH  25  27
ATOM     27  O   UNK A   0       4.341  -5.634  27.661  0.00  0.00    -0.446 OA
BRANCH  27  28
ATOM     28  C   UNK A   0       4.908  -6.555  26.702  0.00  0.00    +0.269 C 
BRANCH  28  29
ATOM     29  C   UNK A   0       4.893  -5.977  25.306  0.00  0.00    -0.010 A 
ATOM     30  C   UNK A   0       3.780  -6.123  24.472  0.00  0.00    +0.007 A 
ATOM     31  C   UNK A   0       3.911  -5.932  23.098  0.00  0.00    +0.000 A 
ATOM     32  C   UNK A   0       5.163  -5.677  22.557  0.00  0.00    +0.000 A 
ATOM     33  C   UNK A   0       6.243  -5.462  23.401  0.00  0.00    +0.000 A 
ATOM     34  C   UNK A   0       6.066  -5.456  24.767  0.00  0.00    +0.007 A 
ENDBRANCH  28  29
ENDBRANCH  27  28
ENDBRANCH  25  27
ENDBRANCH  21  23
ENDBRANCH  19  21
ENDBRANCH   1  17
BRANCH   1  35
ATOM     35  CB  ALA A   1       6.592   0.517  24.919  0.00  0.00    +0.012 C 
ATOM     36  CG2 ALA A   1       6.426   1.019  26.358  0.00  0.00    +0.009 C 
ATOM     37  CG1 ALA A   1       6.039   1.596  23.971  0.00  0.00    +0.009 C 
ENDBRANCH   1  35
TORSDOF 13
ENDMDL
MODEL 4
REMARK VINA RESULT:      -6.0      2.988      5.786
REMARK  Name = 
REMARK  16 active torsions:
REMARK  status: ('A' for Active; 'I' for Inactive)
REMARK    1  A    between atoms: CA_2  and  C_3
REMARK    2  A    between atoms: CA_2  and  CB_5
REMARK    3  A    between atoms: CA_2  and  N_12
REMARK    4  A    between atoms: C_3  and  O_4
REMARK    5  A    between atoms: CB_5  and  CG_6
REMARK    6  A    between atoms: C_13  and  CA_15
REMARK    7  A    between atoms: CA_15  and  N_17
REMARK    8  A    between atoms: CA_15  and  CB_34
REMARK    9  A    between atoms: C_18  and  CA_20
REMARK   10  A    between atoms: CA_20  and  CB_22
REMARK   11  A    between atoms: CA_20  and  N_23
REMARK   12  A    between atoms: C_24  and  O_26
REMARK   13  A    between atoms: O_26  and  C_27
REMARK   14  A    between atoms: C_27  and  C_28
REMARK   15  A    between atoms: CB_34  and  CG1_35
REMARK   16  A    between atoms: CB_34  and  CG2_36
REMARK                            x       y       z     vdW  Elec       q    Type
REMARK                         _______ _______ _______ _____ _____    ______ ____
ROOT
ATOM      1  CA  ALA A   1       5.264   0.168  25.578  0.00  0.00    +0.161 C 
ENDROOT
BRANCH   1   4
ATOM      2  N   ALA A   1       5.096   2.026  23.862  0.00  0.00    -0.308 N 
ATOM      3  H   ALA A   1       5.282   1.302  23.177  0.00  0.00    +0.149 HD
ATOM      4  C   ALA A   1       5.125   1.699  25.211  0.00  0.00    +0.234 C 
ATOM      5  O   ALA A   1       5.041   2.569  26.073  0.00  0.00    -0.274 OA
BRANCH   2   6
ATOM      6  CA  ALA A   1       4.960   3.431  23.322  0.00  0.00    +0.103 C 
BRANCH   6   7
ATOM      7  CB  ALA A   1       6.316   3.939  22.798  0.00  0.00    +0.059 C 
BRANCH   7   8
ATOM      8  CG  ALA A   1       7.312   4.828  23.524  0.00  0.00    -0.046 A 
ATOM      9  CD2 ALA A   1       8.084   5.745  22.774  0.00  0.00    +0.004 A 
ATOM     10  CE2 ALA A   1       9.239   6.330  23.303  0.00  0.00    +0.000 A 
ATOM     11  CZ  ALA A   1       9.625   6.042  24.604  0.00  0.00    +0.000 A 
ATOM     12  CE1 ALA A   1       8.851   5.168  25.373  0.00  0.00    +0.000 A 
ATOM     13  CD1 ALA A   1       7.708   4.557  24.838  0.00  0.00    +0.004 A 
ENDBRANCH   7   8
ENDBRANCH   6   7
BRANCH   6  14
ATOM     14  C   ALA A   1       3.909   3.458  22.210  0.00  0.00    +0.178 C 
BRANCH  14  15
ATOM     15  O   ALA A   1       2.731   2.757  22.611  0.00  0.00    -0.393 OA
ATOM     16  H   ALA A   1       2.628   2.890  23.571  0.00  0.00    +0.209 HD
ENDBRANCH  14  15
ENDBRANCH   6  14
ENDBRANCH   2   6
ENDBRANCH   1   4
BRANCH   1  17
ATOM     17  N   ALA A   1       6.130  -0.611  24.643  0.00  0.00    -0.302 N 
ATOM     18  H   ALA A   1       7.014  -0.206  24.350  0.00  0.00    +0.150 HD
ATOM     19  C   ALA A   1       5.766  -1.860  24.170  0.00  0.00    +0.234 C 
ATOM     20  O   ALA A   1       4.716  -2.388  24.530  0.00  0.00    -0.274 OA
BRANCH  19  21
ATOM     21  CA  ALA A   1       6.736  -2.631  23.206  0.00  0.00    +0.159 C 
ATOM     22  CB  ALA A   1       5.988  -3.304  22.059  0.00  0.00    +0.038 C 
BRANCH  21  23
ATOM     23  N   ALA A   1       7.644  -3.589  23.826  0.00  0.00    -0.270 N 
ATOM     24  H   ALA A   1       7.283  -4.438  24.240  0.00  0.00    +0.153 HD
ATOM     25  C   UNK A   0       8.995  -3.403  23.973  0.00  0.00    +0.401 C 
ATOM     26  O   UNK A   0       9.683  -4.206  24.584  0.00  0.00    -0.226 OA
BRANCH  25  27
ATOM     27  O   UNK A   0       9.417  -2.207  23.475  0.00  0.00    -0.446 OA
BRANCH  27  28
ATOM     28  C   UNK A   0       9.750  -1.179  24.435  0.00  0.00    +0.269 C 
BRANCH  28  29
ATOM     29  C   UNK A   0       9.600   0.202  23.839  0.00  0.00    -0.010 A 
ATOM     30  C   UNK A   0       9.020   0.390  22.580  0.00  0.00    +0.007 A 
ATOM     31  C   UNK A   0       9.228   1.584  21.891  0.00  0.00    +0.000 A 
ATOM     32  C   UNK A   0      10.075   2.545  22.422  0.00  0.00    +0.000 A 
ATOM     33  C   UNK A   0      10.584   2.377  23.702  0.00  0.00    +0.000 A 
ATOM     34  C   UNK A   0      10.215   1.286  24.459  0.00  0.00    +0.007 A 
ENDBRANCH  28  29
ENDBRANCH  27  28
ENDBRANCH  25  27
ENDBRANCH  21  23
ENDBRANCH  19  21
ENDBRANCH   1  17
BRANCH   1  35
ATOM     35  CB  ALA A   1       5.816   0.084  27.036  0.00  0.00    +0.012 C 
ATOM     36  CG2 ALA A   1       7.313  -0.239  27.099  0.00  0.00    +0.009 C 
ATOM     37  CG1 ALA A   1       5.063  -0.980  27.854  0.00  0.00    +0.009 C 
ENDBRANCH   1  35
TORSDOF 13
ENDMDL
MODEL 5
REMARK VINA RESULT:      -6.0      3.810      9.007
REMARK  Name = 
REMARK  16 active torsions:
REMARK  status: ('A' for Active; 'I' for Inactive)
REMARK    1  A    between atoms: CA_2  and  C_3
REMARK    2  A    between atoms: CA_2  and  CB_5
REMARK    3  A    between atoms: CA_2  and  N_12
REMARK    4  A    between atoms: C_3  and  O_4
REMARK    5  A    between atoms: CB_5  and  CG_6
REMARK    6  A    between atoms: C_13  and  CA_15
REMARK    7  A    between atoms: CA_15  and  N_17
REMARK    8  A    between atoms: CA_15  and  CB_34
REMARK    9  A    between atoms: C_18  and  CA_20
REMARK   10  A    between atoms: CA_20  and  CB_22
REMARK   11  A    between atoms: CA_20  and  N_23
REMARK   12  A    between atoms: C_24  and  O_26
REMARK   13  A    between atoms: O_26  and  C_27
REMARK   14  A    between atoms: C_27  and  C_28
REMARK   15  A    between atoms: CB_34  and  CG1_35
REMARK   16  A    between atoms: CB_34  and  CG2_36
REMARK                            x       y       z     vdW  Elec       q    Type
REMARK                         _______ _______ _______ _____ _____    ______ ____
ROOT
ATOM      1  CA  ALA A   1       9.212  -1.070  24.829  0.00  0.00    +0.161 C 
ENDROOT
BRANCH   1   4
ATOM      2  N   ALA A   1       7.759  -2.597  23.420  0.00  0.00    -0.308 N 
ATOM      3  H   ALA A   1       6.980  -2.189  23.925  0.00  0.00    +0.149 HD
ATOM      4  C   ALA A   1       9.052  -2.239  23.777  0.00  0.00    +0.234 C 
ATOM      5  O   ALA A   1      10.022  -2.809  23.285  0.00  0.00    -0.274 OA
BRANCH   2   6
ATOM      6  CA  ALA A   1       7.410  -3.682  22.428  0.00  0.00    +0.103 C 
BRANCH   6   7
ATOM      7  CB  ALA A   1       7.282  -5.040  23.139  0.00  0.00    +0.059 C 
BRANCH   7   8
ATOM      8  CG  ALA A   1       6.190  -5.481  24.099  0.00  0.00    -0.046 A 
ATOM      9  CD2 ALA A   1       6.406  -5.348  25.490  0.00  0.00    +0.004 A 
ATOM     10  CE2 ALA A   1       5.620  -6.037  26.420  0.00  0.00    +0.000 A 
ATOM     11  CZ  ALA A   1       4.578  -6.841  25.981  0.00  0.00    +0.000 A 
ATOM     12  CE1 ALA A   1       4.325  -6.952  24.611  0.00  0.00    +0.000 A 
ATOM     13  CD1 ALA A   1       5.127  -6.286  23.674  0.00  0.00    +0.004 A 
ENDBRANCH   7   8
ENDBRANCH   6   7
BRANCH   6  14
ATOM     14  C   ALA A   1       6.108  -3.325  21.708  0.00  0.00    +0.178 C 
BRANCH  14  15
ATOM     15  O   ALA A   1       5.780  -4.316  20.734  0.00  0.00    -0.393 OA
ATOM     16  H   ALA A   1       5.799  -5.181  21.183  0.00  0.00    +0.209 HD
ENDBRANCH  14  15
ENDBRANCH   6  14
ENDBRANCH   2   6
ENDBRANCH   1   4
BRANCH   1  17
ATOM     17  N   ALA A   1       9.087   0.300  24.246  0.00  0.00    -0.302 N 
ATOM     18  H   ALA A   1       8.173   0.612  23.933  0.00  0.00    +0.150 HD
ATOM     19  C   ALA A   1      10.173   1.151  24.125  0.00  0.00    +0.234 C 
ATOM     20  O   ALA A   1      11.286   0.811  24.522  0.00  0.00    -0.274 OA
BRANCH  19  21
ATOM     21  CA  ALA A   1       9.963   2.585  23.523  0.00  0.00    +0.159 C 
ATOM     22  CB  ALA A   1       8.857   2.608  22.471  0.00  0.00    +0.038 C 
BRANCH  21  23
ATOM     23  N   ALA A   1      11.149   3.251  22.999  0.00  0.00    -0.270 N 
ATOM     24  H   ALA A   1      11.791   2.751  22.399  0.00  0.00    +0.153 HD
ATOM     25  C   UNK A   0      11.533   4.528  23.319  0.00  0.00    +0.401 C 
ATOM     26  O   UNK A   0      12.589   4.993  22.916  0.00  0.00    -0.226 OA
BRANCH  25  27
ATOM     27  O   UNK A   0      10.681   5.129  24.196  0.00  0.00    -0.446 OA
BRANCH  27  28
ATOM     28  C   UNK A   0      10.022   6.335  23.748  0.00  0.00    +0.269 C 
BRANCH  28  29
ATOM     29  C   UNK A   0       8.525   6.149  23.669  0.00  0.00    -0.010 A 
ATOM     30  C   UNK A   0       7.821   5.488  24.681  0.00  0.00    +0.007 A 
ATOM     31  C   UNK A   0       6.542   4.995  24.430  0.00  0.00    +0.000 A 
ATOM     32  C   UNK A   0       6.007   5.093  23.154  0.00  0.00    +0.000 A 
ATOM     33  C   UNK A   0       6.683   5.814  22.182  0.00  0.00    +0.000 A 
ATOM     34  C   UNK A   0       7.856   6.469  22.492  0.00  0.00    +0.007 A 
ENDBRANCH  28  29
ENDBRANCH  27  28
ENDBRANCH  25  27
ENDBRANCH  21  23
ENDBRANCH  19  21
ENDBRANCH   1  17
BRANCH   1  35
ATOM     35  CB  ALA A   1       8.143  -1.293  25.943  0.00  0.00    +0.012 C 
ATOM     36  CG2 ALA A   1       8.075  -0.144  26.956  0.00  0.00    +0.009 C 
ATOM     37  CG1 ALA A   1       8.411  -2.596  26.716  0.00  0.00    +0.009 C 
ENDBRANCH   1  35
TORSDOF 13
ENDMDL
MODEL 6
REMARK VINA RESULT:      -5.8      2.299      5.015
REMARK  Name = 
REMARK  16 active torsions:
REMARK  status: ('A' for Active; 'I' for Inactive)
REMARK    1  A    between atoms: CA_2  and  C_3
REMARK    2  A    between atoms: CA_2  and  CB_5
REMARK    3  A    between atoms: CA_2  and  N_12
REMARK    4  A    between atoms: C_3  and  O_4
REMARK    5  A    between atoms: CB_5  and  CG_6
REMARK    6  A    between atoms: C_13  and  CA_15
REMARK    7  A    between atoms: CA_15  and  N_17
REMARK    8  A    between atoms: CA_15  and  CB_34
REMARK    9  A    between atoms: C_18  and  CA_20
REMARK   10  A    between atoms: CA_20  and  CB_22
REMARK   11  A    between atoms: CA_20  and  N_23
REMARK   12  A    between atoms: C_24  and  O_26
REMARK   13  A    between atoms: O_26  and  C_27
REMARK   14  A    between atoms: C_27  and  C_28
REMARK   15  A    between atoms: CB_34  and  CG1_35
REMARK   16  A    between atoms: CB_34  and  CG2_36
REMARK                            x       y       z     vdW  Elec       q    Type
REMARK                         _______ _______ _______ _____ _____    ______ ____
ROOT
ATOM      1  CA  ALA A   1       8.252  -3.359  23.770  0.00  0.00    +0.161 C 
ENDROOT
BRANCH   1   4
ATOM      2  N   ALA A   1       9.229  -1.028  23.576  0.00  0.00    -0.308 N 
ATOM      3  H   ALA A   1       8.270  -0.706  23.642  0.00  0.00    +0.149 HD
ATOM      4  C   ALA A   1       9.479  -2.392  23.529  0.00  0.00    +0.234 C 
ATOM      5  O   ALA A   1      10.610  -2.819  23.313  0.00  0.00    -0.274 OA
BRANCH   2   6
ATOM      6  CA  ALA A   1      10.275   0.045  23.379  0.00  0.00    +0.103 C 
BRANCH   6   7
ATOM      7  CB  ALA A   1       9.742   1.152  22.452  0.00  0.00    +0.059 C 
BRANCH   7   8
ATOM      8  CG  ALA A   1       8.675   2.187  22.768  0.00  0.00    -0.046 A 
ATOM      9  CD2 ALA A   1       7.415   2.086  22.135  0.00  0.00    +0.004 A 
ATOM     10  CE2 ALA A   1       6.527   3.166  22.100  0.00  0.00    +0.000 A 
ATOM     11  CZ  ALA A   1       6.863   4.355  22.732  0.00  0.00    +0.000 A 
ATOM     12  CE1 ALA A   1       8.087   4.459  23.396  0.00  0.00    +0.000 A 
ATOM     13  CD1 ALA A   1       8.993   3.389  23.410  0.00  0.00    +0.004 A 
ENDBRANCH   7   8
ENDBRANCH   6   7
BRANCH   6  14
ATOM     14  C   ALA A   1      10.682   0.627  24.735  0.00  0.00    +0.178 C 
BRANCH  14  15
ATOM     15  O   ALA A   1       9.908   0.048  25.786  0.00  0.00    -0.393 OA
ATOM     16  H   ALA A   1      10.512  -0.493  26.326  0.00  0.00    +0.209 HD
ENDBRANCH  14  15
ENDBRANCH   6  14
ENDBRANCH   2   6
ENDBRANCH   1   4
BRANCH   1  17
ATOM     17  N   ALA A   1       7.407  -2.995  24.947  0.00  0.00    -0.302 N 
ATOM     18  H   ALA A   1       7.103  -2.031  25.045  0.00  0.00    +0.150 HD
ATOM     19  C   ALA A   1       7.027  -3.927  25.897  0.00  0.00    +0.234 C 
ATOM     20  O   ALA A   1       7.356  -5.107  25.788  0.00  0.00    -0.274 OA
BRANCH  19  21
ATOM     21  CA  ALA A   1       6.120  -3.477  27.096  0.00  0.00    +0.159 C 
ATOM     22  CB  ALA A   1       5.961  -4.581  28.139  0.00  0.00    +0.038 C 
BRANCH  21  23
ATOM     23  N   ALA A   1       4.810  -2.937  26.754  0.00  0.00    -0.270 N 
ATOM     24  H   ALA A   1       4.017  -3.554  26.643  0.00  0.00    +0.153 HD
ATOM     25  C   UNK A   0       4.557  -1.616  26.483  0.00  0.00    +0.401 C 
ATOM     26  O   UNK A   0       3.453  -1.246  26.113  0.00  0.00    -0.226 OA
BRANCH  25  27
ATOM     27  O   UNK A   0       5.673  -0.840  26.562  0.00  0.00    -0.446 OA
BRANCH  27  28
ATOM     28  C   UNK A   0       6.075  -0.146  25.360  0.00  0.00    +0.269 C 
BRANCH  28  29
ATOM     29  C   UNK A   0       6.152   1.347  25.584  0.00  0.00    -0.010 A 
ATOM     30  C   UNK A   0       7.220   1.922  26.281  0.00  0.00    +0.007 A 
ATOM     31  C   UNK A   0       7.097   3.208  26.803  0.00  0.00    +0.000 A 
ATOM     32  C   UNK A   0       5.887   3.879  26.698  0.00  0.00    +0.000 A 
ATOM     33  C   UNK A   0       4.863   3.328  25.942  0.00  0.00    +0.000 A 
ATOM     34  C   UNK A   0       5.059   2.146  25.262  0.00  0.00    +0.007 A 
ENDBRANCH  28  29
ENDBRANCH  27  28
ENDBRANCH  25  27
ENDBRANCH  21  23
ENDBRANCH  19  21
ENDBRANCH   1  17
BRANCH   1  35
ATOM     35  CB  ALA A   1       7.399  -3.367  22.462  0.00  0.00    +0.012 C 
ATOM     36  CG2 ALA A   1       6.075  -2.606  22.598  0.00  0.00    +0.009 C 
ATOM     37  CG1 ALA A   1       7.079  -4.806  22.018  0.00  0.00    +0.009 C 
ENDBRANCH   1  35
TORSDOF 13
ENDMDL
MODEL 7
REMARK VINA RESULT:      -5.8      2.844      8.074
REMARK  Name = 
REMARK  16 active torsions:
REMARK  status: ('A' for Active; 'I' for Inactive)
REMARK    1  A    between atoms: CA_2  and  C_3
REMARK    2  A    between atoms: CA_2  and  CB_5
REMARK    3  A    between atoms: CA_2  and  N_12
REMARK    4  A    between atoms: C_3  and  O_4
REMARK    5  A    between atoms: CB_5  and  CG_6
REMARK    6  A    between atoms: C_13  and  CA_15
REMARK    7  A    between atoms: CA_15  and  N_17
REMARK    8  A    between atoms: CA_15  and  CB_34
REMARK    9  A    between atoms: C_18  and  CA_20
REMARK   10  A    between atoms: CA_20  and  CB_22
REMARK   11  A    between atoms: CA_20  and  N_23
REMARK   12  A    between atoms: C_24  and  O_26
REMARK   13  A    between atoms: O_26  and  C_27
REMARK   14  A    between atoms: C_27  and  C_28
REMARK   15  A    between atoms: CB_34  and  CG1_35
REMARK   16  A    between atoms: CB_34  and  CG2_36
REMARK                            x       y       z     vdW  Elec       q    Type
REMARK                         _______ _______ _______ _____ _____    ______ ____
ROOT
ATOM      1  CA  ALA A   1       8.756  -1.105  23.827  0.00  0.00    +0.161 C 
ENDROOT
BRANCH   1   4
ATOM      2  N   ALA A   1       8.112  -2.865  25.535  0.00  0.00    -0.308 N 
ATOM      3  H   ALA A   1       7.486  -2.159  25.908  0.00  0.00    +0.149 HD
ATOM      4  C   ALA A   1       8.960  -2.526  24.490  0.00  0.00    +0.234 C 
ATOM      5  O   ALA A   1       9.825  -3.306  24.101  0.00  0.00    -0.274 OA
BRANCH   2   6
ATOM      6  CA  ALA A   1       8.152  -4.178  26.282  0.00  0.00    +0.103 C 
BRANCH   6   7
ATOM      7  CB  ALA A   1       7.280  -5.228  25.570  0.00  0.00    +0.059 C 
BRANCH   7   8
ATOM      8  CG  ALA A   1       6.656  -5.126  24.188  0.00  0.00    -0.046 A 
ATOM      9  CD2 ALA A   1       7.418  -5.516  23.062  0.00  0.00    +0.004 A 
ATOM     10  CE2 ALA A   1       7.056  -5.130  21.767  0.00  0.00    +0.000 A 
ATOM     11  CZ  ALA A   1       5.905  -4.382  21.567  0.00  0.00    +0.000 A 
ATOM     12  CE1 ALA A   1       5.119  -4.022  22.665  0.00  0.00    +0.000 A 
ATOM     13  CD1 ALA A   1       5.492  -4.382  23.967  0.00  0.00    +0.004 A 
ENDBRANCH   7   8
ENDBRANCH   6   7
BRANCH   6  14
ATOM     14  C   ALA A   1       9.598  -4.665  26.396  0.00  0.00    +0.178 C 
BRANCH  14  15
ATOM     15  O   ALA A   1       9.786  -5.868  25.651  0.00  0.00    -0.393 OA
ATOM     16  H   ALA A   1      10.546  -5.726  25.057  0.00  0.00    +0.209 HD
ENDBRANCH  14  15
ENDBRANCH   6  14
ENDBRANCH   2   6
ENDBRANCH   1   4
BRANCH   1  17
ATOM     17  N   ALA A   1       8.000  -0.136  24.676  0.00  0.00    -0.302 N 
ATOM     18  H   ALA A   1       8.227  -0.077  25.663  0.00  0.00    +0.150 HD
ATOM     19  C   ALA A   1       7.007   0.678  24.157  0.00  0.00    +0.234 C 
ATOM     20  O   ALA A   1       6.731   0.649  22.959  0.00  0.00    -0.274 OA
BRANCH  19  21
ATOM     21  CA  ALA A   1       6.269   1.689  25.104  0.00  0.00    +0.159 C 
ATOM     22  CB  ALA A   1       5.132   1.024  25.876  0.00  0.00    +0.038 C 
BRANCH  21  23
ATOM     23  N   ALA A   1       5.787   2.921  24.491  0.00  0.00    -0.270 N 
ATOM     24  H   ALA A   1       4.970   2.909  23.896  0.00  0.00    +0.153 HD
ATOM     25  C   UNK A   0       6.409   4.139  24.593  0.00  0.00    +0.401 C 
ATOM     26  O   UNK A   0       6.001   5.113  23.979  0.00  0.00    -0.226 OA
BRANCH  25  27
ATOM     27  O   UNK A   0       7.550   4.086  25.336  0.00  0.00    -0.446 OA
BRANCH  27  28
ATOM     28  C   UNK A   0       8.389   5.263  25.333  0.00  0.00    +0.269 C 
BRANCH  28  29
ATOM     29  C   UNK A   0       9.551   5.111  24.379  0.00  0.00    -0.010 A 
ATOM     30  C   UNK A   0       9.880   3.868  23.830  0.00  0.00    +0.007 A 
ATOM     31  C   UNK A   0      11.143   3.666  23.275  0.00  0.00    +0.000 A 
ATOM     32  C   UNK A   0      12.092   4.675  23.343  0.00  0.00    +0.000 A 
ATOM     33  C   UNK A   0      11.729   5.925  23.823  0.00  0.00    +0.000 A 
ATOM     34  C   UNK A   0      10.424   6.177  24.187  0.00  0.00    +0.007 A 
ENDBRANCH  28  29
ENDBRANCH  27  28
ENDBRANCH  25  27
ENDBRANCH  21  23
ENDBRANCH  19  21
ENDBRANCH   1  17
BRANCH   1  35
ATOM     35  CB  ALA A   1      10.170  -0.543  23.479  0.00  0.00    +0.012 C 
ATOM     36  CG2 ALA A   1      10.771   0.319  24.596  0.00  0.00    +0.009 C 
ATOM     37  CG1 ALA A   1      10.130   0.301  22.193  0.00  0.00    +0.009 C 
ENDBRANCH   1  35
TORSDOF 13
ENDMDL
MODEL 8
REMARK VINA RESULT:      -5.7      2.019      3.976
REMARK  Name = 
REMARK  16 active torsions:
REMARK  status: ('A' for Active; 'I' for Inactive)
REMARK    1  A    between atoms: CA_2  and  C_3
REMARK    2  A    between atoms: CA_2  and  CB_5
REMARK    3  A    between atoms: CA_2  and  N_12
REMARK    4  A    between atoms: C_3  and  O_4
REMARK    5  A    between atoms: CB_5  and  CG_6
REMARK    6  A    between atoms: C_13  and  CA_15
REMARK    7  A    between atoms: CA_15  and  N_17
REMARK    8  A    between atoms: CA_15  and  CB_34
REMARK    9  A    between atoms: C_18  and  CA_20
REMARK   10  A    between atoms: CA_20  and  CB_22
REMARK   11  A    between atoms: CA_20  and  N_23
REMARK   12  A    between atoms: C_24  and  O_26
REMARK   13  A    between atoms: O_26  and  C_27
REMARK   14  A    between atoms: C_27  and  C_28
REMARK   15  A    between atoms: CB_34  and  CG1_35
REMARK   16  A    between atoms: CB_34  and  CG2_36
REMARK                            x       y       z     vdW  Elec       q    Type
REMARK                         _______ _______ _______ _____ _____    ______ ____
ROOT
ATOM      1  CA  ALA A   1       3.897  -2.147  26.371  0.00  0.00    +0.161 C 
ENDROOT
BRANCH   1   4
ATOM      2  N   ALA A   1       6.211  -1.111  26.415  0.00  0.00    -0.308 N 
ATOM      3  H   ALA A   1       6.534  -2.037  26.674  0.00  0.00    +0.149 HD
ATOM      4  C   ALA A   1       4.847  -0.886  26.286  0.00  0.00    +0.234 C 
ATOM      5  O   ALA A   1       4.409   0.247  26.109  0.00  0.00    -0.274 OA
BRANCH   2   6
ATOM      6  CA  ALA A   1       7.269  -0.034  26.352  0.00  0.00    +0.103 C 
BRANCH   6   7
ATOM      7  CB  ALA A   1       7.036   0.878  25.135  0.00  0.00    +0.059 C 
BRANCH   7   8
ATOM      8  CG  ALA A   1       8.084   1.455  24.199  0.00  0.00    -0.046 A 
ATOM      9  CD2 ALA A   1       7.756   1.644  22.836  0.00  0.00    +0.004 A 
ATOM     10  CE2 ALA A   1       8.747   1.830  21.866  0.00  0.00    +0.000 A 
ATOM     11  CZ  ALA A   1      10.081   1.872  22.242  0.00  0.00    +0.000 A 
ATOM     12  CE1 ALA A   1      10.421   1.727  23.590  0.00  0.00    +0.000 A 
ATOM     13  CD1 ALA A   1       9.435   1.512  24.562  0.00  0.00    +0.004 A 
ENDBRANCH   7   8
ENDBRANCH   6   7
BRANCH   6  14
ATOM     14  C   ALA A   1       7.255   0.781  27.648  0.00  0.00    +0.178 C 
BRANCH  14  15
ATOM     15  O   ALA A   1       7.266   2.180  27.365  0.00  0.00    -0.393 OA
ATOM     16  H   ALA A   1       7.217   2.280  26.397  0.00  0.00    +0.209 HD
ENDBRANCH  14  15
ENDBRANCH   6  14
ENDBRANCH   2   6
ENDBRANCH   1   4
BRANCH   1  17
ATOM     17  N   ALA A   1       4.609  -3.458  26.279  0.00  0.00    -0.302 N 
ATOM     18  H   ALA A   1       5.114  -3.792  27.092  0.00  0.00    +0.150 HD
ATOM     19  C   ALA A   1       4.596  -4.223  25.125  0.00  0.00    +0.234 C 
ATOM     20  O   ALA A   1       3.967  -3.856  24.134  0.00  0.00    -0.274 OA
BRANCH  19  21
ATOM     21  CA  ALA A   1       5.347  -5.601  25.107  0.00  0.00    +0.159 C 
ATOM     22  CB  ALA A   1       4.400  -6.765  24.829  0.00  0.00    +0.038 C 
BRANCH  21  23
ATOM     23  N   ALA A   1       6.170  -5.908  26.271  0.00  0.00    -0.270 N 
ATOM     24  H   ALA A   1       5.764  -6.366  27.076  0.00  0.00    +0.153 HD
ATOM     25  C   UNK A   0       7.487  -5.551  26.412  0.00  0.00    +0.401 C 
ATOM     26  O   UNK A   0       8.092  -5.760  27.453  0.00  0.00    -0.226 OA
BRANCH  25  27
ATOM     27  O   UNK A   0       7.963  -4.863  25.337  0.00  0.00    -0.446 OA
BRANCH  27  28
ATOM     28  C   UNK A   0       8.747  -3.680  25.612  0.00  0.00    +0.269 C 
BRANCH  28  29
ATOM     29  C   UNK A   0       8.773  -2.747  24.424  0.00  0.00    -0.010 A 
ATOM     30  C   UNK A   0       7.666  -2.617  23.579  0.00  0.00    +0.007 A 
ATOM     31  C   UNK A   0       7.824  -2.068  22.307  0.00  0.00    +0.000 A 
ATOM     32  C   UNK A   0       9.091  -1.727  21.859  0.00  0.00    +0.000 A 
ATOM     33  C   UNK A   0      10.167  -1.792  22.732  0.00  0.00    +0.000 A 
ATOM     34  C   UNK A   0       9.972  -2.148  24.049  0.00  0.00    +0.007 A 
ENDBRANCH  28  29
ENDBRANCH  27  28
ENDBRANCH  25  27
ENDBRANCH  21  23
ENDBRANCH  19  21
ENDBRANCH   1  17
BRANCH   1  35
ATOM     35  CB  ALA A   1       3.103  -2.046  27.711  0.00  0.00    +0.012 C 
ATOM     36  CG2 ALA A   1       3.877  -2.594  28.916  0.00  0.00    +0.009 C 
ATOM     37  CG1 ALA A   1       1.764  -2.798  27.620  0.00  0.00    +0.009 C 
ENDBRANCH   1  35
TORSDOF 13
ENDMDL
MODEL 9
REMARK VINA RESULT:      -5.6      2.622      7.556
REMARK  Name = 
REMARK  16 active torsions:
REMARK  status: ('A' for Active; 'I' for Inactive)
REMARK    1  A    between atoms: CA_2  and  C_3
REMARK    2  A    between atoms: CA_2  and  CB_5
REMARK    3  A    between atoms: CA_2  and  N_12
REMARK    4  A    between atoms: C_3  and  O_4
REMARK    5  A    between atoms: CB_5  and  CG_6
REMARK    6  A    between atoms: C_13  and  CA_15
REMARK    7  A    between atoms: CA_15  and  N_17
REMARK    8  A    between atoms: CA_15  and  CB_34
REMARK    9  A    between atoms: C_18  and  CA_20
REMARK   10  A    between atoms: CA_20  and  CB_22
REMARK   11  A    between atoms: CA_20  and  N_23
REMARK   12  A    between atoms: C_24  and  O_26
REMARK   13  A    between atoms: O_26  and  C_27
REMARK   14  A    between atoms: C_27  and  C_28
REMARK   15  A    between atoms: CB_34  and  CG1_35
REMARK   16  A    between atoms: CB_34  and  CG2_36
REMARK                            x       y       z     vdW  Elec       q    Type
REMARK                         _______ _______ _______ _____ _____    ______ ____
ROOT
ATOM      1  CA  ALA A   1       7.697  -0.422  25.435  0.00  0.00    +0.161 C 
ENDROOT
BRANCH   1   4
ATOM      2  N   ALA A   1       7.497  -2.866  26.077  0.00  0.00    -0.308 N 
ATOM      3  H   ALA A   1       8.320  -3.003  25.501  0.00  0.00    +0.149 HD
ATOM      4  C   ALA A   1       6.917  -1.606  26.133  0.00  0.00    +0.234 C 
ATOM      5  O   ALA A   1       5.846  -1.429  26.707  0.00  0.00    -0.274 OA
BRANCH   2   6
ATOM      6  CA  ALA A   1       6.904  -4.113  26.692  0.00  0.00    +0.103 C 
BRANCH   6   7
ATOM      7  CB  ALA A   1       5.881  -4.750  25.734  0.00  0.00    +0.059 C 
BRANCH   7   8
ATOM      8  CG  ALA A   1       5.844  -4.644  24.219  0.00  0.00    -0.046 A 
ATOM      9  CD2 ALA A   1       6.778  -5.383  23.457  0.00  0.00    +0.004 A 
ATOM     10  CE2 ALA A   1       7.034  -5.076  22.117  0.00  0.00    +0.000 A 
ATOM     11  CZ  ALA A   1       6.333  -4.050  21.499  0.00  0.00    +0.000 A 
ATOM     12  CE1 ALA A   1       5.378  -3.334  22.226  0.00  0.00    +0.000 A 
ATOM     13  CD1 ALA A   1       5.138  -3.620  23.577  0.00  0.00    +0.004 A 
ENDBRANCH   7   8
ENDBRANCH   6   7
BRANCH   6  14
ATOM     14  C   ALA A   1       8.020  -5.105  27.027  0.00  0.00    +0.178 C 
BRANCH  14  15
ATOM     15  O   ALA A   1       7.535  -6.141  27.882  0.00  0.00    -0.393 OA
ATOM     16  H   ALA A   1       7.109  -6.808  27.315  0.00  0.00    +0.209 HD
ENDBRANCH  14  15
ENDBRANCH   6  14
ENDBRANCH   2   6
ENDBRANCH   1   4
BRANCH   1  17
ATOM     17  N   ALA A   1       7.872   0.788  26.295  0.00  0.00    -0.302 N 
ATOM     18  H   ALA A   1       8.706   0.859  26.867  0.00  0.00    +0.150 HD
ATOM     19  C   ALA A   1       6.934   1.807  26.330  0.00  0.00    +0.234 C 
ATOM     20  O   ALA A   1       5.928   1.761  25.626  0.00  0.00    -0.274 OA
BRANCH  19  21
ATOM     21  CA  ALA A   1       7.194   3.059  27.241  0.00  0.00    +0.159 C 
ATOM     22  CB  ALA A   1       6.682   2.848  28.663  0.00  0.00    +0.038 C 
BRANCH  21  23
ATOM     23  N   ALA A   1       6.717   4.341  26.735  0.00  0.00    -0.270 N 
ATOM     24  H   ALA A   1       5.791   4.669  26.973  0.00  0.00    +0.153 HD
ATOM     25  C   UNK A   0       7.411   5.145  25.867  0.00  0.00    +0.401 C 
ATOM     26  O   UNK A   0       6.914   6.163  25.411  0.00  0.00    -0.226 OA
BRANCH  25  27
ATOM     27  O   UNK A   0       8.615   4.617  25.511  0.00  0.00    -0.446 OA
BRANCH  27  28
ATOM     28  C   UNK A   0       9.007   4.755  24.127  0.00  0.00    +0.269 C 
BRANCH  28  29
ATOM     29  C   UNK A   0       8.976   3.424  23.410  0.00  0.00    -0.010 A 
ATOM     30  C   UNK A   0      10.155   2.797  22.995  0.00  0.00    +0.007 A 
ATOM     31  C   UNK A   0      10.104   1.795  22.026  0.00  0.00    +0.000 A 
ATOM     32  C   UNK A   0       8.895   1.484  21.423  0.00  0.00    +0.000 A 
ATOM     33  C   UNK A   0       7.726   2.061  21.895  0.00  0.00    +0.000 A 
ATOM     34  C   UNK A   0       7.758   2.902  22.986  0.00  0.00    +0.007 A 
ENDBRANCH  28  29
ENDBRANCH  27  28
ENDBRANCH  25  27
ENDBRANCH  21  23
ENDBRANCH  19  21
ENDBRANCH   1  17
BRANCH   1  35
ATOM     35  CB  ALA A   1       9.084  -0.977  24.982  0.00  0.00    +0.012 C 
ATOM     36  CG2 ALA A   1      10.222   0.039  25.131  0.00  0.00    +0.009 C 
ATOM     37  CG1 ALA A   1       9.043  -1.438  23.514  0.00  0.00    +0.009 C 
ENDBRANCH   1  35
TORSDOF 13
ENDMDL
