MODEL 1
REMARK VINA RESULT:      -6.4      0.000      0.000
REMARK  Name = 
REMARK  2 active torsions:
REMARK  status: ('A' for Active; 'I' for Inactive)
REMARK    1  A    between atoms: N_1  and  C_2
REMARK    2  A    between atoms: N_1  and  C_11
REMARK                            x       y       z     vdW  Elec       q    Type
REMARK                         _______ _______ _______ _____ _____    ______ ____
ROOT
ATOM      1  C   UNL     1       7.647  -2.455  22.496  0.00  0.00    +0.058 A 
ATOM      2  C   UNL     1       7.080  -3.762  22.391  0.00  0.00    +0.040 A 
ATOM      3  C   UNL     1       5.719  -3.621  22.642  0.00  0.00    +0.140 A 
ATOM      4  N   UNL     1       4.767  -4.571  22.567  0.00  0.00    -0.237 NA
ATOM      5  C   UNL     1       5.260  -5.783  22.220  0.00  0.00    +0.113 A 
ATOM      6  C   UNL     1       6.597  -6.080  22.001  0.00  0.00    +0.020 A 
ATOM      7  N   UNL     1       5.491  -2.320  23.003  0.00  0.00    -0.344 N 
ATOM      8  H   UNL     1       4.582  -1.969  23.265  0.00  0.00    +0.167 HD
ATOM      9  C   UNL     1       7.540  -5.061  22.103  0.00  0.00    +0.015 A 
ATOM     10  C   UNL     1       6.661  -1.603  22.943  0.00  0.00    +0.108 A 
ENDROOT
BRANCH   1  11
ATOM     11  N   UNL     1       8.922  -2.071  22.245  0.00  0.00    -0.313 N 
ATOM     12  H   UNL     1       9.608  -2.777  21.988  0.00  0.00    +0.152 HD
BRANCH  11  13
ATOM     13  C   UNL     1       9.546  -0.842  22.567  0.00  0.00    +0.031 A 
ATOM     14  C   UNL     1       9.508   0.207  21.642  0.00  0.00    +0.023 A 
ATOM     15  C   UNL     1       9.969   1.479  21.991  0.00  0.00    +0.002 A 
ATOM     16  C   UNL     1      10.477   1.718  23.267  0.00  0.00    +0.000 A 
ATOM     17  C   UNL     1      10.561   0.676  24.182  0.00  0.00    +0.002 A 
ATOM     18  C   UNL     1      10.108  -0.596  23.829  0.00  0.00    +0.023 A 
ENDBRANCH  11  13
ENDBRANCH   1  11
TORSDOF 2
ENDMDL
MODEL 2
REMARK VINA RESULT:      -6.4      1.651      2.426
REMARK  Name = 
REMARK  2 active torsions:
REMARK  status: ('A' for Active; 'I' for Inactive)
REMARK    1  A    between atoms: N_1  and  C_2
REMARK    2  A    between atoms: N_1  and  C_11
REMARK                            x       y       z     vdW  Elec       q    Type
REMARK                         _______ _______ _______ _____ _____    ______ ____
ROOT
ATOM      1  C   UNL     1       9.145  -2.983  23.810  0.00  0.00    +0.058 A 
ATOM      2  C   UNL     1       7.814  -3.145  23.317  0.00  0.00    +0.040 A 
ATOM      3  C   UNL     1       7.187  -4.046  24.172  0.00  0.00    +0.140 A 
ATOM      4  N   UNL     1       5.897  -4.434  24.152  0.00  0.00    -0.237 NA
ATOM      5  C   UNL     1       5.190  -3.859  23.152  0.00  0.00    +0.113 A 
ATOM      6  C   UNL     1       5.698  -2.994  22.194  0.00  0.00    +0.020 A 
ATOM      7  N   UNL     1       8.121  -4.503  25.061  0.00  0.00    -0.344 N 
ATOM      8  H   UNL     1       7.922  -5.192  25.771  0.00  0.00    +0.167 HD
ATOM      9  C   UNL     1       7.042  -2.635  22.256  0.00  0.00    +0.015 A 
ATOM     10  C   UNL     1       9.327  -3.884  24.837  0.00  0.00    +0.108 A 
ENDROOT
BRANCH   1  11
ATOM     11  N   UNL     1      10.107  -2.138  23.366  0.00  0.00    -0.313 N 
ATOM     12  H   UNL     1      11.063  -2.478  23.286  0.00  0.00    +0.152 HD
BRANCH  11  13
ATOM     13  C   UNL     1      10.052  -0.728  23.257  0.00  0.00    +0.031 A 
ATOM     14  C   UNL     1      10.384   0.057  24.365  0.00  0.00    +0.023 A 
ATOM     15  C   UNL     1      10.498   1.445  24.244  0.00  0.00    +0.002 A 
ATOM     16  C   UNL     1      10.277   2.065  23.015  0.00  0.00    +0.000 A 
ATOM     17  C   UNL     1       9.903   1.302  21.915  0.00  0.00    +0.002 A 
ATOM     18  C   UNL     1       9.782  -0.083  22.041  0.00  0.00    +0.023 A 
ENDBRANCH  11  13
ENDBRANCH   1  11
TORSDOF 2
ENDMDL
MODEL 3
REMARK VINA RESULT:      -6.3      1.989      2.261
REMARK  Name = 
REMARK  2 active torsions:
REMARK  status: ('A' for Active; 'I' for Inactive)
REMARK    1  A    between atoms: N_1  and  C_2
REMARK    2  A    between atoms: N_1  and  C_11
REMARK                            x       y       z     vdW  Elec       q    Type
REMARK                         _______ _______ _______ _____ _____    ______ ____
ROOT
ATOM      1  C   UNL     1       8.353  -2.611  22.784  0.00  0.00    +0.058 A 
ATOM      2  C   UNL     1       8.515  -3.474  23.911  0.00  0.00    +0.040 A 
ATOM      3  C   UNL     1       7.284  -4.092  24.112  0.00  0.00    +0.140 A 
ATOM      4  N   UNL     1       6.984  -5.053  25.006  0.00  0.00    -0.237 NA
ATOM      5  C   UNL     1       8.040  -5.400  25.779  0.00  0.00    +0.113 A 
ATOM      6  C   UNL     1       9.302  -4.827  25.731  0.00  0.00    +0.020 A 
ATOM      7  N   UNL     1       6.390  -3.542  23.234  0.00  0.00    -0.344 N 
ATOM      8  H   UNL     1       5.415  -3.802  23.200  0.00  0.00    +0.167 HD
ATOM      9  C   UNL     1       9.553  -3.829  24.793  0.00  0.00    +0.015 A 
ATOM     10  C   UNL     1       7.020  -2.619  22.436  0.00  0.00    +0.108 A 
ENDROOT
BRANCH   1  11
ATOM     11  N   UNL     1       9.296  -1.870  22.153  0.00  0.00    -0.313 N 
ATOM     12  H   UNL     1       9.910  -2.324  21.480  0.00  0.00    +0.152 HD
BRANCH  11  13
ATOM     13  C   UNL     1       9.769  -0.581  22.494  0.00  0.00    +0.031 A 
ATOM     14  C   UNL     1       9.550   0.483  21.613  0.00  0.00    +0.023 A 
ATOM     15  C   UNL     1       9.858   1.794  21.990  0.00  0.00    +0.002 A 
ATOM     16  C   UNL     1      10.392   2.055  23.250  0.00  0.00    +0.000 A 
ATOM     17  C   UNL     1      10.656   1.005  24.120  0.00  0.00    +0.002 A 
ATOM     18  C   UNL     1      10.356  -0.304  23.738  0.00  0.00    +0.023 A 
ENDBRANCH  11  13
ENDBRANCH   1  11
TORSDOF 2
ENDMDL
MODEL 4
REMARK VINA RESULT:      -6.3      2.034      2.429
REMARK  Name = 
REMARK  2 active torsions:
REMARK  status: ('A' for Active; 'I' for Inactive)
REMARK    1  A    between atoms: N_1  and  C_2
REMARK    2  A    between atoms: N_1  and  C_11
REMARK                            x       y       z     vdW  Elec       q    Type
REMARK                         _______ _______ _______ _____ _____    ______ ____
ROOT
ATOM      1  C   UNL     1       8.848  -3.622  24.499  0.00  0.00    +0.058 A 
ATOM      2  C   UNL     1       7.838  -4.402  23.857  0.00  0.00    +0.040 A 
ATOM      3  C   UNL     1       6.993  -4.856  24.865  0.00  0.00    +0.140 A 
ATOM      4  N   UNL     1       5.850  -5.555  24.725  0.00  0.00    -0.237 NA
ATOM      5  C   UNL     1       5.557  -5.830  23.433  0.00  0.00    +0.113 A 
ATOM      6  C   UNL     1       6.337  -5.494  22.336  0.00  0.00    +0.020 A 
ATOM      7  N   UNL     1       7.530  -4.478  26.066  0.00  0.00    -0.344 N 
ATOM      8  H   UNL     1       7.118  -4.714  26.956  0.00  0.00    +0.167 HD
ATOM      9  C   UNL     1       7.514  -4.780  22.540  0.00  0.00    +0.015 A 
ATOM     10  C   UNL     1       8.675  -3.747  25.860  0.00  0.00    +0.108 A 
ENDROOT
BRANCH   1  11
ATOM     11  N   UNL     1       9.840  -2.898  23.926  0.00  0.00    -0.313 N 
ATOM     12  H   UNL     1      10.807  -3.165  24.098  0.00  0.00    +0.152 HD
BRANCH  11  13
ATOM     13  C   UNL     1       9.758  -1.616  23.333  0.00  0.00    +0.031 A 
ATOM     14  C   UNL     1      10.213  -0.502  24.046  0.00  0.00    +0.023 A 
ATOM     15  C   UNL     1      10.298   0.750  23.431  0.00  0.00    +0.002 A 
ATOM     16  C   UNL     1       9.926   0.905  22.097  0.00  0.00    +0.000 A 
ATOM     17  C   UNL     1       9.431  -0.183  21.388  0.00  0.00    +0.002 A 
ATOM     18  C   UNL     1       9.339  -1.430  22.007  0.00  0.00    +0.023 A 
ENDBRANCH  11  13
ENDBRANCH   1  11
TORSDOF 2
ENDMDL
MODEL 5
REMARK VINA RESULT:      -6.3      2.630      6.113
REMARK  Name = 
REMARK  2 active torsions:
REMARK  status: ('A' for Active; 'I' for Inactive)
REMARK    1  A    between atoms: N_1  and  C_2
REMARK    2  A    between atoms: N_1  and  C_11
REMARK                            x       y       z     vdW  Elec       q    Type
REMARK                         _______ _______ _______ _____ _____    ______ ____
ROOT
ATOM      1  C   UNL     1       9.843  -1.618  23.068  0.00  0.00    +0.058 A 
ATOM      2  C   UNL     1      10.174  -0.244  23.277  0.00  0.00    +0.040 A 
ATOM      3  C   UNL     1       9.839   0.424  22.103  0.00  0.00    +0.140 A 
ATOM      4  N   UNL     1       9.893   1.749  21.869  0.00  0.00    -0.237 NA
ATOM      5  C   UNL     1      10.351   2.453  22.930  0.00  0.00    +0.113 A 
ATOM      6  C   UNL     1      10.778   1.915  24.135  0.00  0.00    +0.020 A 
ATOM      7  N   UNL     1       9.442  -0.512  21.187  0.00  0.00    -0.344 N 
ATOM      8  H   UNL     1       9.174  -0.283  20.241  0.00  0.00    +0.167 HD
ATOM      9  C   UNL     1      10.709   0.537  24.320  0.00  0.00    +0.015 A 
ATOM     10  C   UNL     1       9.464  -1.764  21.752  0.00  0.00    +0.108 A 
ENDROOT
BRANCH   1  11
ATOM     11  N   UNL     1       9.902  -2.640  23.956  0.00  0.00    -0.313 N 
ATOM     12  H   UNL     1      10.760  -3.183  24.025  0.00  0.00    +0.152 HD
BRANCH  11  13
ATOM     13  C   UNL     1       8.834  -3.277  24.632  0.00  0.00    +0.031 A 
ATOM     14  C   UNL     1       8.195  -4.364  24.028  0.00  0.00    +0.023 A 
ATOM     15  C   UNL     1       7.250  -5.115  24.734  0.00  0.00    +0.002 A 
ATOM     16  C   UNL     1       6.931  -4.785  26.050  0.00  0.00    +0.000 A 
ATOM     17  C   UNL     1       7.526  -3.681  26.649  0.00  0.00    +0.002 A 
ATOM     18  C   UNL     1       8.462  -2.928  25.939  0.00  0.00    +0.023 A 
ENDBRANCH  11  13
ENDBRANCH   1  11
TORSDOF 2
ENDMDL
MODEL 6
REMARK VINA RESULT:      -6.2      2.318      2.777
REMARK  Name = 
REMARK  2 active torsions:
REMARK  status: ('A' for Active; 'I' for Inactive)
REMARK    1  A    between atoms: N_1  and  C_2
REMARK    2  A    between atoms: N_1  and  C_11
REMARK                            x       y       z     vdW  Elec       q    Type
REMARK                         _______ _______ _______ _____ _____    ______ ____
ROOT
ATOM      1  C   UNL     1       8.736  -2.930  23.478  0.00  0.00    +0.058 A 
ATOM      2  C   UNL     1       8.344  -3.667  24.638  0.00  0.00    +0.040 A 
ATOM      3  C   UNL     1       7.217  -4.398  24.275  0.00  0.00    +0.140 A 
ATOM      4  N   UNL     1       6.553  -5.305  25.017  0.00  0.00    -0.237 NA
ATOM      5  C   UNL     1       7.082  -5.462  26.253  0.00  0.00    +0.113 A 
ATOM      6  C   UNL     1       8.160  -4.758  26.768  0.00  0.00    +0.020 A 
ATOM      7  N   UNL     1       6.870  -4.031  23.003  0.00  0.00    -0.344 N 
ATOM      8  H   UNL     1       6.064  -4.400  22.520  0.00  0.00    +0.167 HD
ATOM      9  C   UNL     1       8.804  -3.825  25.959  0.00  0.00    +0.015 A 
ATOM     10  C   UNL     1       7.771  -3.117  22.514  0.00  0.00    +0.108 A 
ENDROOT
BRANCH   1  11
ATOM     11  N   UNL     1       9.830  -2.147  23.313  0.00  0.00    -0.313 N 
ATOM     12  H   UNL     1      10.753  -2.556  23.440  0.00  0.00    +0.152 HD
BRANCH  11  13
ATOM     13  C   UNL     1       9.896  -0.734  23.263  0.00  0.00    +0.031 A 
ATOM     14  C   UNL     1      10.212  -0.023  24.424  0.00  0.00    +0.023 A 
ATOM     15  C   UNL     1      10.445   1.354  24.374  0.00  0.00    +0.002 A 
ATOM     16  C   UNL     1      10.362   2.037  23.161  0.00  0.00    +0.000 A 
ATOM     17  C   UNL     1      10.007   1.352  22.006  0.00  0.00    +0.002 A 
ATOM     18  C   UNL     1       9.766  -0.022  22.061  0.00  0.00    +0.023 A 
ENDBRANCH  11  13
ENDBRANCH   1  11
TORSDOF 2
ENDMDL
MODEL 7
REMARK VINA RESULT:      -6.1      1.940      6.031
REMARK  Name = 
REMARK  2 active torsions:
REMARK  status: ('A' for Active; 'I' for Inactive)
REMARK    1  A    between atoms: N_1  and  C_2
REMARK    2  A    between atoms: N_1  and  C_11
REMARK                            x       y       z     vdW  Elec       q    Type
REMARK                         _______ _______ _______ _____ _____    ______ ____
ROOT
ATOM      1  C   UNL     1       9.306  -1.348  24.220  0.00  0.00    +0.058 A 
ATOM      2  C   UNL     1       9.542  -0.120  23.529  0.00  0.00    +0.040 A 
ATOM      3  C   UNL     1       9.607   0.872  24.504  0.00  0.00    +0.140 A 
ATOM      4  N   UNL     1       9.901   2.174  24.330  0.00  0.00    -0.237 NA
ATOM      5  C   UNL     1      10.130   2.494  23.035  0.00  0.00    +0.113 A 
ATOM      6  C   UNL     1      10.041   1.624  21.958  0.00  0.00    +0.020 A 
ATOM      7  N   UNL     1       9.303   0.298  25.708  0.00  0.00    -0.344 N 
ATOM      8  H   UNL     1       9.254   0.817  26.573  0.00  0.00    +0.167 HD
ATOM      9  C   UNL     1       9.723   0.290  22.195  0.00  0.00    +0.015 A 
ATOM     10  C   UNL     1       9.092  -1.050  25.548  0.00  0.00    +0.108 A 
ENDROOT
BRANCH   1  11
ATOM     11  N   UNL     1       9.258  -2.602  23.709  0.00  0.00    -0.313 N 
ATOM     12  H   UNL     1      10.121  -3.037  23.389  0.00  0.00    +0.152 HD
BRANCH  11  13
ATOM     13  C   UNL     1       8.124  -3.327  23.273  0.00  0.00    +0.031 A 
ATOM     14  C   UNL     1       7.217  -2.719  22.400  0.00  0.00    +0.023 A 
ATOM     15  C   UNL     1       6.179  -3.457  21.824  0.00  0.00    +0.002 A 
ATOM     16  C   UNL     1       6.034  -4.812  22.116  0.00  0.00    +0.000 A 
ATOM     17  C   UNL     1       6.901  -5.421  23.015  0.00  0.00    +0.002 A 
ATOM     18  C   UNL     1       7.931  -4.679  23.596  0.00  0.00    +0.023 A 
ENDBRANCH  11  13
ENDBRANCH   1  11
TORSDOF 2
ENDMDL
MODEL 8
REMARK VINA RESULT:      -5.6      1.957      5.873
REMARK  Name = 
REMARK  2 active torsions:
REMARK  status: ('A' for Active; 'I' for Inactive)
REMARK    1  A    between atoms: N_1  and  C_2
REMARK    2  A    between atoms: N_1  and  C_11
REMARK                            x       y       z     vdW  Elec       q    Type
REMARK                         _______ _______ _______ _____ _____    ______ ____
ROOT
ATOM      1  C   UNL     1       8.754  -1.786  23.067  0.00  0.00    +0.058 A 
ATOM      2  C   UNL     1       8.153  -0.513  22.822  0.00  0.00    +0.040 A 
ATOM      3  C   UNL     1       8.990   0.150  21.929  0.00  0.00    +0.140 A 
ATOM      4  N   UNL     1       8.784   1.345  21.345  0.00  0.00    -0.237 NA
ATOM      5  C   UNL     1       7.621   1.924  21.726  0.00  0.00    +0.113 A 
ATOM      6  C   UNL     1       6.725   1.408  22.650  0.00  0.00    +0.020 A 
ATOM      7  N   UNL     1      10.101  -0.626  21.740  0.00  0.00    -0.344 N 
ATOM      8  H   UNL     1      10.876  -0.351  21.154  0.00  0.00    +0.167 HD
ATOM      9  C   UNL     1       6.993   0.171  23.231  0.00  0.00    +0.015 A 
ATOM     10  C   UNL     1       9.984  -1.798  22.447  0.00  0.00    +0.108 A 
ENDROOT
BRANCH   1  11
ATOM     11  N   UNL     1       8.265  -2.818  23.796  0.00  0.00    -0.313 N 
ATOM     12  H   UNL     1       8.752  -3.097  24.645  0.00  0.00    +0.152 HD
BRANCH  11  13
ATOM     13  C   UNL     1       7.310  -3.788  23.410  0.00  0.00    +0.031 A 
ATOM     14  C   UNL     1       7.175  -4.114  22.057  0.00  0.00    +0.023 A 
ATOM     15  C   UNL     1       6.362  -5.179  21.659  0.00  0.00    +0.002 A 
ATOM     16  C   UNL     1       5.670  -5.929  22.610  0.00  0.00    +0.000 A 
ATOM     17  C   UNL     1       5.760  -5.590  23.954  0.00  0.00    +0.002 A 
ATOM     18  C   UNL     1       6.566  -4.521  24.347  0.00  0.00    +0.023 A 
ENDBRANCH  11  13
ENDBRANCH   1  11
TORSDOF 2
ENDMDL
MODEL 9
REMARK VINA RESULT:      -5.6      1.879      5.794
REMARK  Name = 
REMARK  2 active torsions:
REMARK  status: ('A' for Active; 'I' for Inactive)
REMARK    1  A    between atoms: N_1  and  C_2
REMARK    2  A    between atoms: N_1  and  C_11
REMARK                            x       y       z     vdW  Elec       q    Type
REMARK                         _______ _______ _______ _____ _____    ______ ____
ROOT
ATOM      1  C   UNL     1       7.157  -1.639  23.835  0.00  0.00    +0.058 A 
ATOM      2  C   UNL     1       7.842  -0.772  22.928  0.00  0.00    +0.040 A 
ATOM      3  C   UNL     1       7.198   0.459  23.002  0.00  0.00    +0.140 A 
ATOM      4  N   UNL     1       7.549   1.606  22.390  0.00  0.00    -0.237 NA
ATOM      5  C   UNL     1       8.651   1.474  21.616  0.00  0.00    +0.113 A 
ATOM      6  C   UNL     1       9.355   0.298  21.403  0.00  0.00    +0.020 A 
ATOM      7  N   UNL     1       6.106   0.314  23.813  0.00  0.00    -0.344 N 
ATOM      8  H   UNL     1       5.454   1.061  24.004  0.00  0.00    +0.167 HD
ATOM      9  C   UNL     1       8.941  -0.862  22.053  0.00  0.00    +0.015 A 
ATOM     10  C   UNL     1       6.053  -0.966  24.307  0.00  0.00    +0.108 A 
ENDROOT
BRANCH   1  11
ATOM     11  N   UNL     1       7.473  -2.911  24.178  0.00  0.00    -0.313 N 
ATOM     12  H   UNL     1       8.257  -3.072  24.807  0.00  0.00    +0.152 HD
BRANCH  11  13
ATOM     13  C   UNL     1       7.052  -4.115  23.564  0.00  0.00    +0.031 A 
ATOM     14  C   UNL     1       6.046  -4.875  24.168  0.00  0.00    +0.023 A 
ATOM     15  C   UNL     1       5.494  -5.978  23.509  0.00  0.00    +0.002 A 
ATOM     16  C   UNL     1       5.945  -6.335  22.239  0.00  0.00    +0.000 A 
ATOM     17  C   UNL     1       6.974  -5.616  21.645  0.00  0.00    +0.002 A 
ATOM     18  C   UNL     1       7.529  -4.520  22.309  0.00  0.00    +0.023 A 
ENDBRANCH  11  13
ENDBRANCH   1  11
TORSDOF 2
ENDMDL
