MODEL 1
REMARK VINA RESULT:      -7.4      0.000      0.000
REMARK  Name = 
REMARK  9 active torsions:
REMARK  status: ('A' for Active; 'I' for Inactive)
REMARK    1  A    between atoms: C_2  and  C_3
REMARK    2  A    between atoms: C_2  and  C_4
REMARK    3  A    between atoms: C_2  and  N_13
REMARK    4  A    between atoms: C_4  and  C_5
REMARK    5  A    between atoms: C_5  and  C_6
REMARK    6  A    between atoms: C_9  and  O_10
REMARK    7  A    between atoms: C_14  and  C_16
REMARK    8  A    between atoms: C_16  and  C_17
REMARK    9  A    between atoms: C_18  and  C_26
REMARK                            x       y       z     vdW  Elec       q    Type
REMARK                         _______ _______ _______ _____ _____    ______ ____
ROOT
ATOM      1  C   UNL     1       7.712   3.019  24.310  0.00  0.00    +0.133 C 
ENDROOT
BRANCH   1   2
ATOM      2  C   UNL     1       9.143   3.363  23.977  0.00  0.00    -0.006 A 
ATOM      3  C   UNL     1       9.828   4.612  24.212  0.00  0.00    +0.004 A 
ATOM      4  C   UNL     1       9.473   5.864  24.758  0.00  0.00    +0.010 A 
ATOM      5  C   UNL     1      10.411   6.885  24.907  0.00  0.00    +0.001 A 
ATOM      6  C   UNL     1      11.707   6.703  24.446  0.00  0.00    +0.002 A 
ATOM      7  C   UNL     1      12.086   5.504  23.840  0.00  0.00    +0.026 A 
ATOM      8  C   UNL     1      11.133   4.479  23.750  0.00  0.00    +0.047 A 
ATOM      9  N   UNL     1      11.233   3.221  23.211  0.00  0.00    -0.354 N 
ATOM     10  H   UNL     1      12.073   2.863  22.781  0.00  0.00    +0.166 HD
ATOM     11  C   UNL     1      10.049   2.520  23.319  0.00  0.00    +0.051 A 
BRANCH  11  12
ATOM     12  C   UNL     1       9.914   1.160  22.760  0.00  0.00    -0.001 A 
ATOM     13  C   UNL     1      10.466   0.042  23.400  0.00  0.00    +0.010 A 
ATOM     14  C   UNL     1      10.293  -1.247  22.886  0.00  0.00    +0.001 A 
ATOM     15  C   UNL     1       9.594  -1.438  21.700  0.00  0.00    +0.000 A 
ATOM     16  C   UNL     1       9.063  -0.339  21.031  0.00  0.00    +0.001 A 
ATOM     17  C   UNL     1       9.214   0.947  21.561  0.00  0.00    +0.010 A 
ENDBRANCH  11  12
ENDBRANCH   1   2
BRANCH   1  20
ATOM     18  N   UNL     1       7.416   0.723  25.095  0.00  0.00    -0.312 N 
ATOM     19  H   UNL     1       7.585   0.510  24.119  0.00  0.00    +0.149 HD
ATOM     20  C   UNL     1       7.522   2.054  25.466  0.00  0.00    +0.218 C 
ATOM     21  O   UNL     1       7.470   2.455  26.625  0.00  0.00    -0.275 OA
BRANCH  18  22
ATOM     22  C   UNL     1       7.383  -0.432  26.011  0.00  0.00    +0.070 C 
ATOM     23  C   UNL     1       8.748  -0.775  26.610  0.00  0.00    +0.028 C 
BRANCH  22  24
ATOM     24  C   UNL     1       6.703  -1.644  25.342  0.00  0.00    +0.026 C 
BRANCH  24  25
ATOM     25  C   UNL     1       7.642  -2.809  25.021  0.00  0.00    +0.037 C 
BRANCH  25  26
ATOM     26  C   UNL     1       7.198  -3.569  23.790  0.00  0.00    -0.047 A 
ATOM     27  C   UNL     1       6.353  -2.972  22.846  0.00  0.00    +0.007 A 
ATOM     28  C   UNL     1       5.951  -3.678  21.710  0.00  0.00    +0.045 A 
ATOM     29  C   UNL     1       6.398  -4.979  21.508  0.00  0.00    +0.117 A 
ATOM     30  C   UNL     1       7.241  -5.589  22.430  0.00  0.00    +0.045 A 
ATOM     31  C   UNL     1       7.644  -4.883  23.567  0.00  0.00    +0.007 A 
BRANCH  29  32
ATOM     32  O   UNL     1       5.987  -5.627  20.382  0.00  0.00    -0.507 OA
ATOM     33  H   UNL     1       6.737  -5.686  19.768  0.00  0.00    +0.292 HD
ENDBRANCH  29  32
ENDBRANCH  25  26
ENDBRANCH  24  25
ENDBRANCH  22  24
ENDBRANCH  18  22
ENDBRANCH   1  20
TORSDOF 8
ENDMDL
MODEL 2
REMARK VINA RESULT:      -7.4      2.957      5.043
REMARK  Name = 
REMARK  9 active torsions:
REMARK  status: ('A' for Active; 'I' for Inactive)
REMARK    1  A    between atoms: C_2  and  C_3
REMARK    2  A    between atoms: C_2  and  C_4
REMARK    3  A    between atoms: C_2  and  N_13
REMARK    4  A    between atoms: C_4  and  C_5
REMARK    5  A    between atoms: C_5  and  C_6
REMARK    6  A    between atoms: C_9  and  O_10
REMARK    7  A    between atoms: C_14  and  C_16
REMARK    8  A    between atoms: C_16  and  C_17
REMARK    9  A    between atoms: C_18  and  C_26
REMARK                            x       y       z     vdW  Elec       q    Type
REMARK                         _______ _______ _______ _____ _____    ______ ____
ROOT
ATOM      1  C   UNL     1       8.988  -2.728  25.445  0.00  0.00    +0.133 C 
ENDROOT
BRANCH   1   2
ATOM      2  C   UNL     1       8.972  -1.946  24.154  0.00  0.00    -0.006 A 
ATOM      3  C   UNL     1       9.521  -0.633  23.911  0.00  0.00    +0.004 A 
ATOM      4  C   UNL     1      10.191   0.335  24.689  0.00  0.00    +0.010 A 
ATOM      5  C   UNL     1      10.665   1.519  24.127  0.00  0.00    +0.001 A 
ATOM      6  C   UNL     1      10.416   1.796  22.791  0.00  0.00    +0.002 A 
ATOM      7  C   UNL     1       9.701   0.897  21.998  0.00  0.00    +0.026 A 
ATOM      8  C   UNL     1       9.281  -0.309  22.580  0.00  0.00    +0.047 A 
ATOM      9  N   UNL     1       8.573  -1.353  22.042  0.00  0.00    -0.354 N 
ATOM     10  H   UNL     1       8.245  -1.372  21.087  0.00  0.00    +0.166 HD
ATOM     11  C   UNL     1       8.356  -2.357  22.964  0.00  0.00    +0.051 A 
BRANCH  11  12
ATOM     12  C   UNL     1       7.571  -3.557  22.614  0.00  0.00    -0.001 A 
ATOM     13  C   UNL     1       6.474  -3.493  21.744  0.00  0.00    +0.010 A 
ATOM     14  C   UNL     1       5.765  -4.643  21.383  0.00  0.00    +0.001 A 
ATOM     15  C   UNL     1       6.120  -5.877  21.917  0.00  0.00    +0.000 A 
ATOM     16  C   UNL     1       7.187  -5.961  22.805  0.00  0.00    +0.001 A 
ATOM     17  C   UNL     1       7.912  -4.813  23.144  0.00  0.00    +0.010 A 
ENDBRANCH  11  12
ENDBRANCH   1   2
BRANCH   1  20
ATOM     18  N   UNL     1       7.081  -3.771  26.563  0.00  0.00    -0.312 N 
ATOM     19  H   UNL     1       7.529  -4.621  26.242  0.00  0.00    +0.149 HD
ATOM     20  C   UNL     1       7.753  -2.584  26.314  0.00  0.00    +0.218 C 
ATOM     21  O   UNL     1       7.404  -1.489  26.745  0.00  0.00    -0.275 OA
BRANCH  18  22
ATOM     22  C   UNL     1       5.951  -3.948  27.493  0.00  0.00    +0.070 C 
ATOM     23  C   UNL     1       5.991  -5.275  28.254  0.00  0.00    +0.028 C 
BRANCH  22  24
ATOM     24  C   UNL     1       4.607  -3.712  26.776  0.00  0.00    +0.026 C 
BRANCH  24  25
ATOM     25  C   UNL     1       4.681  -3.749  25.247  0.00  0.00    +0.037 C 
BRANCH  25  26
ATOM     26  C   UNL     1       3.953  -4.946  24.675  0.00  0.00    -0.047 A 
ATOM     27  C   UNL     1       2.965  -4.783  23.695  0.00  0.00    +0.007 A 
ATOM     28  C   UNL     1       2.301  -5.893  23.169  0.00  0.00    +0.045 A 
ATOM     29  C   UNL     1       2.627  -7.169  23.612  0.00  0.00    +0.117 A 
ATOM     30  C   UNL     1       3.606  -7.355  24.581  0.00  0.00    +0.045 A 
ATOM     31  C   UNL     1       4.272  -6.244  25.108  0.00  0.00    +0.007 A 
BRANCH  29  32
ATOM     32  O   UNL     1       1.958  -8.224  23.065  0.00  0.00    -0.507 OA
ATOM     33  H   UNL     1       2.500  -9.023  23.173  0.00  0.00    +0.292 HD
ENDBRANCH  29  32
ENDBRANCH  25  26
ENDBRANCH  24  25
ENDBRANCH  22  24
ENDBRANCH  18  22
ENDBRANCH   1  20
TORSDOF 8
ENDMDL
MODEL 3
REMARK VINA RESULT:      -7.3      2.849      6.033
REMARK  Name = 
REMARK  9 active torsions:
REMARK  status: ('A' for Active; 'I' for Inactive)
REMARK    1  A    between atoms: C_2  and  C_3
REMARK    2  A    between atoms: C_2  and  C_4
REMARK    3  A    between atoms: C_2  and  N_13
REMARK    4  A    between atoms: C_4  and  C_5
REMARK    5  A    between atoms: C_5  and  C_6
REMARK    6  A    between atoms: C_9  and  O_10
REMARK    7  A    between atoms: C_14  and  C_16
REMARK    8  A    between atoms: C_16  and  C_17
REMARK    9  A    between atoms: C_18  and  C_26
REMARK                            x       y       z     vdW  Elec       q    Type
REMARK                         _______ _______ _______ _____ _____    ______ ____
ROOT
ATOM      1  C   UNL     1       9.087  -3.230  25.106  0.00  0.00    +0.133 C 
ENDROOT
BRANCH   1   2
ATOM      2  C   UNL     1       8.859  -2.410  23.860  0.00  0.00    -0.006 A 
ATOM      3  C   UNL     1       9.414  -1.116  23.542  0.00  0.00    +0.004 A 
ATOM      4  C   UNL     1      10.269  -0.202  24.195  0.00  0.00    +0.010 A 
ATOM      5  C   UNL     1      10.682   0.976  23.576  0.00  0.00    +0.001 A 
ATOM      6  C   UNL     1      10.193   1.304  22.320  0.00  0.00    +0.002 A 
ATOM      7  C   UNL     1       9.294   0.462  21.663  0.00  0.00    +0.026 A 
ATOM      8  C   UNL     1       8.937  -0.741  22.291  0.00  0.00    +0.047 A 
ATOM      9  N   UNL     1       8.088  -1.736  21.879  0.00  0.00    -0.354 N 
ATOM     10  H   UNL     1       7.580  -1.713  21.007  0.00  0.00    +0.166 HD
ATOM     11  C   UNL     1       8.005  -2.758  22.804  0.00  0.00    +0.051 A 
BRANCH  11  12
ATOM     12  C   UNL     1       7.109  -3.911  22.590  0.00  0.00    -0.001 A 
ATOM     13  C   UNL     1       7.568  -5.105  22.017  0.00  0.00    +0.010 A 
ATOM     14  C   UNL     1       6.722  -6.207  21.860  0.00  0.00    +0.001 A 
ATOM     15  C   UNL     1       5.388  -6.123  22.242  0.00  0.00    +0.000 A 
ATOM     16  C   UNL     1       4.902  -4.938  22.786  0.00  0.00    +0.001 A 
ATOM     17  C   UNL     1       5.757  -3.845  22.966  0.00  0.00    +0.010 A 
ENDBRANCH  11  12
ENDBRANCH   1   2
BRANCH   1  20
ATOM     18  N   UNL     1       7.422  -1.793  26.172  0.00  0.00    -0.312 N 
ATOM     19  H   UNL     1       7.568  -1.234  25.340  0.00  0.00    +0.149 HD
ATOM     20  C   UNL     1       8.095  -3.003  26.231  0.00  0.00    +0.218 C 
ATOM     21  O   UNL     1       7.928  -3.845  27.109  0.00  0.00    -0.275 OA
BRANCH  18  22
ATOM     22  C   UNL     1       6.301  -1.381  27.037  0.00  0.00    +0.070 C 
ATOM     23  C   UNL     1       4.973  -2.047  26.673  0.00  0.00    +0.028 C 
BRANCH  22  24
ATOM     24  C   UNL     1       6.199   0.156  27.108  0.00  0.00    +0.026 C 
BRANCH  24  25
ATOM     25  C   UNL     1       7.472   0.903  26.700  0.00  0.00    +0.037 C 
BRANCH  25  26
ATOM     26  C   UNL     1       7.286   1.671  25.411  0.00  0.00    -0.047 A 
ATOM     27  C   UNL     1       7.938   2.894  25.206  0.00  0.00    +0.007 A 
ATOM     28  C   UNL     1       7.766   3.596  24.011  0.00  0.00    +0.045 A 
ATOM     29  C   UNL     1       6.950   3.076  23.013  0.00  0.00    +0.117 A 
ATOM     30  C   UNL     1       6.297   1.862  23.193  0.00  0.00    +0.045 A 
ATOM     31  C   UNL     1       6.469   1.159  24.389  0.00  0.00    +0.007 A 
BRANCH  29  32
ATOM     32  O   UNL     1       6.818   3.791  21.860  0.00  0.00    -0.507 OA
ATOM     33  H   UNL     1       6.125   3.379  21.319  0.00  0.00    +0.292 HD
ENDBRANCH  29  32
ENDBRANCH  25  26
ENDBRANCH  24  25
ENDBRANCH  22  24
ENDBRANCH  18  22
ENDBRANCH   1  20
TORSDOF 8
ENDMDL
MODEL 4
REMARK VINA RESULT:      -7.3      3.099      6.268
REMARK  Name = 
REMARK  9 active torsions:
REMARK  status: ('A' for Active; 'I' for Inactive)
REMARK    1  A    between atoms: C_2  and  C_3
REMARK    2  A    between atoms: C_2  and  C_4
REMARK    3  A    between atoms: C_2  and  N_13
REMARK    4  A    between atoms: C_4  and  C_5
REMARK    5  A    between atoms: C_5  and  C_6
REMARK    6  A    between atoms: C_9  and  O_10
REMARK    7  A    between atoms: C_14  and  C_16
REMARK    8  A    between atoms: C_16  and  C_17
REMARK    9  A    between atoms: C_18  and  C_26
REMARK                            x       y       z     vdW  Elec       q    Type
REMARK                         _______ _______ _______ _____ _____    ______ ____
ROOT
ATOM      1  C   UNL     1       5.873  -0.527  24.262  0.00  0.00    +0.133 C 
ENDROOT
BRANCH   1   2
ATOM      2  C   UNL     1       6.654  -1.604  23.550  0.00  0.00    -0.006 A 
ATOM      3  C   UNL     1       6.197  -2.921  23.172  0.00  0.00    +0.004 A 
ATOM      4  C   UNL     1       4.996  -3.647  23.318  0.00  0.00    +0.010 A 
ATOM      5  C   UNL     1       4.845  -4.920  22.771  0.00  0.00    +0.001 A 
ATOM      6  C   UNL     1       5.915  -5.527  22.130  0.00  0.00    +0.002 A 
ATOM      7  C   UNL     1       7.144  -4.872  22.019  0.00  0.00    +0.026 A 
ATOM      8  C   UNL     1       7.248  -3.572  22.535  0.00  0.00    +0.047 A 
ATOM      9  N   UNL     1       8.317  -2.714  22.564  0.00  0.00    -0.354 N 
ATOM     10  H   UNL     1       9.226  -2.940  22.186  0.00  0.00    +0.166 HD
ATOM     11  C   UNL     1       8.002  -1.518  23.178  0.00  0.00    +0.051 A 
BRANCH  11  12
ATOM     12  C   UNL     1       9.019  -0.464  23.364  0.00  0.00    -0.001 A 
ATOM     13  C   UNL     1       9.306   0.469  22.359  0.00  0.00    +0.010 A 
ATOM     14  C   UNL     1      10.237   1.492  22.561  0.00  0.00    +0.001 A 
ATOM     15  C   UNL     1      10.928   1.578  23.765  0.00  0.00    +0.000 A 
ATOM     16  C   UNL     1      10.681   0.645  24.767  0.00  0.00    +0.001 A 
ATOM     17  C   UNL     1       9.729  -0.362  24.572  0.00  0.00    +0.010 A 
ENDBRANCH  11  12
ENDBRANCH   1   2
BRANCH   1  20
ATOM     18  N   UNL     1       4.472  -1.494  26.017  0.00  0.00    -0.312 N 
ATOM     19  H   UNL     1       3.980  -1.885  25.222  0.00  0.00    +0.149 HD
ATOM     20  C   UNL     1       5.620  -0.768  25.739  0.00  0.00    +0.218 C 
ATOM     21  O   UNL     1       6.390  -0.338  26.593  0.00  0.00    -0.275 OA
BRANCH  18  22
ATOM     22  C   UNL     1       4.068  -2.003  27.341  0.00  0.00    +0.070 C 
ATOM     23  C   UNL     1       3.720  -0.897  28.339  0.00  0.00    +0.028 C 
BRANCH  22  24
ATOM     24  C   UNL     1       5.114  -2.994  27.889  0.00  0.00    +0.026 C 
BRANCH  24  25
ATOM     25  C   UNL     1       5.238  -4.299  27.098  0.00  0.00    +0.037 C 
BRANCH  25  26
ATOM     26  C   UNL     1       6.628  -4.485  26.530  0.00  0.00    -0.047 A 
ATOM     27  C   UNL     1       6.947  -5.623  25.778  0.00  0.00    +0.007 A 
ATOM     28  C   UNL     1       8.232  -5.785  25.253  0.00  0.00    +0.045 A 
ATOM     29  C   UNL     1       9.197  -4.809  25.469  0.00  0.00    +0.117 A 
ATOM     30  C   UNL     1       8.900  -3.670  26.209  0.00  0.00    +0.045 A 
ATOM     31  C   UNL     1       7.615  -3.507  26.734  0.00  0.00    +0.007 A 
BRANCH  29  32
ATOM     32  O   UNL     1      10.434  -5.006  24.930  0.00  0.00    -0.507 OA
ATOM     33  H   UNL     1      11.045  -5.253  25.643  0.00  0.00    +0.292 HD
ENDBRANCH  29  32
ENDBRANCH  25  26
ENDBRANCH  24  25
ENDBRANCH  22  24
ENDBRANCH  18  22
ENDBRANCH   1  20
TORSDOF 8
ENDMDL
MODEL 5
REMARK VINA RESULT:      -7.3      2.009      2.687
REMARK  Name = 
REMARK  9 active torsions:
REMARK  status: ('A' for Active; 'I' for Inactive)
REMARK    1  A    between atoms: C_2  and  C_3
REMARK    2  A    between atoms: C_2  and  C_4
REMARK    3  A    between atoms: C_2  and  N_13
REMARK    4  A    between atoms: C_4  and  C_5
REMARK    5  A    between atoms: C_5  and  C_6
REMARK    6  A    between atoms: C_9  and  O_10
REMARK    7  A    between atoms: C_14  and  C_16
REMARK    8  A    between atoms: C_16  and  C_17
REMARK    9  A    between atoms: C_18  and  C_26
REMARK                            x       y       z     vdW  Elec       q    Type
REMARK                         _______ _______ _______ _____ _____    ______ ____
ROOT
ATOM      1  C   UNL     1       6.578   2.510  22.617  0.00  0.00    +0.133 C 
ENDROOT
BRANCH   1   2
ATOM      2  C   UNL     1       7.885   3.110  23.074  0.00  0.00    -0.006 A 
ATOM      3  C   UNL     1       8.171   4.499  23.344  0.00  0.00    +0.004 A 
ATOM      4  C   UNL     1       7.442   5.705  23.277  0.00  0.00    +0.010 A 
ATOM      5  C   UNL     1       8.004   6.917  23.677  0.00  0.00    +0.001 A 
ATOM      6  C   UNL     1       9.329   6.963  24.083  0.00  0.00    +0.002 A 
ATOM      7  C   UNL     1      10.108   5.804  24.103  0.00  0.00    +0.026 A 
ATOM      8  C   UNL     1       9.499   4.592  23.743  0.00  0.00    +0.047 A 
ATOM      9  N   UNL     1      10.021   3.326  23.675  0.00  0.00    -0.354 N 
ATOM     10  H   UNL     1      10.982   3.105  23.891  0.00  0.00    +0.166 HD
ATOM     11  C   UNL     1       9.080   2.403  23.263  0.00  0.00    +0.051 A 
BRANCH  11  12
ATOM     12  C   UNL     1       9.437   0.983  23.072  0.00  0.00    -0.001 A 
ATOM     13  C   UNL     1       9.409   0.380  21.807  0.00  0.00    +0.010 A 
ATOM     14  C   UNL     1       9.793  -0.952  21.629  0.00  0.00    +0.001 A 
ATOM     15  C   UNL     1      10.178  -1.719  22.723  0.00  0.00    +0.000 A 
ATOM     16  C   UNL     1      10.185  -1.150  23.993  0.00  0.00    +0.001 A 
ATOM     17  C   UNL     1       9.826   0.191  24.165  0.00  0.00    +0.010 A 
ENDBRANCH  11  12
ENDBRANCH   1   2
BRANCH   1  20
ATOM     18  N   UNL     1       6.113   0.833  24.334  0.00  0.00    -0.312 N 
ATOM     19  H   UNL     1       7.036   0.505  24.074  0.00  0.00    +0.149 HD
ATOM     20  C   UNL     1       5.672   1.994  23.720  0.00  0.00    +0.218 C 
ATOM     21  O   UNL     1       4.637   2.584  24.018  0.00  0.00    -0.275 OA
BRANCH  18  22
ATOM     22  C   UNL     1       5.519   0.205  25.528  0.00  0.00    +0.070 C 
ATOM     23  C   UNL     1       6.266   0.528  26.824  0.00  0.00    +0.028 C 
BRANCH  22  24
ATOM     24  C   UNL     1       5.327  -1.311  25.313  0.00  0.00    +0.026 C 
BRANCH  24  25
ATOM     25  C   UNL     1       6.092  -1.890  24.120  0.00  0.00    +0.037 C 
BRANCH  25  26
ATOM     26  C   UNL     1       7.089  -2.945  24.547  0.00  0.00    -0.047 A 
ATOM     27  C   UNL     1       7.439  -3.990  23.683  0.00  0.00    +0.007 A 
ATOM     28  C   UNL     1       8.364  -4.958  24.084  0.00  0.00    +0.045 A 
ATOM     29  C   UNL     1       8.948  -4.880  25.342  0.00  0.00    +0.117 A 
ATOM     30  C   UNL     1       8.618  -3.848  26.214  0.00  0.00    +0.045 A 
ATOM     31  C   UNL     1       7.692  -2.880  25.814  0.00  0.00    +0.007 A 
BRANCH  29  32
ATOM     32  O   UNL     1       9.851  -5.841  25.687  0.00  0.00    -0.507 OA
ATOM     33  H   UNL     1       9.759  -6.586  25.071  0.00  0.00    +0.292 HD
ENDBRANCH  29  32
ENDBRANCH  25  26
ENDBRANCH  24  25
ENDBRANCH  22  24
ENDBRANCH  18  22
ENDBRANCH   1  20
TORSDOF 8
ENDMDL
MODEL 6
REMARK VINA RESULT:      -7.3      3.199      6.837
REMARK  Name = 
REMARK  9 active torsions:
REMARK  status: ('A' for Active; 'I' for Inactive)
REMARK    1  A    between atoms: C_2  and  C_3
REMARK    2  A    between atoms: C_2  and  C_4
REMARK    3  A    between atoms: C_2  and  N_13
REMARK    4  A    between atoms: C_4  and  C_5
REMARK    5  A    between atoms: C_5  and  C_6
REMARK    6  A    between atoms: C_9  and  O_10
REMARK    7  A    between atoms: C_14  and  C_16
REMARK    8  A    between atoms: C_16  and  C_17
REMARK    9  A    between atoms: C_18  and  C_26
REMARK                            x       y       z     vdW  Elec       q    Type
REMARK                         _______ _______ _______ _____ _____    ______ ____
ROOT
ATOM      1  C   UNL     1       9.396  -3.576  24.808  0.00  0.00    +0.133 C 
ENDROOT
BRANCH   1   2
ATOM      2  C   UNL     1       8.451  -3.365  23.651  0.00  0.00    -0.006 A 
ATOM      3  C   UNL     1       7.659  -4.359  22.966  0.00  0.00    +0.004 A 
ATOM      4  C   UNL     1       7.488  -5.756  23.076  0.00  0.00    +0.010 A 
ATOM      5  C   UNL     1       6.570  -6.440  22.280  0.00  0.00    +0.001 A 
ATOM      6  C   UNL     1       5.857  -5.757  21.306  0.00  0.00    +0.002 A 
ATOM      7  C   UNL     1       6.042  -4.386  21.118  0.00  0.00    +0.026 A 
ATOM      8  C   UNL     1       6.935  -3.717  21.969  0.00  0.00    +0.047 A 
ATOM      9  N   UNL     1       7.302  -2.396  22.004  0.00  0.00    -0.354 N 
ATOM     10  H   UNL     1       6.942  -1.698  21.369  0.00  0.00    +0.166 HD
ATOM     11  C   UNL     1       8.224  -2.144  23.000  0.00  0.00    +0.051 A 
BRANCH  11  12
ATOM     12  C   UNL     1       8.796  -0.797  23.188  0.00  0.00    -0.001 A 
ATOM     13  C   UNL     1       9.600  -0.193  22.211  0.00  0.00    +0.010 A 
ATOM     14  C   UNL     1      10.099   1.102  22.379  0.00  0.00    +0.001 A 
ATOM     15  C   UNL     1       9.830   1.806  23.548  0.00  0.00    +0.000 A 
ATOM     16  C   UNL     1       9.059   1.217  24.544  0.00  0.00    +0.001 A 
ATOM     17  C   UNL     1       8.539  -0.069  24.362  0.00  0.00    +0.010 A 
ENDBRANCH  11  12
ENDBRANCH   1   2
BRANCH   1  20
ATOM     18  N   UNL     1       7.402  -3.692  26.217  0.00  0.00    -0.312 N 
ATOM     19  H   UNL     1       6.957  -3.321  25.386  0.00  0.00    +0.149 HD
ATOM     20  C   UNL     1       8.749  -4.001  26.113  0.00  0.00    +0.218 C 
ATOM     21  O   UNL     1       9.398  -4.570  26.987  0.00  0.00    -0.275 OA
BRANCH  18  22
ATOM     22  C   UNL     1       6.495  -4.123  27.298  0.00  0.00    +0.070 C 
ATOM     23  C   UNL     1       6.772  -5.542  27.796  0.00  0.00    +0.028 C 
BRANCH  22  24
ATOM     24  C   UNL     1       5.022  -3.908  26.895  0.00  0.00    +0.026 C 
BRANCH  24  25
ATOM     25  C   UNL     1       4.790  -3.702  25.396  0.00  0.00    +0.037 C 
BRANCH  25  26
ATOM     26  C   UNL     1       4.093  -4.887  24.765  0.00  0.00    -0.047 A 
ATOM     27  C   UNL     1       4.338  -6.189  25.223  0.00  0.00    +0.007 A 
ATOM     28  C   UNL     1       3.687  -7.278  24.638  0.00  0.00    +0.045 A 
ATOM     29  C   UNL     1       2.784  -7.071  23.603  0.00  0.00    +0.117 A 
ATOM     30  C   UNL     1       2.523  -5.788  23.135  0.00  0.00    +0.045 A 
ATOM     31  C   UNL     1       3.174  -4.697  23.720  0.00  0.00    +0.007 A 
BRANCH  29  32
ATOM     32  O   UNL     1       2.166  -8.162  23.068  0.00  0.00    -0.507 OA
ATOM     33  H   UNL     1       2.781  -8.594  22.453  0.00  0.00    +0.292 HD
ENDBRANCH  29  32
ENDBRANCH  25  26
ENDBRANCH  24  25
ENDBRANCH  22  24
ENDBRANCH  18  22
ENDBRANCH   1  20
TORSDOF 8
ENDMDL
MODEL 7
REMARK VINA RESULT:      -7.2      3.172      7.740
REMARK  Name = 
REMARK  9 active torsions:
REMARK  status: ('A' for Active; 'I' for Inactive)
REMARK    1  A    between atoms: C_2  and  C_3
REMARK    2  A    between atoms: C_2  and  C_4
REMARK    3  A    between atoms: C_2  and  N_13
REMARK    4  A    between atoms: C_4  and  C_5
REMARK    5  A    between atoms: C_5  and  C_6
REMARK    6  A    between atoms: C_9  and  O_10
REMARK    7  A    between atoms: C_14  and  C_16
REMARK    8  A    between atoms: C_16  and  C_17
REMARK    9  A    between atoms: C_18  and  C_26
REMARK                            x       y       z     vdW  Elec       q    Type
REMARK                         _______ _______ _______ _____ _____    ______ ____
ROOT
ATOM      1  C   UNL     1       8.019  -3.487  26.513  0.00  0.00    +0.133 C 
ENDROOT
BRANCH   1   2
ATOM      2  C   UNL     1       7.291  -4.108  25.346  0.00  0.00    -0.006 A 
ATOM      3  C   UNL     1       6.286  -5.144  25.383  0.00  0.00    +0.004 A 
ATOM      4  C   UNL     1       5.672  -5.911  26.397  0.00  0.00    +0.010 A 
ATOM      5  C   UNL     1       4.656  -6.820  26.106  0.00  0.00    +0.001 A 
ATOM      6  C   UNL     1       4.282  -7.037  24.788  0.00  0.00    +0.002 A 
ATOM      7  C   UNL     1       4.906  -6.348  23.747  0.00  0.00    +0.026 A 
ATOM      8  C   UNL     1       5.890  -5.403  24.076  0.00  0.00    +0.047 A 
ATOM      9  N   UNL     1       6.651  -4.599  23.267  0.00  0.00    -0.354 N 
ATOM     10  H   UNL     1       6.586  -4.598  22.260  0.00  0.00    +0.166 HD
ATOM     11  C   UNL     1       7.518  -3.810  23.996  0.00  0.00    +0.051 A 
BRANCH  11  12
ATOM     12  C   UNL     1       8.469  -2.901  23.325  0.00  0.00    -0.001 A 
ATOM     13  C   UNL     1       8.148  -2.251  22.127  0.00  0.00    +0.010 A 
ATOM     14  C   UNL     1       9.037  -1.357  21.523  0.00  0.00    +0.001 A 
ATOM     15  C   UNL     1      10.284  -1.124  22.093  0.00  0.00    +0.000 A 
ATOM     16  C   UNL     1      10.637  -1.780  23.267  0.00  0.00    +0.001 A 
ATOM     17  C   UNL     1       9.735  -2.654  23.883  0.00  0.00    +0.010 A 
ENDBRANCH  11  12
ENDBRANCH   1   2
BRANCH   1  20
ATOM     18  N   UNL     1       6.430  -1.630  26.584  0.00  0.00    -0.312 N 
ATOM     19  H   UNL     1       5.758  -2.375  26.447  0.00  0.00    +0.149 HD
ATOM     20  C   UNL     1       7.754  -2.010  26.740  0.00  0.00    +0.218 C 
ATOM     21  O   UNL     1       8.664  -1.241  27.035  0.00  0.00    -0.275 OA
BRANCH  18  22
ATOM     22  C   UNL     1       5.868  -0.302  26.893  0.00  0.00    +0.070 C 
ATOM     23  C   UNL     1       4.697  -0.350  27.877  0.00  0.00    +0.028 C 
BRANCH  22  24
ATOM     24  C   UNL     1       5.528   0.464  25.598  0.00  0.00    +0.026 C 
BRANCH  24  25
ATOM     25  C   UNL     1       6.207  -0.076  24.336  0.00  0.00    +0.037 C 
BRANCH  25  26
ATOM     26  C   UNL     1       7.332   0.822  23.874  0.00  0.00    -0.047 A 
ATOM     27  C   UNL     1       8.480   0.994  24.659  0.00  0.00    +0.007 A 
ATOM     28  C   UNL     1       9.518   1.822  24.223  0.00  0.00    +0.045 A 
ATOM     29  C   UNL     1       9.417   2.472  22.999  0.00  0.00    +0.117 A 
ATOM     30  C   UNL     1       8.289   2.313  22.202  0.00  0.00    +0.045 A 
ATOM     31  C   UNL     1       7.251   1.485  22.637  0.00  0.00    +0.007 A 
BRANCH  29  32
ATOM     32  O   UNL     1      10.458   3.263  22.610  0.00  0.00    -0.507 OA
ATOM     33  H   UNL     1      10.993   2.774  21.964  0.00  0.00    +0.292 HD
ENDBRANCH  29  32
ENDBRANCH  25  26
ENDBRANCH  24  25
ENDBRANCH  22  24
ENDBRANCH  18  22
ENDBRANCH   1  20
TORSDOF 8
ENDMDL
MODEL 8
REMARK VINA RESULT:      -7.1      2.714      7.234
REMARK  Name = 
REMARK  9 active torsions:
REMARK  status: ('A' for Active; 'I' for Inactive)
REMARK    1  A    between atoms: C_2  and  C_3
REMARK    2  A    between atoms: C_2  and  C_4
REMARK    3  A    between atoms: C_2  and  N_13
REMARK    4  A    between atoms: C_4  and  C_5
REMARK    5  A    between atoms: C_5  and  C_6
REMARK    6  A    between atoms: C_9  and  O_10
REMARK    7  A    between atoms: C_14  and  C_16
REMARK    8  A    between atoms: C_16  and  C_17
REMARK    9  A    between atoms: C_18  and  C_26
REMARK                            x       y       z     vdW  Elec       q    Type
REMARK                         _______ _______ _______ _____ _____    ______ ____
ROOT
ATOM      1  C   UNL     1       8.546  -2.109  25.860  0.00  0.00    +0.133 C 
ENDROOT
BRANCH   1   2
ATOM      2  C   UNL     1       8.160  -2.400  24.431  0.00  0.00    -0.006 A 
ATOM      3  C   UNL     1       7.456  -3.555  23.925  0.00  0.00    +0.004 A 
ATOM      4  C   UNL     1       6.931  -4.737  24.489  0.00  0.00    +0.010 A 
ATOM      5  C   UNL     1       6.228  -5.661  23.718  0.00  0.00    +0.001 A 
ATOM      6  C   UNL     1       6.097  -5.461  22.352  0.00  0.00    +0.002 A 
ATOM      7  C   UNL     1       6.656  -4.338  21.739  0.00  0.00    +0.026 A 
ATOM      8  C   UNL     1       7.314  -3.402  22.551  0.00  0.00    +0.047 A 
ATOM      9  N   UNL     1       7.946  -2.230  22.218  0.00  0.00    -0.354 N 
ATOM     10  H   UNL     1       8.015  -1.882  21.273  0.00  0.00    +0.166 HD
ATOM     11  C   UNL     1       8.479  -1.601  23.325  0.00  0.00    +0.051 A 
BRANCH  11  12
ATOM     12  C   UNL     1       9.247  -0.347  23.193  0.00  0.00    -0.001 A 
ATOM     13  C   UNL     1       9.211   0.420  22.021  0.00  0.00    +0.010 A 
ATOM     14  C   UNL     1       9.905   1.630  21.923  0.00  0.00    +0.001 A 
ATOM     15  C   UNL     1      10.679   2.078  22.988  0.00  0.00    +0.000 A 
ATOM     16  C   UNL     1      10.754   1.318  24.151  0.00  0.00    +0.001 A 
ATOM     17  C   UNL     1      10.037   0.121  24.256  0.00  0.00    +0.010 A 
ENDBRANCH  11  12
ENDBRANCH   1   2
BRANCH   1  20
ATOM     18  N   UNL     1       6.512  -0.759  25.993  0.00  0.00    -0.312 N 
ATOM     19  H   UNL     1       6.195  -1.408  25.283  0.00  0.00    +0.149 HD
ATOM     20  C   UNL     1       7.765  -0.997  26.536  0.00  0.00    +0.218 C 
ATOM     21  O   UNL     1       8.236  -0.378  27.486  0.00  0.00    -0.275 OA
BRANCH  18  22
ATOM     22  C   UNL     1       5.487   0.147  26.543  0.00  0.00    +0.070 C 
ATOM     23  C   UNL     1       4.193  -0.568  26.940  0.00  0.00    +0.028 C 
BRANCH  22  24
ATOM     24  C   UNL     1       5.243   1.340  25.597  0.00  0.00    +0.026 C 
BRANCH  24  25
ATOM     25  C   UNL     1       5.899   1.210  24.219  0.00  0.00    +0.037 C 
BRANCH  25  26
ATOM     26  C   UNL     1       6.659   2.460  23.836  0.00  0.00    -0.047 A 
ATOM     27  C   UNL     1       6.512   3.026  22.563  0.00  0.00    +0.007 A 
ATOM     28  C   UNL     1       7.214   4.183  22.218  0.00  0.00    +0.045 A 
ATOM     29  C   UNL     1       8.057   4.784  23.145  0.00  0.00    +0.117 A 
ATOM     30  C   UNL     1       8.216   4.242  24.415  0.00  0.00    +0.045 A 
ATOM     31  C   UNL     1       7.513   3.084  24.761  0.00  0.00    +0.007 A 
BRANCH  29  32
ATOM     32  O   UNL     1       8.716   5.916  22.767  0.00  0.00    -0.507 OA
ATOM     33  H   UNL     1       8.064   6.559  22.443  0.00  0.00    +0.292 HD
ENDBRANCH  29  32
ENDBRANCH  25  26
ENDBRANCH  24  25
ENDBRANCH  22  24
ENDBRANCH  18  22
ENDBRANCH   1  20
TORSDOF 8
ENDMDL
MODEL 9
REMARK VINA RESULT:      -7.0      2.546      5.669
REMARK  Name = 
REMARK  9 active torsions:
REMARK  status: ('A' for Active; 'I' for Inactive)
REMARK    1  A    between atoms: C_2  and  C_3
REMARK    2  A    between atoms: C_2  and  C_4
REMARK    3  A    between atoms: C_2  and  N_13
REMARK    4  A    between atoms: C_4  and  C_5
REMARK    5  A    between atoms: C_5  and  C_6
REMARK    6  A    between atoms: C_9  and  O_10
REMARK    7  A    between atoms: C_14  and  C_16
REMARK    8  A    between atoms: C_16  and  C_17
REMARK    9  A    between atoms: C_18  and  C_26
REMARK                            x       y       z     vdW  Elec       q    Type
REMARK                         _______ _______ _______ _____ _____    ______ ____
ROOT
ATOM      1  C   UNL     1       7.348  -0.443  26.135  0.00  0.00    +0.133 C 
ENDROOT
BRANCH   1   2
ATOM      2  C   UNL     1       8.201  -1.478  25.444  0.00  0.00    -0.006 A 
ATOM      3  C   UNL     1       8.306  -2.884  25.754  0.00  0.00    +0.004 A 
ATOM      4  C   UNL     1       7.741  -3.744  26.720  0.00  0.00    +0.010 A 
ATOM      5  C   UNL     1       8.005  -5.113  26.718  0.00  0.00    +0.001 A 
ATOM      6  C   UNL     1       8.897  -5.642  25.797  0.00  0.00    +0.002 A 
ATOM      7  C   UNL     1       9.529  -4.819  24.864  0.00  0.00    +0.026 A 
ATOM      8  C   UNL     1       9.204  -3.454  24.859  0.00  0.00    +0.047 A 
ATOM      9  N   UNL     1       9.668  -2.436  24.066  0.00  0.00    -0.354 N 
ATOM     10  H   UNL     1      10.355  -2.564  23.337  0.00  0.00    +0.166 HD
ATOM     11  C   UNL     1       9.095  -1.224  24.395  0.00  0.00    +0.051 A 
BRANCH  11  12
ATOM     12  C   UNL     1       9.486   0.019  23.701  0.00  0.00    -0.001 A 
ATOM     13  C   UNL     1       9.147   0.253  22.362  0.00  0.00    +0.010 A 
ATOM     14  C   UNL     1       9.482   1.454  21.727  0.00  0.00    +0.001 A 
ATOM     15  C   UNL     1      10.196   2.429  22.414  0.00  0.00    +0.000 A 
ATOM     16  C   UNL     1      10.569   2.206  23.735  0.00  0.00    +0.001 A 
ATOM     17  C   UNL     1      10.209   1.016  24.376  0.00  0.00    +0.010 A 
ENDBRANCH  11  12
ENDBRANCH   1   2
BRANCH   1  20
ATOM     18  N   UNL     1       5.192  -1.440  26.715  0.00  0.00    -0.312 N 
ATOM     19  H   UNL     1       5.734  -1.844  27.470  0.00  0.00    +0.149 HD
ATOM     20  C   UNL     1       5.855  -0.550  25.884  0.00  0.00    +0.218 C 
ATOM     21  O   UNL     1       5.310   0.113  25.006  0.00  0.00    -0.275 OA
BRANCH  18  22
ATOM     22  C   UNL     1       3.732  -1.626  26.797  0.00  0.00    +0.070 C 
ATOM     23  C   UNL     1       3.228  -1.879  28.219  0.00  0.00    +0.028 C 
BRANCH  22  24
ATOM     24  C   UNL     1       3.259  -2.701  25.797  0.00  0.00    +0.026 C 
BRANCH  24  25
ATOM     25  C   UNL     1       3.938  -4.064  25.951  0.00  0.00    +0.037 C 
BRANCH  25  26
ATOM     26  C   UNL     1       4.813  -4.397  24.762  0.00  0.00    -0.047 A 
ATOM     27  C   UNL     1       5.213  -5.716  24.514  0.00  0.00    +0.007 A 
ATOM     28  C   UNL     1       6.017  -6.016  23.412  0.00  0.00    +0.045 A 
ATOM     29  C   UNL     1       6.416  -5.002  22.549  0.00  0.00    +0.117 A 
ATOM     30  C   UNL     1       6.027  -3.686  22.774  0.00  0.00    +0.045 A 
ATOM     31  C   UNL     1       5.222  -3.386  23.877  0.00  0.00    +0.007 A 
BRANCH  29  32
ATOM     32  O   UNL     1       7.193  -5.342  21.482  0.00  0.00    -0.507 OA
ATOM     33  H   UNL     1       7.836  -4.631  21.328  0.00  0.00    +0.292 HD
ENDBRANCH  29  32
ENDBRANCH  25  26
ENDBRANCH  24  25
ENDBRANCH  22  24
ENDBRANCH  18  22
ENDBRANCH   1  20
TORSDOF 8
ENDMDL
