MODEL 1
REMARK VINA RESULT:      -5.9      0.000      0.000
REMARK  Name = 
REMARK  34 active torsions:
REMARK  status: ('A' for Active; 'I' for Inactive)
REMARK    1  A    between atoms: C_1  and  O_2
REMARK    2  A    between atoms: O_2  and  C_3
REMARK    3  A    between atoms: C_5  and  C_6
REMARK    4  A    between atoms: C_7  and  C_8
REMARK    5  A    between atoms: C_8  and  S_10
REMARK    6  A    between atoms: S_10  and  C_11
REMARK    7  A    between atoms: C_11  and  C_12
REMARK    8  A    between atoms: C_12  and  N_13
REMARK    9  A    between atoms: C_14  and  C_16
REMARK   10  A    between atoms: C_16  and  C_17
REMARK   11  A    between atoms: C_17  and  N_18
REMARK   12  A    between atoms: C_19  and  C_21
REMARK   13  A    between atoms: C_21  and  O_22
REMARK   14  A    between atoms: C_23  and  C_24
REMARK   15  A    between atoms: C_23  and  C_25
REMARK   16  A    between atoms: C_26  and  O_28
REMARK   17  A    between atoms: O_28  and  P_29
REMARK   18  A    between atoms: P_29  and  O_30
REMARK   19  A    between atoms: P_29  and  O_32
REMARK   20  A    between atoms: O_32  and  P_33
REMARK   21  A    between atoms: P_33  and  O_34
REMARK   22  A    between atoms: P_33  and  O_36
REMARK   23  A    between atoms: O_36  and  C_37
REMARK   24  A    between atoms: C_37  and  C_38
REMARK   25  A    between atoms: C_41  and  N_53
REMARK   26  A    between atoms: C_43  and  O_45
REMARK   27  A    between atoms: C_46  and  O_48
REMARK   28  A    between atoms: O_48  and  P_49
REMARK   29  A    between atoms: P_49  and  O_50
REMARK   30  A    between atoms: P_49  and  O_51
REMARK   31  A    between atoms: C_57  and  N_58
REMARK   32  A    between atoms: C_64  and  O_65
REMARK   33  A    between atoms: O_65  and  C_66
REMARK   34  A    between atoms: C_67  and  O_68
REMARK                            x       y       z     vdW  Elec       q    Type
REMARK                         _______ _______ _______ _____ _____    ______ ____
ROOT
ATOM      1  O   UNL     1       4.604  -0.009  28.428  0.00  0.00    -0.279 OA
ENDROOT
BRANCH   1   3
ATOM      2  C   UNL     1       6.344   1.905  27.885  0.00  0.00    +0.176 C 
ATOM      3  C   UNL     1       5.967   0.485  28.276  0.00  0.00    +0.180 C 
ATOM      4  C   UNL     1       6.532   1.420  29.334  0.00  0.00    +0.035 C 
ATOM      5  C   UNL     1       5.657   2.037  30.411  0.00  0.00    +0.017 C 
ATOM      6  C   UNL     1       7.922   1.121  29.847  0.00  0.00    +0.017 C 
BRANCH   2   9
ATOM      7  N   UNL     1       6.103   4.352  27.949  0.00  0.00    -0.312 N 
ATOM      8  H   UNL     1       7.088   4.363  28.195  0.00  0.00    +0.149 HD
ATOM      9  C   UNL     1       5.504   3.146  27.696  0.00  0.00    +0.248 C 
ATOM     10  O   UNL     1       4.291   3.040  27.514  0.00  0.00    -0.273 OA
BRANCH   7  11
ATOM     11  C   UNL     1       5.363   5.609  27.895  0.00  0.00    +0.113 C 
BRANCH  11  12
ATOM     12  C   UNL     1       5.596   6.411  26.618  0.00  0.00    +0.114 C 
BRANCH  12  15
ATOM     13  N   UNL     1       4.629   6.810  24.411  0.00  0.00    -0.314 N 
ATOM     14  H   UNL     1       5.504   7.269  24.188  0.00  0.00    +0.149 HD
ATOM     15  C   UNL     1       4.437   6.259  25.658  0.00  0.00    +0.215 C 
ATOM     16  O   UNL     1       3.387   5.734  26.006  0.00  0.00    -0.276 OA
BRANCH  13  17
ATOM     17  C   UNL     1       3.556   6.848  23.426  0.00  0.00    +0.115 C 
BRANCH  17  18
ATOM     18  C   UNL     1       3.783   5.914  22.230  0.00  0.00    +0.096 C 
BRANCH  18  19
ATOM     19  S   UNL     1       2.614   4.522  22.359  0.00  0.00    -0.082 S 
BRANCH  19  20
ATOM     20  C   UNL     1       3.539   3.379  23.316  0.00  0.00    +0.213 C 
ATOM     21  O   UNL     1       3.033   2.613  24.121  0.00  0.00    -0.280 OA
BRANCH  20  23
ATOM     22  C   UNL     1       5.892   3.452  24.057  0.00  0.00    +0.012 C 
ATOM     23  C   UNL     1       5.003   3.475  23.051  0.00  0.00    +0.058 C 
BRANCH  22  28
ATOM     24  C   UNL     1       9.263   5.099  23.728  0.00  0.00    +0.166 A 
ATOM     25  C   UNL     1      10.122   4.001  23.510  0.00  0.00    +0.201 A 
ATOM     26  C   UNL     1       9.614   2.696  23.546  0.00  0.00    +0.166 A 
ATOM     27  C   UNL     1       8.230   2.522  23.739  0.00  0.00    +0.057 A 
ATOM     28  C   UNL     1       7.351   3.602  23.888  0.00  0.00    -0.018 A 
ATOM     29  C   UNL     1       7.889   4.890  23.901  0.00  0.00    +0.057 A 
BRANCH  24  31
ATOM     30  C   UNL     1       9.696   7.094  24.942  0.00  0.00    +0.277 C 
ATOM     31  O   UNL     1       9.831   6.353  23.731  0.00  0.00    -0.491 OA
ENDBRANCH  24  31
BRANCH  26  32
ATOM     32  O   UNL     1      10.244   1.493  23.399  0.00  0.00    -0.491 OA
ATOM     33  C   UNL     1      10.975   0.895  24.452  0.00  0.00    +0.277 C 
ENDBRANCH  26  32
BRANCH  25  34
ATOM     34  O   UNL     1      11.432   4.308  23.252  0.00  0.00    -0.501 OA
ATOM     35  H   UNL     1      11.902   3.507  22.991  0.00  0.00    +0.292 HD
ENDBRANCH  25  34
ENDBRANCH  22  28
ENDBRANCH  20  23
ENDBRANCH  19  20
ENDBRANCH  18  19
ENDBRANCH  17  18
ENDBRANCH  13  17
ENDBRANCH  12  15
ENDBRANCH  11  12
ENDBRANCH   7  11
ENDBRANCH   2   9
BRANCH   2  36
ATOM     36  O   UNL     1       7.556   1.950  27.077  0.00  0.00    -0.376 OA
ATOM     37  H   UNL     1       8.014   1.090  27.100  0.00  0.00    +0.211 HD
ENDBRANCH   2  36
ENDBRANCH   1   3
BRANCH   1  38
ATOM     38  P   UNL     1       4.162  -1.120  27.177  0.00  0.00    +0.484 P 
ATOM     39  O   UNL     1       2.676  -0.814  27.408  0.00  0.00    -0.227 OA
BRANCH  38  40
ATOM     40  O   UNL     1       4.470  -2.357  28.199  0.00  0.00    -0.302 OA
ATOM     41  H   UNL     1       4.672  -3.135  27.642  0.00  0.00    +0.222 HD
ENDBRANCH  38  40
BRANCH  38  42
ATOM     42  O   UNL     1       3.718  -2.229  25.925  0.00  0.00    -0.186 OA
BRANCH  42  43
ATOM     43  P   UNL     1       2.492  -3.258  25.939  0.00  0.00    +0.483 P 
ATOM     44  O   UNL     1       2.258  -3.979  27.231  0.00  0.00    -0.227 OA
BRANCH  43  45
ATOM     45  O   UNL     1       1.210  -2.380  25.565  0.00  0.00    -0.302 OA
ATOM     46  H   UNL     1       0.857  -2.656  24.697  0.00  0.00    +0.222 HD
ENDBRANCH  43  45
BRANCH  43  47
ATOM     47  O   UNL     1       2.595  -4.270  24.693  0.00  0.00    -0.284 OA
BRANCH  47  48
ATOM     48  C   UNL     1       2.880  -5.670  24.922  0.00  0.00    +0.206 C 
BRANCH  48  49
ATOM     49  C   UNL     1       4.383  -6.079  24.873  0.00  0.00    +0.179 C 
ATOM     50  C   UNL     1       5.204  -5.723  26.160  0.00  0.00    +0.194 C 
ATOM     51  C   UNL     1       6.458  -5.010  25.639  0.00  0.00    +0.196 C 
ATOM     52  C   UNL     1       6.350  -5.082  24.105  0.00  0.00    +0.253 C 
ATOM     53  O   UNL     1       4.971  -5.331  23.787  0.00  0.00    -0.346 OA
BRANCH  52  54
ATOM     54  N   UNL     1       6.830  -3.950  23.345  0.00  0.00    -0.286 N 
ATOM     55  C   UNL     1       8.076  -3.383  23.394  0.00  0.00    +0.167 A 
ATOM     56  C   UNL     1       8.052  -2.388  22.427  0.00  0.00    +0.147 A 
ATOM     57  C   UNL     1       9.253  -1.672  22.223  0.00  0.00    +0.147 A 
ATOM     58  N   UNL     1      10.312  -1.967  23.001  0.00  0.00    -0.219 NA
ATOM     59  C   UNL     1      10.189  -2.958  23.913  0.00  0.00    +0.225 A 
ATOM     60  N   UNL     1       6.813  -2.313  21.827  0.00  0.00    -0.231 NA
ATOM     61  N   UNL     1       9.118  -3.738  24.172  0.00  0.00    -0.216 NA
ATOM     62  C   UNL     1       6.105  -3.261  22.406  0.00  0.00    +0.203 A 
BRANCH  57  63
ATOM     63  N   UNL     1       9.399  -0.690  21.253  0.00  0.00    -0.341 N 
ATOM     64  H   UNL     1       9.200  -1.032  20.323  0.00  0.00    +0.144 HD
ATOM     65  H   UNL     1      10.211  -0.098  21.381  0.00  0.00    +0.144 HD
ENDBRANCH  57  63
ENDBRANCH  52  54
BRANCH  51  66
ATOM     66  O   UNL     1       6.494  -3.689  26.189  0.00  0.00    -0.385 OA
ATOM     67  H   UNL     1       7.419  -3.464  26.426  0.00  0.00    +0.210 HD
ENDBRANCH  51  66
BRANCH  50  68
ATOM     68  O   UNL     1       5.612  -6.840  27.023  0.00  0.00    -0.278 OA
BRANCH  68  69
ATOM     69  P   UNL     1       5.850  -6.295  28.647  0.00  0.00    +0.473 P 
ATOM     70  O   UNL     1       6.063  -5.809  30.101  0.00  0.00    -0.228 OA
BRANCH  69  71
ATOM     71  O   UNL     1       4.688  -5.216  28.271  0.00  0.00    -0.303 OA
ATOM     72  H   UNL     1       4.490  -5.298  27.319  0.00  0.00    +0.222 HD
ENDBRANCH  69  71
BRANCH  69  73
ATOM     73  O   UNL     1       4.855  -7.495  29.125  0.00  0.00    -0.303 OA
ATOM     74  H   UNL     1       3.993  -7.056  29.287  0.00  0.00    +0.222 HD
ENDBRANCH  69  73
ENDBRANCH  68  69
ENDBRANCH  50  68
ENDBRANCH  48  49
ENDBRANCH  47  48
ENDBRANCH  43  47
ENDBRANCH  42  43
ENDBRANCH  38  42
ENDBRANCH   1  38
TORSDOF 30
ENDMDL
MODEL 2
REMARK VINA RESULT:      -5.5      1.835      3.209
REMARK  Name = 
REMARK  34 active torsions:
REMARK  status: ('A' for Active; 'I' for Inactive)
REMARK    1  A    between atoms: C_1  and  O_2
REMARK    2  A    between atoms: O_2  and  C_3
REMARK    3  A    between atoms: C_5  and  C_6
REMARK    4  A    between atoms: C_7  and  C_8
REMARK    5  A    between atoms: C_8  and  S_10
REMARK    6  A    between atoms: S_10  and  C_11
REMARK    7  A    between atoms: C_11  and  C_12
REMARK    8  A    between atoms: C_12  and  N_13
REMARK    9  A    between atoms: C_14  and  C_16
REMARK   10  A    between atoms: C_16  and  C_17
REMARK   11  A    between atoms: C_17  and  N_18
REMARK   12  A    between atoms: C_19  and  C_21
REMARK   13  A    between atoms: C_21  and  O_22
REMARK   14  A    between atoms: C_23  and  C_24
REMARK   15  A    between atoms: C_23  and  C_25
REMARK   16  A    between atoms: C_26  and  O_28
REMARK   17  A    between atoms: O_28  and  P_29
REMARK   18  A    between atoms: P_29  and  O_30
REMARK   19  A    between atoms: P_29  and  O_32
REMARK   20  A    between atoms: O_32  and  P_33
REMARK   21  A    between atoms: P_33  and  O_34
REMARK   22  A    between atoms: P_33  and  O_36
REMARK   23  A    between atoms: O_36  and  C_37
REMARK   24  A    between atoms: C_37  and  C_38
REMARK   25  A    between atoms: C_41  and  N_53
REMARK   26  A    between atoms: C_43  and  O_45
REMARK   27  A    between atoms: C_46  and  O_48
REMARK   28  A    between atoms: O_48  and  P_49
REMARK   29  A    between atoms: P_49  and  O_50
REMARK   30  A    between atoms: P_49  and  O_51
REMARK   31  A    between atoms: C_57  and  N_58
REMARK   32  A    between atoms: C_64  and  O_65
REMARK   33  A    between atoms: O_65  and  C_66
REMARK   34  A    between atoms: C_67  and  O_68
REMARK                            x       y       z     vdW  Elec       q    Type
REMARK                         _______ _______ _______ _____ _____    ______ ____
ROOT
ATOM      1  O   UNL     1       5.043   0.302  26.716  0.00  0.00    -0.279 OA
ENDROOT
BRANCH   1   3
ATOM      2  C   UNL     1       6.195   2.549  27.497  0.00  0.00    +0.176 C 
ATOM      3  C   UNL     1       6.160   1.043  27.288  0.00  0.00    +0.180 C 
ATOM      4  C   UNL     1       6.028   1.600  28.698  0.00  0.00    +0.035 C 
ATOM      5  C   UNL     1       4.701   1.611  29.436  0.00  0.00    +0.017 C 
ATOM      6  C   UNL     1       7.189   1.374  29.639  0.00  0.00    +0.017 C 
BRANCH   2   9
ATOM      7  N   UNL     1       5.344   4.814  27.936  0.00  0.00    -0.312 N 
ATOM      8  H   UNL     1       6.221   4.963  28.426  0.00  0.00    +0.149 HD
ATOM      9  C   UNL     1       5.131   3.607  27.325  0.00  0.00    +0.248 C 
ATOM     10  O   UNL     1       4.049   3.307  26.820  0.00  0.00    -0.273 OA
BRANCH   7  11
ATOM     11  C   UNL     1       4.342   5.876  27.920  0.00  0.00    +0.113 C 
BRANCH  11  12
ATOM     12  C   UNL     1       4.756   7.108  27.122  0.00  0.00    +0.114 C 
BRANCH  12  15
ATOM     13  N   UNL     1       3.696   7.047  24.922  0.00  0.00    -0.314 N 
ATOM     14  H   UNL     1       2.876   7.420  25.385  0.00  0.00    +0.149 HD
ATOM     15  C   UNL     1       4.842   6.798  25.643  0.00  0.00    +0.215 C 
ATOM     16  O   UNL     1       5.849   6.303  25.155  0.00  0.00    -0.276 OA
BRANCH  13  17
ATOM     17  C   UNL     1       3.592   6.682  23.516  0.00  0.00    +0.115 C 
BRANCH  17  18
ATOM     18  C   UNL     1       2.272   5.989  23.153  0.00  0.00    +0.096 C 
BRANCH  18  19
ATOM     19  S   UNL     1       2.626   4.679  21.937  0.00  0.00    -0.082 S 
BRANCH  19  20
ATOM     20  C   UNL     1       3.324   3.436  22.961  0.00  0.00    +0.213 C 
ATOM     21  O   UNL     1       2.666   2.754  23.730  0.00  0.00    -0.280 OA
BRANCH  20  23
ATOM     22  C   UNL     1       5.574   2.834  23.777  0.00  0.00    +0.012 C 
ATOM     23  C   UNL     1       4.803   3.335  22.799  0.00  0.00    +0.058 C 
BRANCH  22  28
ATOM     24  C   UNL     1       9.025   1.376  23.394  0.00  0.00    +0.166 A 
ATOM     25  C   UNL     1       9.858   2.484  23.658  0.00  0.00    +0.201 A 
ATOM     26  C   UNL     1       9.294   3.746  23.888  0.00  0.00    +0.166 A 
ATOM     27  C   UNL     1       7.891   3.857  23.912  0.00  0.00    +0.057 A 
ATOM     28  C   UNL     1       7.047   2.755  23.723  0.00  0.00    -0.018 A 
ATOM     29  C   UNL     1       7.632   1.519  23.443  0.00  0.00    +0.057 A 
BRANCH  24  31
ATOM     30  C   UNL     1       9.779  -0.158  21.747  0.00  0.00    +0.277 C 
ATOM     31  O   UNL     1       9.640   0.175  23.126  0.00  0.00    -0.491 OA
ENDBRANCH  24  31
BRANCH  26  32
ATOM     32  O   UNL     1       9.887   4.953  24.128  0.00  0.00    -0.491 OA
ATOM     33  C   UNL     1       9.243   6.177  23.830  0.00  0.00    +0.277 C 
ENDBRANCH  26  32
BRANCH  25  34
ATOM     34  O   UNL     1      11.204   2.228  23.686  0.00  0.00    -0.501 OA
ATOM     35  H   UNL     1      11.605   2.710  24.419  0.00  0.00    +0.292 HD
ENDBRANCH  25  34
ENDBRANCH  22  28
ENDBRANCH  20  23
ENDBRANCH  19  20
ENDBRANCH  18  19
ENDBRANCH  17  18
ENDBRANCH  13  17
ENDBRANCH  12  15
ENDBRANCH  11  12
ENDBRANCH   7  11
ENDBRANCH   2   9
BRANCH   2  36
ATOM     36  O   UNL     1       7.532   3.098  27.315  0.00  0.00    -0.376 OA
ATOM     37  H   UNL     1       7.850   3.506  28.141  0.00  0.00    +0.211 HD
ENDBRANCH   2  36
ENDBRANCH   1   3
BRANCH   1  38
ATOM     38  P   UNL     1       5.055  -1.367  27.173  0.00  0.00    +0.484 P 
ATOM     39  O   UNL     1       6.513  -1.500  26.712  0.00  0.00    -0.227 OA
BRANCH  38  40
ATOM     40  O   UNL     1       4.187  -1.716  25.833  0.00  0.00    -0.302 OA
ATOM     41  H   UNL     1       3.370  -1.181  25.884  0.00  0.00    +0.222 HD
ENDBRANCH  38  40
BRANCH  38  42
ATOM     42  O   UNL     1       5.068  -3.036  27.631  0.00  0.00    -0.186 OA
BRANCH  42  43
ATOM     43  P   UNL     1       3.807  -3.936  28.032  0.00  0.00    +0.483 P 
ATOM     44  O   UNL     1       3.772  -4.418  29.450  0.00  0.00    -0.227 OA
BRANCH  43  45
ATOM     45  O   UNL     1       2.532  -3.018  27.737  0.00  0.00    -0.302 OA
ATOM     46  H   UNL     1       1.855  -3.153  28.428  0.00  0.00    +0.222 HD
ENDBRANCH  43  45
BRANCH  43  47
ATOM     47  O   UNL     1       3.619  -5.138  26.980  0.00  0.00    -0.284 OA
BRANCH  47  48
ATOM     48  C   UNL     1       2.387  -5.256  26.231  0.00  0.00    +0.206 C 
BRANCH  48  49
ATOM     49  C   UNL     1       2.482  -4.944  24.707  0.00  0.00    +0.179 C 
ATOM     50  C   UNL     1       2.825  -6.178  23.803  0.00  0.00    +0.194 C 
ATOM     51  C   UNL     1       3.976  -5.700  22.910  0.00  0.00    +0.196 C 
ATOM     52  C   UNL     1       4.166  -4.213  23.264  0.00  0.00    +0.253 C 
ATOM     53  O   UNL     1       3.566  -4.003  24.552  0.00  0.00    -0.346 OA
BRANCH  52  54
ATOM     54  N   UNL     1       5.513  -3.689  23.260  0.00  0.00    -0.286 N 
ATOM     55  C   UNL     1       6.518  -3.971  24.146  0.00  0.00    +0.167 A 
ATOM     56  C   UNL     1       7.621  -3.281  23.663  0.00  0.00    +0.147 A 
ATOM     57  C   UNL     1       8.834  -3.447  24.369  0.00  0.00    +0.147 A 
ATOM     58  N   UNL     1       8.828  -4.217  25.475  0.00  0.00    -0.219 NA
ATOM     59  C   UNL     1       7.674  -4.823  25.835  0.00  0.00    +0.225 A 
ATOM     60  N   UNL     1       7.296  -2.558  22.535  0.00  0.00    -0.231 NA
ATOM     61  N   UNL     1       6.471  -4.777  25.224  0.00  0.00    -0.216 NA
ATOM     62  C   UNL     1       6.023  -2.824  22.325  0.00  0.00    +0.203 A 
BRANCH  57  63
ATOM     63  N   UNL     1      10.031  -2.869  23.973  0.00  0.00    -0.341 N 
ATOM     64  H   UNL     1       9.900  -1.967  23.535  0.00  0.00    +0.144 HD
ATOM     65  H   UNL     1      10.683  -3.517  23.547  0.00  0.00    +0.144 HD
ENDBRANCH  57  63
ENDBRANCH  52  54
BRANCH  51  66
ATOM     66  O   UNL     1       5.114  -6.535  23.146  0.00  0.00    -0.385 OA
ATOM     67  H   UNL     1       5.159  -6.758  24.100  0.00  0.00    +0.210 HD
ENDBRANCH  51  66
BRANCH  50  68
ATOM     68  O   UNL     1       1.748  -6.705  22.955  0.00  0.00    -0.278 OA
BRANCH  68  69
ATOM     69  P   UNL     1       1.230  -8.254  23.525  0.00  0.00    +0.473 P 
ATOM     70  O   UNL     1       0.768  -9.640  24.036  0.00  0.00    -0.228 OA
BRANCH  69  71
ATOM     71  O   UNL     1       1.473  -8.710  21.979  0.00  0.00    -0.303 OA
ATOM     72  H   UNL     1       2.435  -8.750  21.819  0.00  0.00    +0.222 HD
ENDBRANCH  69  71
BRANCH  69  73
ATOM     73  O   UNL     1       2.756  -8.500  24.043  0.00  0.00    -0.303 OA
ATOM     74  H   UNL     1       3.278  -7.775  23.637  0.00  0.00    +0.222 HD
ENDBRANCH  69  73
ENDBRANCH  68  69
ENDBRANCH  50  68
ENDBRANCH  48  49
ENDBRANCH  47  48
ENDBRANCH  43  47
ENDBRANCH  42  43
ENDBRANCH  38  42
ENDBRANCH   1  38
TORSDOF 30
ENDMDL
MODEL 3
REMARK VINA RESULT:      -5.2      3.402      7.852
REMARK  Name = 
REMARK  34 active torsions:
REMARK  status: ('A' for Active; 'I' for Inactive)
REMARK    1  A    between atoms: C_1  and  O_2
REMARK    2  A    between atoms: O_2  and  C_3
REMARK    3  A    between atoms: C_5  and  C_6
REMARK    4  A    between atoms: C_7  and  C_8
REMARK    5  A    between atoms: C_8  and  S_10
REMARK    6  A    between atoms: S_10  and  C_11
REMARK    7  A    between atoms: C_11  and  C_12
REMARK    8  A    between atoms: C_12  and  N_13
REMARK    9  A    between atoms: C_14  and  C_16
REMARK   10  A    between atoms: C_16  and  C_17
REMARK   11  A    between atoms: C_17  and  N_18
REMARK   12  A    between atoms: C_19  and  C_21
REMARK   13  A    between atoms: C_21  and  O_22
REMARK   14  A    between atoms: C_23  and  C_24
REMARK   15  A    between atoms: C_23  and  C_25
REMARK   16  A    between atoms: C_26  and  O_28
REMARK   17  A    between atoms: O_28  and  P_29
REMARK   18  A    between atoms: P_29  and  O_30
REMARK   19  A    between atoms: P_29  and  O_32
REMARK   20  A    between atoms: O_32  and  P_33
REMARK   21  A    between atoms: P_33  and  O_34
REMARK   22  A    between atoms: P_33  and  O_36
REMARK   23  A    between atoms: O_36  and  C_37
REMARK   24  A    between atoms: C_37  and  C_38
REMARK   25  A    between atoms: C_41  and  N_53
REMARK   26  A    between atoms: C_43  and  O_45
REMARK   27  A    between atoms: C_46  and  O_48
REMARK   28  A    between atoms: O_48  and  P_49
REMARK   29  A    between atoms: P_49  and  O_50
REMARK   30  A    between atoms: P_49  and  O_51
REMARK   31  A    between atoms: C_57  and  N_58
REMARK   32  A    between atoms: C_64  and  O_65
REMARK   33  A    between atoms: O_65  and  C_66
REMARK   34  A    between atoms: C_67  and  O_68
REMARK                            x       y       z     vdW  Elec       q    Type
REMARK                         _______ _______ _______ _____ _____    ______ ____
ROOT
ATOM      1  O   UNL     1       5.496   2.610  23.617  0.00  0.00    -0.279 OA
ENDROOT
BRANCH   1   3
ATOM      2  C   UNL     1       5.271   4.918  24.884  0.00  0.00    +0.176 C 
ATOM      3  C   UNL     1       4.850   3.488  24.585  0.00  0.00    +0.180 C 
ATOM      4  C   UNL     1       3.990   4.635  24.077  0.00  0.00    +0.035 C 
ATOM      5  C   UNL     1       3.968   5.035  22.612  0.00  0.00    +0.017 C 
ATOM      6  C   UNL     1       2.639   4.824  24.729  0.00  0.00    +0.017 C 
BRANCH   2   9
ATOM      7  N   UNL     1       7.349   5.213  23.602  0.00  0.00    -0.312 N 
ATOM      8  H   UNL     1       7.372   4.199  23.557  0.00  0.00    +0.149 HD
ATOM      9  C   UNL     1       6.292   5.818  24.229  0.00  0.00    +0.248 C 
ATOM     10  O   UNL     1       6.254   7.032  24.432  0.00  0.00    -0.273 OA
BRANCH   7  11
ATOM     11  C   UNL     1       8.445   5.982  23.020  0.00  0.00    +0.113 C 
BRANCH  11  12
ATOM     12  C   UNL     1       9.668   6.099  23.924  0.00  0.00    +0.114 C 
BRANCH  12  15
ATOM     13  N   UNL     1      10.096   3.736  23.485  0.00  0.00    -0.314 N 
ATOM     14  H   UNL     1       9.092   3.617  23.529  0.00  0.00    +0.149 HD
ATOM     15  C   UNL     1      10.653   4.983  23.660  0.00  0.00    +0.215 C 
ATOM     16  O   UNL     1      11.861   5.185  23.667  0.00  0.00    -0.276 OA
BRANCH  13  17
ATOM     17  C   UNL     1      10.929   2.548  23.345  0.00  0.00    +0.115 C 
BRANCH  17  18
ATOM     18  C   UNL     1      10.218   1.246  23.740  0.00  0.00    +0.096 C 
BRANCH  18  19
ATOM     19  S   UNL     1       9.649   0.419  22.219  0.00  0.00    -0.082 S 
BRANCH  19  20
ATOM     20  C   UNL     1      10.153  -1.236  22.516  0.00  0.00    +0.213 C 
ATOM     21  O   UNL     1      11.269  -1.654  22.254  0.00  0.00    -0.280 OA
BRANCH  20  23
ATOM     22  C   UNL     1       9.314  -3.015  24.006  0.00  0.00    +0.012 C 
ATOM     23  C   UNL     1       9.056  -2.066  23.092  0.00  0.00    +0.058 C 
BRANCH  22  28
ATOM     24  C   UNL     1       6.287  -5.245  24.234  0.00  0.00    +0.166 A 
ATOM     25  C   UNL     1       6.272  -5.605  25.599  0.00  0.00    +0.201 A 
ATOM     26  C   UNL     1       7.304  -5.181  26.446  0.00  0.00    +0.166 A 
ATOM     27  C   UNL     1       8.305  -4.345  25.916  0.00  0.00    +0.057 A 
ATOM     28  C   UNL     1       8.298  -3.919  24.582  0.00  0.00    -0.018 A 
ATOM     29  C   UNL     1       7.289  -4.397  23.744  0.00  0.00    +0.057 A 
BRANCH  24  31
ATOM     30  C   UNL     1       4.277  -4.791  23.056  0.00  0.00    +0.277 C 
ATOM     31  O   UNL     1       5.274  -5.733  23.442  0.00  0.00    -0.491 OA
ENDBRANCH  24  31
BRANCH  26  32
ATOM     32  O   UNL     1       7.521  -5.426  27.773  0.00  0.00    -0.491 OA
ATOM     33  C   UNL     1       6.741  -6.355  28.501  0.00  0.00    +0.277 C 
ENDBRANCH  26  32
BRANCH  25  34
ATOM     34  O   UNL     1       5.201  -6.355  26.008  0.00  0.00    -0.501 OA
ATOM     35  H   UNL     1       5.380  -7.287  25.838  0.00  0.00    +0.292 HD
ENDBRANCH  25  34
ENDBRANCH  22  28
ENDBRANCH  20  23
ENDBRANCH  19  20
ENDBRANCH  18  19
ENDBRANCH  17  18
ENDBRANCH  13  17
ENDBRANCH  12  15
ENDBRANCH  11  12
ENDBRANCH   7  11
ENDBRANCH   2   9
BRANCH   2  36
ATOM     36  O   UNL     1       5.064   5.271  26.283  0.00  0.00    -0.376 OA
ATOM     37  H   UNL     1       5.908   5.523  26.700  0.00  0.00    +0.211 HD
ENDBRANCH   2  36
ENDBRANCH   1   3
BRANCH   1  38
ATOM     38  P   UNL     1       6.345   1.306  24.373  0.00  0.00    +0.484 P 
ATOM     39  O   UNL     1       6.434   0.564  23.033  0.00  0.00    -0.227 OA
BRANCH  38  40
ATOM     40  O   UNL     1       4.933   0.789  25.013  0.00  0.00    -0.302 OA
ATOM     41  H   UNL     1       4.247   1.420  24.720  0.00  0.00    +0.222 HD
ENDBRANCH  38  40
BRANCH  38  42
ATOM     42  O   UNL     1       7.195   0.001  25.128  0.00  0.00    -0.186 OA
BRANCH  42  43
ATOM     43  P   UNL     1       7.439  -0.212  26.696  0.00  0.00    +0.483 P 
ATOM     44  O   UNL     1       8.641  -1.025  27.066  0.00  0.00    -0.227 OA
BRANCH  43  45
ATOM     45  O   UNL     1       7.571   1.262  27.299  0.00  0.00    -0.302 OA
ATOM     46  H   UNL     1       6.877   1.840  26.927  0.00  0.00    +0.222 HD
ENDBRANCH  43  45
BRANCH  43  47
ATOM     47  O   UNL     1       6.101  -0.757  27.402  0.00  0.00    -0.284 OA
BRANCH  47  48
ATOM     48  C   UNL     1       5.635  -2.099  27.127  0.00  0.00    +0.206 C 
BRANCH  48  49
ATOM     49  C   UNL     1       4.236  -2.210  26.448  0.00  0.00    +0.179 C 
ATOM     50  C   UNL     1       3.068  -1.514  27.230  0.00  0.00    +0.194 C 
ATOM     51  C   UNL     1       1.960  -2.572  27.301  0.00  0.00    +0.196 C 
ATOM     52  C   UNL     1       2.493  -3.764  26.484  0.00  0.00    +0.253 C 
ATOM     53  O   UNL     1       3.919  -3.619  26.400  0.00  0.00    -0.346 OA
BRANCH  52  54
ATOM     54  N   UNL     1       2.163  -5.094  26.945  0.00  0.00    -0.286 N 
ATOM     55  C   UNL     1       2.558  -5.692  28.111  0.00  0.00    +0.167 A 
ATOM     56  C   UNL     1       1.917  -6.923  28.114  0.00  0.00    +0.147 A 
ATOM     57  C   UNL     1       2.107  -7.736  29.254  0.00  0.00    +0.147 A 
ATOM     58  N   UNL     1       2.923  -7.288  30.228  0.00  0.00    -0.219 NA
ATOM     59  C   UNL     1       3.491  -6.070  30.087  0.00  0.00    +0.225 A 
ATOM     60  N   UNL     1       1.181  -7.098  26.961  0.00  0.00    -0.231 NA
ATOM     61  N   UNL     1       3.355  -5.187  29.074  0.00  0.00    -0.216 NA
ATOM     62  C   UNL     1       1.355  -5.984  26.282  0.00  0.00    +0.203 A 
BRANCH  57  63
ATOM     63  N   UNL     1       1.485  -8.964  29.426  0.00  0.00    -0.341 N 
ATOM     64  H   UNL     1       0.526  -8.961  29.106  0.00  0.00    +0.144 HD
ATOM     65  H   UNL     1       1.693  -9.414  30.310  0.00  0.00    +0.144 HD
ENDBRANCH  57  63
ENDBRANCH  52  54
BRANCH  51  66
ATOM     66  O   UNL     1       1.681  -2.849  28.677  0.00  0.00    -0.385 OA
ATOM     67  H   UNL     1       0.835  -3.342  28.742  0.00  0.00    +0.210 HD
ENDBRANCH  51  66
BRANCH  50  68
ATOM     68  O   UNL     1       2.517  -0.282  26.649  0.00  0.00    -0.278 OA
BRANCH  68  69
ATOM     69  P   UNL     1       2.358   0.941  27.862  0.00  0.00    +0.473 P 
ATOM     70  O   UNL     1       2.215   2.035  28.948  0.00  0.00    -0.228 OA
BRANCH  69  71
ATOM     71  O   UNL     1       3.978   1.050  27.717  0.00  0.00    -0.303 OA
ATOM     72  H   UNL     1       4.357   0.159  27.835  0.00  0.00    +0.222 HD
ENDBRANCH  69  71
BRANCH  69  73
ATOM     73  O   UNL     1       1.984   1.985  26.667  0.00  0.00    -0.303 OA
ATOM     74  H   UNL     1       1.011   2.093  26.725  0.00  0.00    +0.222 HD
ENDBRANCH  69  73
ENDBRANCH  68  69
ENDBRANCH  50  68
ENDBRANCH  48  49
ENDBRANCH  47  48
ENDBRANCH  43  47
ENDBRANCH  42  43
ENDBRANCH  38  42
ENDBRANCH   1  38
TORSDOF 30
ENDMDL
MODEL 4
REMARK VINA RESULT:      -5.0      3.128      5.121
REMARK  Name = 
REMARK  34 active torsions:
REMARK  status: ('A' for Active; 'I' for Inactive)
REMARK    1  A    between atoms: C_1  and  O_2
REMARK    2  A    between atoms: O_2  and  C_3
REMARK    3  A    between atoms: C_5  and  C_6
REMARK    4  A    between atoms: C_7  and  C_8
REMARK    5  A    between atoms: C_8  and  S_10
REMARK    6  A    between atoms: S_10  and  C_11
REMARK    7  A    between atoms: C_11  and  C_12
REMARK    8  A    between atoms: C_12  and  N_13
REMARK    9  A    between atoms: C_14  and  C_16
REMARK   10  A    between atoms: C_16  and  C_17
REMARK   11  A    between atoms: C_17  and  N_18
REMARK   12  A    between atoms: C_19  and  C_21
REMARK   13  A    between atoms: C_21  and  O_22
REMARK   14  A    between atoms: C_23  and  C_24
REMARK   15  A    between atoms: C_23  and  C_25
REMARK   16  A    between atoms: C_26  and  O_28
REMARK   17  A    between atoms: O_28  and  P_29
REMARK   18  A    between atoms: P_29  and  O_30
REMARK   19  A    between atoms: P_29  and  O_32
REMARK   20  A    between atoms: O_32  and  P_33
REMARK   21  A    between atoms: P_33  and  O_34
REMARK   22  A    between atoms: P_33  and  O_36
REMARK   23  A    between atoms: O_36  and  C_37
REMARK   24  A    between atoms: C_37  and  C_38
REMARK   25  A    between atoms: C_41  and  N_53
REMARK   26  A    between atoms: C_43  and  O_45
REMARK   27  A    between atoms: C_46  and  O_48
REMARK   28  A    between atoms: O_48  and  P_49
REMARK   29  A    between atoms: P_49  and  O_50
REMARK   30  A    between atoms: P_49  and  O_51
REMARK   31  A    between atoms: C_57  and  N_58
REMARK   32  A    between atoms: C_64  and  O_65
REMARK   33  A    between atoms: O_65  and  C_66
REMARK   34  A    between atoms: C_67  and  O_68
REMARK                            x       y       z     vdW  Elec       q    Type
REMARK                         _______ _______ _______ _____ _____    ______ ____
ROOT
ATOM      1  O   UNL     1       6.692   0.118  25.541  0.00  0.00    -0.279 OA
ENDROOT
BRANCH   1   3
ATOM      2  C   UNL     1       5.776   2.290  26.737  0.00  0.00    +0.176 C 
ATOM      3  C   UNL     1       6.851   1.257  26.436  0.00  0.00    +0.180 C 
ATOM      4  C   UNL     1       6.157   1.232  27.790  0.00  0.00    +0.035 C 
ATOM      5  C   UNL     1       5.125   0.175  28.142  0.00  0.00    +0.017 C 
ATOM      6  C   UNL     1       6.977   1.636  28.992  0.00  0.00    +0.017 C 
BRANCH   2   9
ATOM      7  N   UNL     1       3.507   3.167  27.099  0.00  0.00    -0.312 N 
ATOM      8  H   UNL     1       3.926   3.724  27.838  0.00  0.00    +0.149 HD
ATOM      9  C   UNL     1       4.318   2.356  26.349  0.00  0.00    +0.248 C 
ATOM     10  O   UNL     1       3.870   1.563  25.522  0.00  0.00    -0.273 OA
BRANCH   7  11
ATOM     11  C   UNL     1       2.066   3.236  26.878  0.00  0.00    +0.113 C 
BRANCH  11  12
ATOM     12  C   UNL     1       1.503   4.653  26.895  0.00  0.00    +0.114 C 
BRANCH  12  15
ATOM     13  N   UNL     1       1.014   5.629  24.710  0.00  0.00    -0.314 N 
ATOM     14  H   UNL     1       0.079   5.260  24.832  0.00  0.00    +0.149 HD
ATOM     15  C   UNL     1       1.964   5.439  25.688  0.00  0.00    +0.215 C 
ATOM     16  O   UNL     1       3.124   5.816  25.580  0.00  0.00    -0.276 OA
BRANCH  13  17
ATOM     17  C   UNL     1       1.349   6.259  23.440  0.00  0.00    +0.115 C 
BRANCH  17  18
ATOM     18  C   UNL     1       0.905   5.452  22.213  0.00  0.00    +0.096 C 
BRANCH  18  19
ATOM     19  S   UNL     1       2.390   4.783  21.397  0.00  0.00    -0.082 S 
BRANCH  19  20
ATOM     20  C   UNL     1       2.993   3.681  22.622  0.00  0.00    +0.213 C 
ATOM     21  O   UNL     1       2.284   2.883  23.213  0.00  0.00    -0.280 OA
BRANCH  20  23
ATOM     22  C   UNL     1       5.328   2.885  22.566  0.00  0.00    +0.012 C 
ATOM     23  C   UNL     1       4.453   3.856  22.871  0.00  0.00    +0.058 C 
BRANCH  22  28
ATOM     24  C   UNL     1       9.005   2.096  22.353  0.00  0.00    +0.166 A 
ATOM     25  C   UNL     1       9.562   2.959  23.321  0.00  0.00    +0.201 A 
ATOM     26  C   UNL     1       8.742   3.869  24.001  0.00  0.00    +0.166 A 
ATOM     27  C   UNL     1       7.359   3.850  23.740  0.00  0.00    +0.057 A 
ATOM     28  C   UNL     1       6.779   2.952  22.835  0.00  0.00    -0.018 A 
ATOM     29  C   UNL     1       7.622   2.092  22.130  0.00  0.00    +0.057 A 
BRANCH  24  31
ATOM     30  C   UNL     1       9.404  -0.070  21.465  0.00  0.00    +0.277 C 
ATOM     31  O   UNL     1       9.868   1.260  21.682  0.00  0.00    -0.491 OA
ENDBRANCH  24  31
BRANCH  26  32
ATOM     32  O   UNL     1       9.052   4.812  24.940  0.00  0.00    -0.491 OA
ATOM     33  C   UNL     1       9.704   6.021  24.604  0.00  0.00    +0.277 C 
ENDBRANCH  26  32
BRANCH  25  34
ATOM     34  O   UNL     1      10.907   2.824  23.540  0.00  0.00    -0.501 OA
ATOM     35  H   UNL     1      11.229   3.590  24.030  0.00  0.00    +0.292 HD
ENDBRANCH  25  34
ENDBRANCH  22  28
ENDBRANCH  20  23
ENDBRANCH  19  20
ENDBRANCH  18  19
ENDBRANCH  17  18
ENDBRANCH  13  17
ENDBRANCH  12  15
ENDBRANCH  11  12
ENDBRANCH   7  11
ENDBRANCH   2   9
BRANCH   2  36
ATOM     36  O   UNL     1       6.335   3.618  26.955  0.00  0.00    -0.376 OA
ATOM     37  H   UNL     1       5.691   4.305  26.702  0.00  0.00    +0.211 HD
ENDBRANCH   2  36
ENDBRANCH   1   3
BRANCH   1  38
ATOM     38  P   UNL     1       7.751  -1.190  25.943  0.00  0.00    +0.484 P 
ATOM     39  O   UNL     1       8.751  -0.732  24.873  0.00  0.00    -0.227 OA
BRANCH  38  40
ATOM     40  O   UNL     1       6.758  -2.209  25.139  0.00  0.00    -0.302 OA
ATOM     41  H   UNL     1       7.332  -2.787  24.597  0.00  0.00    +0.222 HD
ENDBRANCH  38  40
BRANCH  38  42
ATOM     42  O   UNL     1       8.811  -2.498  26.345  0.00  0.00    -0.186 OA
BRANCH  42  43
ATOM     43  P   UNL     1       8.520  -4.063  26.173  0.00  0.00    +0.483 P 
ATOM     44  O   UNL     1       8.623  -4.597  24.778  0.00  0.00    -0.227 OA
BRANCH  43  45
ATOM     45  O   UNL     1       9.588  -4.788  27.115  0.00  0.00    -0.302 OA
ATOM     46  H   UNL     1       9.336  -4.680  28.052  0.00  0.00    +0.222 HD
ENDBRANCH  43  45
BRANCH  43  47
ATOM     47  O   UNL     1       7.123  -4.453  26.867  0.00  0.00    -0.284 OA
BRANCH  47  48
ATOM     48  C   UNL     1       6.712  -5.838  26.933  0.00  0.00    +0.206 C 
BRANCH  48  49
ATOM     49  C   UNL     1       5.380  -6.191  26.205  0.00  0.00    +0.179 C 
ATOM     50  C   UNL     1       5.183  -5.488  24.816  0.00  0.00    +0.194 C 
ATOM     51  C   UNL     1       3.774  -4.888  24.879  0.00  0.00    +0.196 C 
ATOM     52  C   UNL     1       3.201  -5.353  26.231  0.00  0.00    +0.253 C 
ATOM     53  O   UNL     1       4.313  -5.725  27.059  0.00  0.00    -0.346 OA
BRANCH  52  54
ATOM     54  N   UNL     1       2.342  -4.436  26.947  0.00  0.00    -0.286 N 
ATOM     55  C   UNL     1       2.657  -3.693  28.053  0.00  0.00    +0.167 A 
ATOM     56  C   UNL     1       1.526  -2.930  28.302  0.00  0.00    +0.147 A 
ATOM     57  C   UNL     1       1.602  -2.012  29.375  0.00  0.00    +0.147 A 
ATOM     58  N   UNL     1       2.735  -1.973  30.102  0.00  0.00    -0.219 NA
ATOM     59  C   UNL     1       3.757  -2.785  29.751  0.00  0.00    +0.225 A 
ATOM     60  N   UNL     1       0.524  -3.224  27.402  0.00  0.00    -0.231 NA
ATOM     61  N   UNL     1       3.822  -3.667  28.730  0.00  0.00    -0.216 NA
ATOM     62  C   UNL     1       1.048  -4.134  26.607  0.00  0.00    +0.203 A 
BRANCH  57  63
ATOM     63  N   UNL     1       0.574  -1.141  29.706  0.00  0.00    -0.341 N 
ATOM     64  H   UNL     1       0.307  -0.545  28.934  0.00  0.00    +0.144 HD
ATOM     65  H   UNL     1       0.665  -0.723  30.624  0.00  0.00    +0.144 HD
ENDBRANCH  57  63
ENDBRANCH  52  54
BRANCH  51  66
ATOM     66  O   UNL     1       3.873  -3.470  24.713  0.00  0.00    -0.385 OA
ATOM     67  H   UNL     1       4.517  -3.273  23.998  0.00  0.00    +0.210 HD
ENDBRANCH  51  66
BRANCH  50  68
ATOM     68  O   UNL     1       5.291  -6.332  23.619  0.00  0.00    -0.278 OA
BRANCH  68  69
ATOM     69  P   UNL     1       5.573  -5.360  22.216  0.00  0.00    +0.473 P 
ATOM     70  O   UNL     1       5.826  -4.491  20.960  0.00  0.00    -0.228 OA
BRANCH  69  71
ATOM     71  O   UNL     1       6.396  -4.410  23.254  0.00  0.00    -0.303 OA
ATOM     72  H   UNL     1       6.753  -3.650  22.758  0.00  0.00    +0.222 HD
ENDBRANCH  69  71
BRANCH  69  73
ATOM     73  O   UNL     1       6.806  -6.363  21.850  0.00  0.00    -0.303 OA
ATOM     74  H   UNL     1       6.667  -7.148  22.421  0.00  0.00    +0.222 HD
ENDBRANCH  69  73
ENDBRANCH  68  69
ENDBRANCH  50  68
ENDBRANCH  48  49
ENDBRANCH  47  48
ENDBRANCH  43  47
ENDBRANCH  42  43
ENDBRANCH  38  42
ENDBRANCH   1  38
TORSDOF 30
ENDMDL
MODEL 5
REMARK VINA RESULT:      -5.0      3.350      9.231
REMARK  Name = 
REMARK  34 active torsions:
REMARK  status: ('A' for Active; 'I' for Inactive)
REMARK    1  A    between atoms: C_1  and  O_2
REMARK    2  A    between atoms: O_2  and  C_3
REMARK    3  A    between atoms: C_5  and  C_6
REMARK    4  A    between atoms: C_7  and  C_8
REMARK    5  A    between atoms: C_8  and  S_10
REMARK    6  A    between atoms: S_10  and  C_11
REMARK    7  A    between atoms: C_11  and  C_12
REMARK    8  A    between atoms: C_12  and  N_13
REMARK    9  A    between atoms: C_14  and  C_16
REMARK   10  A    between atoms: C_16  and  C_17
REMARK   11  A    between atoms: C_17  and  N_18
REMARK   12  A    between atoms: C_19  and  C_21
REMARK   13  A    between atoms: C_21  and  O_22
REMARK   14  A    between atoms: C_23  and  C_24
REMARK   15  A    between atoms: C_23  and  C_25
REMARK   16  A    between atoms: C_26  and  O_28
REMARK   17  A    between atoms: O_28  and  P_29
REMARK   18  A    between atoms: P_29  and  O_30
REMARK   19  A    between atoms: P_29  and  O_32
REMARK   20  A    between atoms: O_32  and  P_33
REMARK   21  A    between atoms: P_33  and  O_34
REMARK   22  A    between atoms: P_33  and  O_36
REMARK   23  A    between atoms: O_36  and  C_37
REMARK   24  A    between atoms: C_37  and  C_38
REMARK   25  A    between atoms: C_41  and  N_53
REMARK   26  A    between atoms: C_43  and  O_45
REMARK   27  A    between atoms: C_46  and  O_48
REMARK   28  A    between atoms: O_48  and  P_49
REMARK   29  A    between atoms: P_49  and  O_50
REMARK   30  A    between atoms: P_49  and  O_51
REMARK   31  A    between atoms: C_57  and  N_58
REMARK   32  A    between atoms: C_64  and  O_65
REMARK   33  A    between atoms: O_65  and  C_66
REMARK   34  A    between atoms: C_67  and  O_68
REMARK                            x       y       z     vdW  Elec       q    Type
REMARK                         _______ _______ _______ _____ _____    ______ ____
ROOT
ATOM      1  O   UNL     1       4.000  -2.712  25.094  0.00  0.00    -0.279 OA
ENDROOT
BRANCH   1   3
ATOM      2  C   UNL     1       5.397  -4.956  25.101  0.00  0.00    +0.176 C 
ATOM      3  C   UNL     1       4.770  -3.749  24.420  0.00  0.00    +0.180 C 
ATOM      4  C   UNL     1       4.142  -5.121  24.223  0.00  0.00    +0.035 C 
ATOM      5  C   UNL     1       2.844  -5.515  24.905  0.00  0.00    +0.017 C 
ATOM      6  C   UNL     1       4.267  -5.746  22.853  0.00  0.00    +0.017 C 
BRANCH   2   9
ATOM      7  N   UNL     1       5.047  -4.546  27.501  0.00  0.00    -0.312 N 
ATOM      8  H   UNL     1       4.888  -3.579  27.231  0.00  0.00    +0.149 HD
ATOM      9  C   UNL     1       5.297  -5.467  26.518  0.00  0.00    +0.248 C 
ATOM     10  O   UNL     1       5.621  -6.627  26.772  0.00  0.00    -0.273 OA
BRANCH   7  11
ATOM     11  C   UNL     1       5.026  -4.909  28.914  0.00  0.00    +0.113 C 
BRANCH  11  12
ATOM     12  C   UNL     1       3.944  -4.199  29.721  0.00  0.00    +0.114 C 
BRANCH  12  15
ATOM     13  N   UNL     1       4.231  -1.789  29.988  0.00  0.00    -0.314 N 
ATOM     14  H   UNL     1       4.736  -2.013  30.836  0.00  0.00    +0.149 HD
ATOM     15  C   UNL     1       3.711  -2.796  29.207  0.00  0.00    +0.215 C 
ATOM     16  O   UNL     1       3.049  -2.590  28.197  0.00  0.00    -0.276 OA
BRANCH  13  17
ATOM     17  C   UNL     1       3.978  -0.387  29.682  0.00  0.00    +0.115 C 
BRANCH  17  18
ATOM     18  C   UNL     1       4.940   0.581  30.385  0.00  0.00    +0.096 C 
BRANCH  18  19
ATOM     19  S   UNL     1       5.672   1.678  29.127  0.00  0.00    -0.082 S 
BRANCH  19  20
ATOM     20  C   UNL     1       7.335   1.117  29.105  0.00  0.00    +0.213 C 
ATOM     21  O   UNL     1       8.042   1.075  30.099  0.00  0.00    -0.280 OA
BRANCH  20  23
ATOM     22  C   UNL     1       8.447  -0.418  27.524  0.00  0.00    +0.012 C 
ATOM     23  C   UNL     1       7.783   0.729  27.737  0.00  0.00    +0.058 C 
BRANCH  22  28
ATOM     24  C   UNL     1       9.385  -2.669  24.654  0.00  0.00    +0.166 A 
ATOM     25  C   UNL     1      10.018  -1.779  23.759  0.00  0.00    +0.201 A 
ATOM     26  C   UNL     1      10.074  -0.411  24.055  0.00  0.00    +0.166 A 
ATOM     27  C   UNL     1       9.545   0.031  25.283  0.00  0.00    +0.057 A 
ATOM     28  C   UNL     1       8.977  -0.847  26.215  0.00  0.00    -0.018 A 
ATOM     29  C   UNL     1       8.885  -2.197  25.875  0.00  0.00    +0.057 A 
BRANCH  24  31
ATOM     30  C   UNL     1       9.784  -4.932  25.249  0.00  0.00    +0.277 C 
ATOM     31  O   UNL     1       9.318  -3.993  24.284  0.00  0.00    -0.491 OA
ENDBRANCH  24  31
BRANCH  26  32
ATOM     32  O   UNL     1      10.595   0.631  23.341  0.00  0.00    -0.491 OA
ATOM     33  C   UNL     1       9.777   1.639  22.779  0.00  0.00    +0.277 C 
ENDBRANCH  26  32
BRANCH  25  34
ATOM     34  O   UNL     1      10.564  -2.345  22.638  0.00  0.00    -0.501 OA
ATOM     35  H   UNL     1      11.367  -2.822  22.879  0.00  0.00    +0.292 HD
ENDBRANCH  25  34
ENDBRANCH  22  28
ENDBRANCH  20  23
ENDBRANCH  19  20
ENDBRANCH  18  19
ENDBRANCH  17  18
ENDBRANCH  13  17
ENDBRANCH  12  15
ENDBRANCH  11  12
ENDBRANCH   7  11
ENDBRANCH   2   9
BRANCH   2  36
ATOM     36  O   UNL     1       6.654  -5.349  24.477  0.00  0.00    -0.376 OA
ATOM     37  H   UNL     1       6.488  -5.793  23.625  0.00  0.00    +0.211 HD
ENDBRANCH   2  36
ENDBRANCH   1   3
BRANCH   1  38
ATOM     38  P   UNL     1       4.897  -1.246  25.290  0.00  0.00    +0.484 P 
ATOM     39  O   UNL     1       5.902  -1.699  24.223  0.00  0.00    -0.227 OA
BRANCH  38  40
ATOM     40  O   UNL     1       5.514  -1.837  26.683  0.00  0.00    -0.302 OA
ATOM     41  H   UNL     1       5.007  -1.423  27.410  0.00  0.00    +0.222 HD
ENDBRANCH  38  40
BRANCH  38  42
ATOM     42  O   UNL     1       5.795   0.221  25.485  0.00  0.00    -0.186 OA
BRANCH  42  43
ATOM     43  P   UNL     1       5.919   1.422  24.434  0.00  0.00    +0.483 P 
ATOM     44  O   UNL     1       7.064   2.363  24.650  0.00  0.00    -0.227 OA
BRANCH  43  45
ATOM     45  O   UNL     1       6.059   0.713  23.009  0.00  0.00    -0.302 OA
ATOM     46  H   UNL     1       6.564   1.284  22.399  0.00  0.00    +0.222 HD
ENDBRANCH  43  45
BRANCH  43  47
ATOM     47  O   UNL     1       4.517   2.197  24.300  0.00  0.00    -0.284 OA
BRANCH  47  48
ATOM     48  C   UNL     1       4.329   3.172  23.248  0.00  0.00    +0.206 C 
BRANCH  48  49
ATOM     49  C   UNL     1       4.348   4.666  23.690  0.00  0.00    +0.179 C 
ATOM     50  C   UNL     1       4.149   5.700  22.528  0.00  0.00    +0.194 C 
ATOM     51  C   UNL     1       5.284   6.715  22.708  0.00  0.00    +0.196 C 
ATOM     52  C   UNL     1       6.004   6.284  24.000  0.00  0.00    +0.253 C 
ATOM     53  O   UNL     1       5.662   4.910  24.239  0.00  0.00    -0.346 OA
BRANCH  52  54
ATOM     54  N   UNL     1       7.439   6.449  24.055  0.00  0.00    -0.286 N 
ATOM     55  C   UNL     1       8.205   6.711  25.159  0.00  0.00    +0.167 A 
ATOM     56  C   UNL     1       9.513   6.698  24.695  0.00  0.00    +0.147 A 
ATOM     57  C   UNL     1      10.530   6.886  25.658  0.00  0.00    +0.147 A 
ATOM     58  N   UNL     1      10.166   7.108  26.936  0.00  0.00    -0.219 NA
ATOM     59  C   UNL     1       8.849   7.103  27.244  0.00  0.00    +0.225 A 
ATOM     60  N   UNL     1       9.552   6.477  23.335  0.00  0.00    -0.231 NA
ATOM     61  N   UNL     1       7.793   6.895  26.429  0.00  0.00    -0.216 NA
ATOM     62  C   UNL     1       8.290   6.337  22.984  0.00  0.00    +0.203 A 
BRANCH  57  63
ATOM     63  N   UNL     1      11.883   6.840  25.355  0.00  0.00    -0.341 N 
ATOM     64  H   UNL     1      12.300   7.759  25.302  0.00  0.00    +0.144 HD
ATOM     65  H   UNL     1      12.125   6.163  24.641  0.00  0.00    +0.144 HD
ENDBRANCH  57  63
ENDBRANCH  52  54
BRANCH  51  66
ATOM     66  O   UNL     1       6.092   6.712  21.527  0.00  0.00    -0.385 OA
ATOM     67  H   UNL     1       5.613   7.175  20.807  0.00  0.00    +0.210 HD
ENDBRANCH  51  66
BRANCH  50  68
ATOM     68  O   UNL     1       2.867   6.417  22.484  0.00  0.00    -0.278 OA
BRANCH  68  69
ATOM     69  P   UNL     1       2.098   6.188  20.952  0.00  0.00    +0.473 P 
ATOM     70  O   UNL     1       1.409   5.983  19.581  0.00  0.00    -0.228 OA
BRANCH  69  71
ATOM     71  O   UNL     1       3.323   7.108  20.395  0.00  0.00    -0.303 OA
ATOM     72  H   UNL     1       3.030   7.544  19.573  0.00  0.00    +0.222 HD
ENDBRANCH  69  71
BRANCH  69  73
ATOM     73  O   UNL     1       2.868   4.755  20.852  0.00  0.00    -0.303 OA
ATOM     74  H   UNL     1       3.155   4.561  21.770  0.00  0.00    +0.222 HD
ENDBRANCH  69  73
ENDBRANCH  68  69
ENDBRANCH  50  68
ENDBRANCH  48  49
ENDBRANCH  47  48
ENDBRANCH  43  47
ENDBRANCH  42  43
ENDBRANCH  38  42
ENDBRANCH   1  38
TORSDOF 30
ENDMDL
MODEL 6
REMARK VINA RESULT:      -4.9      2.907      5.666
REMARK  Name = 
REMARK  34 active torsions:
REMARK  status: ('A' for Active; 'I' for Inactive)
REMARK    1  A    between atoms: C_1  and  O_2
REMARK    2  A    between atoms: O_2  and  C_3
REMARK    3  A    between atoms: C_5  and  C_6
REMARK    4  A    between atoms: C_7  and  C_8
REMARK    5  A    between atoms: C_8  and  S_10
REMARK    6  A    between atoms: S_10  and  C_11
REMARK    7  A    between atoms: C_11  and  C_12
REMARK    8  A    between atoms: C_12  and  N_13
REMARK    9  A    between atoms: C_14  and  C_16
REMARK   10  A    between atoms: C_16  and  C_17
REMARK   11  A    between atoms: C_17  and  N_18
REMARK   12  A    between atoms: C_19  and  C_21
REMARK   13  A    between atoms: C_21  and  O_22
REMARK   14  A    between atoms: C_23  and  C_24
REMARK   15  A    between atoms: C_23  and  C_25
REMARK   16  A    between atoms: C_26  and  O_28
REMARK   17  A    between atoms: O_28  and  P_29
REMARK   18  A    between atoms: P_29  and  O_30
REMARK   19  A    between atoms: P_29  and  O_32
REMARK   20  A    between atoms: O_32  and  P_33
REMARK   21  A    between atoms: P_33  and  O_34
REMARK   22  A    between atoms: P_33  and  O_36
REMARK   23  A    between atoms: O_36  and  C_37
REMARK   24  A    between atoms: C_37  and  C_38
REMARK   25  A    between atoms: C_41  and  N_53
REMARK   26  A    between atoms: C_43  and  O_45
REMARK   27  A    between atoms: C_46  and  O_48
REMARK   28  A    between atoms: O_48  and  P_49
REMARK   29  A    between atoms: P_49  and  O_50
REMARK   30  A    between atoms: P_49  and  O_51
REMARK   31  A    between atoms: C_57  and  N_58
REMARK   32  A    between atoms: C_64  and  O_65
REMARK   33  A    between atoms: O_65  and  C_66
REMARK   34  A    between atoms: C_67  and  O_68
REMARK                            x       y       z     vdW  Elec       q    Type
REMARK                         _______ _______ _______ _____ _____    ______ ____
ROOT
ATOM      1  O   UNL     1       7.388  -0.550  25.824  0.00  0.00    -0.279 OA
ENDROOT
BRANCH   1   3
ATOM      2  C   UNL     1       7.815  -0.824  23.230  0.00  0.00    +0.176 C 
ATOM      3  C   UNL     1       7.821  -1.323  24.667  0.00  0.00    +0.180 C 
ATOM      4  C   UNL     1       9.142  -0.970  23.999  0.00  0.00    +0.035 C 
ATOM      5  C   UNL     1       9.904   0.296  24.349  0.00  0.00    +0.017 C 
ATOM      6  C   UNL     1      10.074  -2.112  23.669  0.00  0.00    +0.017 C 
BRANCH   2   9
ATOM      7  N   UNL     1       6.550   1.285  23.255  0.00  0.00    -0.312 N 
ATOM      8  H   UNL     1       6.110   0.919  24.095  0.00  0.00    +0.149 HD
ATOM      9  C   UNL     1       7.523   0.538  22.647  0.00  0.00    +0.248 C 
ATOM     10  O   UNL     1       8.013   0.855  21.563  0.00  0.00    -0.273 OA
BRANCH   7  11
ATOM     11  C   UNL     1       6.116   2.573  22.721  0.00  0.00    +0.113 C 
BRANCH  11  12
ATOM     12  C   UNL     1       7.215   3.346  21.999  0.00  0.00    +0.114 C 
BRANCH  12  15
ATOM     13  N   UNL     1       8.252   5.487  22.551  0.00  0.00    -0.314 N 
ATOM     14  H   UNL     1       7.898   5.809  21.658  0.00  0.00    +0.149 HD
ATOM     15  C   UNL     1       8.009   4.197  22.965  0.00  0.00    +0.215 C 
ATOM     16  O   UNL     1       8.450   3.732  24.008  0.00  0.00    -0.276 OA
BRANCH  13  17
ATOM     17  C   UNL     1       9.107   6.382  23.320  0.00  0.00    +0.115 C 
BRANCH  17  18
ATOM     18  C   UNL     1       8.402   7.029  24.520  0.00  0.00    +0.096 C 
BRANCH  18  19
ATOM     19  S   UNL     1       9.209   6.442  26.045  0.00  0.00    -0.082 S 
BRANCH  19  20
ATOM     20  C   UNL     1       7.852   6.386  27.156  0.00  0.00    +0.213 C 
ATOM     21  O   UNL     1       7.980   6.297  28.367  0.00  0.00    -0.280 OA
BRANCH  20  23
ATOM     22  C   UNL     1       5.530   5.624  26.811  0.00  0.00    +0.012 C 
ATOM     23  C   UNL     1       6.540   6.431  26.449  0.00  0.00    +0.058 C 
BRANCH  22  28
ATOM     24  C   UNL     1       2.832   6.300  24.271  0.00  0.00    +0.166 A 
ATOM     25  C   UNL     1       1.741   5.561  24.777  0.00  0.00    +0.201 A 
ATOM     26  C   UNL     1       1.903   4.767  25.920  0.00  0.00    +0.166 A 
ATOM     27  C   UNL     1       3.150   4.780  26.573  0.00  0.00    +0.057 A 
ATOM     28  C   UNL     1       4.223   5.563  26.127  0.00  0.00    -0.018 A 
ATOM     29  C   UNL     1       4.054   6.304  24.957  0.00  0.00    +0.057 A 
BRANCH  24  31
ATOM     30  C   UNL     1       3.301   6.544  21.956  0.00  0.00    +0.277 C 
ATOM     31  O   UNL     1       2.625   7.021  23.117  0.00  0.00    -0.491 OA
ENDBRANCH  24  31
BRANCH  26  32
ATOM     32  O   UNL     1       1.019   3.951  26.566  0.00  0.00    -0.491 OA
ATOM     33  C   UNL     1       0.678   2.670  26.070  0.00  0.00    +0.277 C 
ENDBRANCH  26  32
BRANCH  25  34
ATOM     34  O   UNL     1       0.560   5.696  24.096  0.00  0.00    -0.501 OA
ATOM     35  H   UNL     1       0.034   6.392  24.505  0.00  0.00    +0.292 HD
ENDBRANCH  25  34
ENDBRANCH  22  28
ENDBRANCH  20  23
ENDBRANCH  19  20
ENDBRANCH  18  19
ENDBRANCH  17  18
ENDBRANCH  13  17
ENDBRANCH  12  15
ENDBRANCH  11  12
ENDBRANCH   7  11
ENDBRANCH   2   9
BRANCH   2  36
ATOM     36  O   UNL     1       7.523  -1.889  22.279  0.00  0.00    -0.376 OA
ATOM     37  H   UNL     1       7.914  -1.687  21.410  0.00  0.00    +0.211 HD
ENDBRANCH   2  36
ENDBRANCH   1   3
BRANCH   1  38
ATOM     38  P   UNL     1       5.685  -0.676  26.102  0.00  0.00    +0.484 P 
ATOM     39  O   UNL     1       5.558   0.853  26.119  0.00  0.00    -0.227 OA
BRANCH  38  40
ATOM     40  O   UNL     1       5.991  -1.061  27.660  0.00  0.00    -0.302 OA
ATOM     41  H   UNL     1       6.833  -1.557  27.664  0.00  0.00    +0.222 HD
ENDBRANCH  38  40
BRANCH  38  42
ATOM     42  O   UNL     1       3.981  -0.800  26.378  0.00  0.00    -0.186 OA
BRANCH  42  43
ATOM     43  P   UNL     1       3.166  -2.112  26.799  0.00  0.00    +0.483 P 
ATOM     44  O   UNL     1       3.955  -3.175  27.500  0.00  0.00    -0.227 OA
BRANCH  43  45
ATOM     45  O   UNL     1       1.995  -1.585  27.751  0.00  0.00    -0.302 OA
ATOM     46  H   UNL     1       1.158  -2.039  27.535  0.00  0.00    +0.222 HD
ENDBRANCH  43  45
BRANCH  43  47
ATOM     47  O   UNL     1       2.353  -2.695  25.540  0.00  0.00    -0.284 OA
BRANCH  47  48
ATOM     48  C   UNL     1       2.362  -4.116  25.269  0.00  0.00    +0.206 C 
BRANCH  48  49
ATOM     49  C   UNL     1       2.958  -4.546  23.895  0.00  0.00    +0.179 C 
ATOM     50  C   UNL     1       2.864  -6.081  23.589  0.00  0.00    +0.194 C 
ATOM     51  C   UNL     1       4.278  -6.479  23.148  0.00  0.00    +0.196 C 
ATOM     52  C   UNL     1       5.075  -5.161  23.123  0.00  0.00    +0.253 C 
ATOM     53  O   UNL     1       4.364  -4.219  23.942  0.00  0.00    -0.346 OA
BRANCH  52  54
ATOM     54  N   UNL     1       6.462  -5.209  23.524  0.00  0.00    -0.286 N 
ATOM     55  C   UNL     1       6.984  -4.911  24.754  0.00  0.00    +0.167 A 
ATOM     56  C   UNL     1       8.340  -5.186  24.641  0.00  0.00    +0.147 A 
ATOM     57  C   UNL     1       9.121  -5.018  25.807  0.00  0.00    +0.147 A 
ATOM     58  N   UNL     1       8.515  -4.566  26.922  0.00  0.00    -0.219 NA
ATOM     59  C   UNL     1       7.185  -4.329  26.884  0.00  0.00    +0.225 A 
ATOM     60  N   UNL     1       8.654  -5.600  23.365  0.00  0.00    -0.231 NA
ATOM     61  N   UNL     1       6.328  -4.490  25.853  0.00  0.00    -0.216 NA
ATOM     62  C   UNL     1       7.505  -5.598  22.721  0.00  0.00    +0.203 A 
BRANCH  57  63
ATOM     63  N   UNL     1      10.477  -5.310  25.863  0.00  0.00    -0.341 N 
ATOM     64  H   UNL     1      10.744  -5.741  26.738  0.00  0.00    +0.144 HD
ATOM     65  H   UNL     1      11.073  -4.583  25.486  0.00  0.00    +0.144 HD
ENDBRANCH  57  63
ENDBRANCH  52  54
BRANCH  51  66
ATOM     66  O   UNL     1       4.773  -7.476  24.048  0.00  0.00    -0.385 OA
ATOM     67  H   UNL     1       4.947  -8.303  23.549  0.00  0.00    +0.210 HD
ENDBRANCH  51  66
BRANCH  50  68
ATOM     68  O   UNL     1       1.906  -6.499  22.557  0.00  0.00    -0.278 OA
BRANCH  68  69
ATOM     69  P   UNL     1       1.146  -7.988  23.002  0.00  0.00    +0.473 P 
ATOM     70  O   UNL     1       0.467  -9.321  23.402  0.00  0.00    -0.228 OA
BRANCH  69  71
ATOM     71  O   UNL     1       1.555  -8.447  21.493  0.00  0.00    -0.303 OA
ATOM     72  H   UNL     1       2.080  -9.267  21.553  0.00  0.00    +0.222 HD
ENDBRANCH  69  71
BRANCH  69  73
ATOM     73  O   UNL     1       2.547  -8.411  23.721  0.00  0.00    -0.303 OA
ATOM     74  H   UNL     1       3.113  -7.613  23.655  0.00  0.00    +0.222 HD
ENDBRANCH  69  73
ENDBRANCH  68  69
ENDBRANCH  50  68
ENDBRANCH  48  49
ENDBRANCH  47  48
ENDBRANCH  43  47
ENDBRANCH  42  43
ENDBRANCH  38  42
ENDBRANCH   1  38
TORSDOF 30
ENDMDL
MODEL 7
REMARK VINA RESULT:      -4.8      3.129      7.703
REMARK  Name = 
REMARK  34 active torsions:
REMARK  status: ('A' for Active; 'I' for Inactive)
REMARK    1  A    between atoms: C_1  and  O_2
REMARK    2  A    between atoms: O_2  and  C_3
REMARK    3  A    between atoms: C_5  and  C_6
REMARK    4  A    between atoms: C_7  and  C_8
REMARK    5  A    between atoms: C_8  and  S_10
REMARK    6  A    between atoms: S_10  and  C_11
REMARK    7  A    between atoms: C_11  and  C_12
REMARK    8  A    between atoms: C_12  and  N_13
REMARK    9  A    between atoms: C_14  and  C_16
REMARK   10  A    between atoms: C_16  and  C_17
REMARK   11  A    between atoms: C_17  and  N_18
REMARK   12  A    between atoms: C_19  and  C_21
REMARK   13  A    between atoms: C_21  and  O_22
REMARK   14  A    between atoms: C_23  and  C_24
REMARK   15  A    between atoms: C_23  and  C_25
REMARK   16  A    between atoms: C_26  and  O_28
REMARK   17  A    between atoms: O_28  and  P_29
REMARK   18  A    between atoms: P_29  and  O_30
REMARK   19  A    between atoms: P_29  and  O_32
REMARK   20  A    between atoms: O_32  and  P_33
REMARK   21  A    between atoms: P_33  and  O_34
REMARK   22  A    between atoms: P_33  and  O_36
REMARK   23  A    between atoms: O_36  and  C_37
REMARK   24  A    between atoms: C_37  and  C_38
REMARK   25  A    between atoms: C_41  and  N_53
REMARK   26  A    between atoms: C_43  and  O_45
REMARK   27  A    between atoms: C_46  and  O_48
REMARK   28  A    between atoms: O_48  and  P_49
REMARK   29  A    between atoms: P_49  and  O_50
REMARK   30  A    between atoms: P_49  and  O_51
REMARK   31  A    between atoms: C_57  and  N_58
REMARK   32  A    between atoms: C_64  and  O_65
REMARK   33  A    between atoms: O_65  and  C_66
REMARK   34  A    between atoms: C_67  and  O_68
REMARK                            x       y       z     vdW  Elec       q    Type
REMARK                         _______ _______ _______ _____ _____    ______ ____
ROOT
ATOM      1  O   UNL     1       5.534   2.717  23.503  0.00  0.00    -0.279 OA
ENDROOT
BRANCH   1   3
ATOM      2  C   UNL     1       5.254   4.961  24.870  0.00  0.00    +0.176 C 
ATOM      3  C   UNL     1       4.863   3.539  24.501  0.00  0.00    +0.180 C 
ATOM      4  C   UNL     1       3.987   4.693  24.036  0.00  0.00    +0.035 C 
ATOM      5  C   UNL     1       3.974   5.158  22.591  0.00  0.00    +0.017 C 
ATOM      6  C   UNL     1       2.627   4.829  24.680  0.00  0.00    +0.017 C 
BRANCH   2   9
ATOM      7  N   UNL     1       7.315   5.351  23.586  0.00  0.00    -0.312 N 
ATOM      8  H   UNL     1       7.339   4.342  23.469  0.00  0.00    +0.149 HD
ATOM      9  C   UNL     1       6.266   5.907  24.268  0.00  0.00    +0.248 C 
ATOM     10  O   UNL     1       6.230   7.104  24.557  0.00  0.00    -0.273 OA
BRANCH   7  11
ATOM     11  C   UNL     1       8.403   6.161  23.046  0.00  0.00    +0.113 C 
BRANCH  11  12
ATOM     12  C   UNL     1       9.625   6.243  23.956  0.00  0.00    +0.114 C 
BRANCH  12  15
ATOM     13  N   UNL     1      10.056   3.914  23.365  0.00  0.00    -0.314 N 
ATOM     14  H   UNL     1       9.050   3.800  23.367  0.00  0.00    +0.149 HD
ATOM     15  C   UNL     1      10.613   5.141  23.646  0.00  0.00    +0.215 C 
ATOM     16  O   UNL     1      11.820   5.333  23.709  0.00  0.00    -0.276 OA
BRANCH  13  17
ATOM     17  C   UNL     1      10.886   2.733  23.169  0.00  0.00    +0.115 C 
BRANCH  17  18
ATOM     18  C   UNL     1      10.173   1.414  23.499  0.00  0.00    +0.096 C 
BRANCH  18  19
ATOM     19  S   UNL     1       9.721   0.599  21.933  0.00  0.00    -0.082 S 
BRANCH  19  20
ATOM     20  C   UNL     1      10.129  -1.071  22.282  0.00  0.00    +0.213 C 
ATOM     21  O   UNL     1      11.275  -1.492  22.300  0.00  0.00    -0.280 OA
BRANCH  20  23
ATOM     22  C   UNL     1       8.946  -2.926  23.400  0.00  0.00    +0.012 C 
ATOM     23  C   UNL     1       8.921  -1.911  22.522  0.00  0.00    +0.058 C 
BRANCH  22  28
ATOM     24  C   UNL     1       6.459  -5.040  25.279  0.00  0.00    +0.166 A 
ATOM     25  C   UNL     1       5.710  -5.632  24.239  0.00  0.00    +0.201 A 
ATOM     26  C   UNL     1       5.964  -5.282  22.907  0.00  0.00    +0.166 A 
ATOM     27  C   UNL     1       7.015  -4.385  22.639  0.00  0.00    +0.057 A 
ATOM     28  C   UNL     1       7.815  -3.841  23.652  0.00  0.00    -0.018 A 
ATOM     29  C   UNL     1       7.509  -4.164  24.975  0.00  0.00    +0.057 A 
BRANCH  24  31
ATOM     30  C   UNL     1       7.222  -5.717  27.423  0.00  0.00    +0.277 C 
ATOM     31  O   UNL     1       6.129  -5.386  26.570  0.00  0.00    -0.491 OA
ENDBRANCH  24  31
BRANCH  26  32
ATOM     32  O   UNL     1       5.359  -5.689  21.751  0.00  0.00    -0.491 OA
ATOM     33  C   UNL     1       6.100  -6.018  20.592  0.00  0.00    +0.277 C 
ENDBRANCH  26  32
BRANCH  25  34
ATOM     34  O   UNL     1       4.770  -6.550  24.626  0.00  0.00    -0.501 OA
ATOM     35  H   UNL     1       4.412  -6.298  25.485  0.00  0.00    +0.292 HD
ENDBRANCH  25  34
ENDBRANCH  22  28
ENDBRANCH  20  23
ENDBRANCH  19  20
ENDBRANCH  18  19
ENDBRANCH  17  18
ENDBRANCH  13  17
ENDBRANCH  12  15
ENDBRANCH  11  12
ENDBRANCH   7  11
ENDBRANCH   2   9
BRANCH   2  36
ATOM     36  O   UNL     1       5.026   5.247  26.280  0.00  0.00    -0.376 OA
ATOM     37  H   UNL     1       5.783   5.731  26.658  0.00  0.00    +0.211 HD
ENDBRANCH   2  36
ENDBRANCH   1   3
BRANCH   1  38
ATOM     38  P   UNL     1       6.352   1.363  24.204  0.00  0.00    +0.484 P 
ATOM     39  O   UNL     1       6.428   0.678  22.833  0.00  0.00    -0.227 OA
BRANCH  38  40
ATOM     40  O   UNL     1       4.926   0.850  24.818  0.00  0.00    -0.302 OA
ATOM     41  H   UNL     1       5.041   0.805  25.787  0.00  0.00    +0.222 HD
ENDBRANCH  38  40
BRANCH  38  42
ATOM     42  O   UNL     1       7.170   0.008  24.904  0.00  0.00    -0.186 OA
BRANCH  42  43
ATOM     43  P   UNL     1       7.473  -0.238  26.457  0.00  0.00    +0.483 P 
ATOM     44  O   UNL     1       8.625  -1.145  26.761  0.00  0.00    -0.227 OA
BRANCH  43  45
ATOM     45  O   UNL     1       7.751   1.216  27.060  0.00  0.00    -0.302 OA
ATOM     46  H   UNL     1       7.085   1.428  27.743  0.00  0.00    +0.222 HD
ENDBRANCH  43  45
BRANCH  43  47
ATOM     47  O   UNL     1       6.133  -0.683  27.227  0.00  0.00    -0.284 OA
BRANCH  47  48
ATOM     48  C   UNL     1       5.476  -1.922  26.873  0.00  0.00    +0.206 C 
BRANCH  48  49
ATOM     49  C   UNL     1       3.925  -1.939  27.019  0.00  0.00    +0.179 C 
ATOM     50  C   UNL     1       3.402  -1.867  28.496  0.00  0.00    +0.194 C 
ATOM     51  C   UNL     1       2.381  -3.005  28.605  0.00  0.00    +0.196 C 
ATOM     52  C   UNL     1       2.291  -3.599  27.186  0.00  0.00    +0.253 C 
ATOM     53  O   UNL     1       3.480  -3.204  26.484  0.00  0.00    -0.346 OA
BRANCH  52  54
ATOM     54  N   UNL     1       2.103  -5.027  27.067  0.00  0.00    -0.286 N 
ATOM     55  C   UNL     1       1.908  -5.748  25.919  0.00  0.00    +0.167 A 
ATOM     56  C   UNL     1       1.860  -7.071  26.334  0.00  0.00    +0.147 A 
ATOM     57  C   UNL     1       1.723  -8.049  25.324  0.00  0.00    +0.147 A 
ATOM     58  N   UNL     1       1.604  -7.636  24.047  0.00  0.00    -0.219 NA
ATOM     59  C   UNL     1       1.657  -6.310  23.789  0.00  0.00    +0.225 A 
ATOM     60  N   UNL     1       1.980  -7.163  27.705  0.00  0.00    -0.231 NA
ATOM     61  N   UNL     1       1.826  -5.288  24.656  0.00  0.00    -0.216 NA
ATOM     62  C   UNL     1       2.119  -5.917  28.111  0.00  0.00    +0.203 A 
BRANCH  57  63
ATOM     63  N   UNL     1       1.721  -9.413  25.579  0.00  0.00    -0.341 N 
ATOM     64  H   UNL     1       2.649  -9.813  25.563  0.00  0.00    +0.144 HD
ATOM     65  H   UNL     1       0.974  -9.919  25.119  0.00  0.00    +0.144 HD
ENDBRANCH  57  63
ENDBRANCH  52  54
BRANCH  51  66
ATOM     66  O   UNL     1       2.816  -3.914  29.621  0.00  0.00    -0.385 OA
ATOM     67  H   UNL     1       3.761  -3.744  29.823  0.00  0.00    +0.210 HD
ENDBRANCH  51  66
BRANCH  50  68
ATOM     68  O   UNL     1       2.767  -0.612  28.919  0.00  0.00    -0.278 OA
BRANCH  68  69
ATOM     69  P   UNL     1       2.569   0.452  27.569  0.00  0.00    +0.473 P 
ATOM     70  O   UNL     1       2.392   1.404  26.361  0.00  0.00    -0.228 OA
BRANCH  69  71
ATOM     71  O   UNL     1       0.992   0.067  27.719  0.00  0.00    -0.303 OA
ATOM     72  H   UNL     1       0.867  -0.845  27.396  0.00  0.00    +0.222 HD
ENDBRANCH  69  71
BRANCH  69  73
ATOM     73  O   UNL     1       2.569   1.691  28.628  0.00  0.00    -0.303 OA
ATOM     74  H   UNL     1       3.306   1.493  29.244  0.00  0.00    +0.222 HD
ENDBRANCH  69  73
ENDBRANCH  68  69
ENDBRANCH  50  68
ENDBRANCH  48  49
ENDBRANCH  47  48
ENDBRANCH  43  47
ENDBRANCH  42  43
ENDBRANCH  38  42
ENDBRANCH   1  38
TORSDOF 30
ENDMDL
MODEL 8
REMARK VINA RESULT:      -4.7      3.352      9.600
REMARK  Name = 
REMARK  34 active torsions:
REMARK  status: ('A' for Active; 'I' for Inactive)
REMARK    1  A    between atoms: C_1  and  O_2
REMARK    2  A    between atoms: O_2  and  C_3
REMARK    3  A    between atoms: C_5  and  C_6
REMARK    4  A    between atoms: C_7  and  C_8
REMARK    5  A    between atoms: C_8  and  S_10
REMARK    6  A    between atoms: S_10  and  C_11
REMARK    7  A    between atoms: C_11  and  C_12
REMARK    8  A    between atoms: C_12  and  N_13
REMARK    9  A    between atoms: C_14  and  C_16
REMARK   10  A    between atoms: C_16  and  C_17
REMARK   11  A    between atoms: C_17  and  N_18
REMARK   12  A    between atoms: C_19  and  C_21
REMARK   13  A    between atoms: C_21  and  O_22
REMARK   14  A    between atoms: C_23  and  C_24
REMARK   15  A    between atoms: C_23  and  C_25
REMARK   16  A    between atoms: C_26  and  O_28
REMARK   17  A    between atoms: O_28  and  P_29
REMARK   18  A    between atoms: P_29  and  O_30
REMARK   19  A    between atoms: P_29  and  O_32
REMARK   20  A    between atoms: O_32  and  P_33
REMARK   21  A    between atoms: P_33  and  O_34
REMARK   22  A    between atoms: P_33  and  O_36
REMARK   23  A    between atoms: O_36  and  C_37
REMARK   24  A    between atoms: C_37  and  C_38
REMARK   25  A    between atoms: C_41  and  N_53
REMARK   26  A    between atoms: C_43  and  O_45
REMARK   27  A    between atoms: C_46  and  O_48
REMARK   28  A    between atoms: O_48  and  P_49
REMARK   29  A    between atoms: P_49  and  O_50
REMARK   30  A    between atoms: P_49  and  O_51
REMARK   31  A    between atoms: C_57  and  N_58
REMARK   32  A    between atoms: C_64  and  O_65
REMARK   33  A    between atoms: O_65  and  C_66
REMARK   34  A    between atoms: C_67  and  O_68
REMARK                            x       y       z     vdW  Elec       q    Type
REMARK                         _______ _______ _______ _____ _____    ______ ____
ROOT
ATOM      1  O   UNL     1       6.609  -2.168  24.232  0.00  0.00    -0.279 OA
ENDROOT
BRANCH   1   3
ATOM      2  C   UNL     1       7.319  -4.645  24.819  0.00  0.00    +0.176 C 
ATOM      3  C   UNL     1       7.399  -3.370  23.994  0.00  0.00    +0.180 C 
ATOM      4  C   UNL     1       6.715  -4.594  23.403  0.00  0.00    +0.035 C 
ATOM      5  C   UNL     1       5.205  -4.684  23.270  0.00  0.00    +0.017 C 
ATOM      6  C   UNL     1       7.420  -5.294  22.265  0.00  0.00    +0.017 C 
BRANCH   2   9
ATOM      7  N   UNL     1       5.812  -4.059  26.673  0.00  0.00    -0.312 N 
ATOM      8  H   UNL     1       5.993  -3.095  26.410  0.00  0.00    +0.149 HD
ATOM      9  C   UNL     1       6.387  -5.059  25.932  0.00  0.00    +0.248 C 
ATOM     10  O   UNL     1       6.317  -6.243  26.261  0.00  0.00    -0.273 OA
BRANCH   7  11
ATOM     11  C   UNL     1       4.973  -4.341  27.833  0.00  0.00    +0.113 C 
BRANCH  11  12
ATOM     12  C   UNL     1       4.478  -3.094  28.558  0.00  0.00    +0.114 C 
BRANCH  12  15
ATOM     13  N   UNL     1       2.419  -1.793  28.737  0.00  0.00    -0.314 N 
ATOM     14  H   UNL     1       2.689  -1.628  29.699  0.00  0.00    +0.149 HD
ATOM     15  C   UNL     1       3.222  -2.549  27.914  0.00  0.00    +0.215 C 
ATOM     16  O   UNL     1       2.929  -2.826  26.758  0.00  0.00    -0.276 OA
BRANCH  13  17
ATOM     17  C   UNL     1       1.120  -1.307  28.290  0.00  0.00    +0.115 C 
BRANCH  17  18
ATOM     18  C   UNL     1       1.033   0.222  28.192  0.00  0.00    +0.096 C 
BRANCH  18  19
ATOM     19  S   UNL     1       2.003   0.941  29.556  0.00  0.00    -0.082 S 
BRANCH  19  20
ATOM     20  C   UNL     1       2.118   2.618  29.054  0.00  0.00    +0.213 C 
ATOM     21  O   UNL     1       2.267   3.543  29.836  0.00  0.00    -0.280 OA
BRANCH  20  23
ATOM     22  C   UNL     1       3.066   2.844  26.787  0.00  0.00    +0.012 C 
ATOM     23  C   UNL     1       1.983   2.776  27.577  0.00  0.00    +0.058 C 
BRANCH  22  28
ATOM     24  C   UNL     1       4.201   2.989  23.199  0.00  0.00    +0.166 A 
ATOM     25  C   UNL     1       3.064   3.501  22.537  0.00  0.00    +0.201 A 
ATOM     26  C   UNL     1       1.882   3.732  23.252  0.00  0.00    +0.166 A 
ATOM     27  C   UNL     1       1.884   3.501  24.641  0.00  0.00    +0.057 A 
ATOM     28  C   UNL     1       3.024   3.061  25.327  0.00  0.00    -0.018 A 
ATOM     29  C   UNL     1       4.173   2.788  24.585  0.00  0.00    +0.057 A 
BRANCH  24  31
ATOM     30  C   UNL     1       6.318   3.750  22.440  0.00  0.00    +0.277 C 
ATOM     31  O   UNL     1       5.316   2.736  22.433  0.00  0.00    -0.491 OA
ENDBRANCH  24  31
BRANCH  26  32
ATOM     32  O   UNL     1       0.664   4.184  22.831  0.00  0.00    -0.491 OA
ATOM     33  C   UNL     1       0.525   5.365  22.065  0.00  0.00    +0.277 C 
ENDBRANCH  26  32
BRANCH  25  34
ATOM     34  O   UNL     1       3.216   3.759  21.200  0.00  0.00    -0.501 OA
ATOM     35  H   UNL     1       2.401   3.530  20.736  0.00  0.00    +0.292 HD
ENDBRANCH  25  34
ENDBRANCH  22  28
ENDBRANCH  20  23
ENDBRANCH  19  20
ENDBRANCH  18  19
ENDBRANCH  17  18
ENDBRANCH  13  17
ENDBRANCH  12  15
ENDBRANCH  11  12
ENDBRANCH   7  11
ENDBRANCH   2   9
BRANCH   2  36
ATOM     36  O   UNL     1       8.610  -5.313  24.925  0.00  0.00    -0.376 OA
ATOM     37  H   UNL     1       9.197  -5.040  24.196  0.00  0.00    +0.211 HD
ENDBRANCH   2  36
ENDBRANCH   1   3
BRANCH   1  38
ATOM     38  P   UNL     1       7.318  -0.761  23.517  0.00  0.00    +0.484 P 
ATOM     39  O   UNL     1       8.025  -1.629  22.467  0.00  0.00    -0.227 OA
BRANCH  38  40
ATOM     40  O   UNL     1       8.384  -0.699  24.754  0.00  0.00    -0.302 OA
ATOM     41  H   UNL     1       7.863  -0.795  25.575  0.00  0.00    +0.222 HD
ENDBRANCH  38  40
BRANCH  38  42
ATOM     42  O   UNL     1       8.028   0.646  22.801  0.00  0.00    -0.186 OA
BRANCH  42  43
ATOM     43  P   UNL     1       9.574   1.061  22.816  0.00  0.00    +0.483 P 
ATOM     44  O   UNL     1      10.550  -0.063  22.983  0.00  0.00    -0.227 OA
BRANCH  43  45
ATOM     45  O   UNL     1       9.820   1.793  21.417  0.00  0.00    -0.302 OA
ATOM     46  H   UNL     1      10.069   2.726  21.567  0.00  0.00    +0.222 HD
ENDBRANCH  43  45
BRANCH  43  47
ATOM     47  O   UNL     1       9.826   2.243  23.877  0.00  0.00    -0.284 OA
BRANCH  47  48
ATOM     48  C   UNL     1      11.012   3.065  23.772  0.00  0.00    +0.206 C 
BRANCH  48  49
ATOM     49  C   UNL     1      10.779   4.556  23.385  0.00  0.00    +0.179 C 
ATOM     50  C   UNL     1      11.447   5.598  24.347  0.00  0.00    +0.194 C 
ATOM     51  C   UNL     1      10.331   6.595  24.680  0.00  0.00    +0.196 C 
ATOM     52  C   UNL     1       9.128   6.147  23.830  0.00  0.00    +0.253 C 
ATOM     53  O   UNL     1       9.353   4.777  23.463  0.00  0.00    -0.346 OA
BRANCH  52  54
ATOM     54  N   UNL     1       7.810   6.289  24.405  0.00  0.00    -0.286 N 
ATOM     55  C   UNL     1       7.320   5.673  25.526  0.00  0.00    +0.167 A 
ATOM     56  C   UNL     1       6.046   6.199  25.692  0.00  0.00    +0.147 A 
ATOM     57  C   UNL     1       5.326   5.771  26.830  0.00  0.00    +0.147 A 
ATOM     58  N   UNL     1       5.897   4.859  27.641  0.00  0.00    -0.219 NA
ATOM     59  C   UNL     1       7.144   4.425  27.350  0.00  0.00    +0.225 A 
ATOM     60  N   UNL     1       5.741   7.082  24.678  0.00  0.00    -0.231 NA
ATOM     61  N   UNL     1       7.945   4.787  26.325  0.00  0.00    -0.216 NA
ATOM     62  C   UNL     1       6.819   7.108  23.923  0.00  0.00    +0.203 A 
BRANCH  57  63
ATOM     63  N   UNL     1       4.067   6.253  27.160  0.00  0.00    -0.341 N 
ATOM     64  H   UNL     1       3.905   7.186  26.808  0.00  0.00    +0.144 HD
ATOM     65  H   UNL     1       3.779   6.043  28.108  0.00  0.00    +0.144 HD
ENDBRANCH  57  63
ENDBRANCH  52  54
BRANCH  51  66
ATOM     66  O   UNL     1      10.117   6.586  26.095  0.00  0.00    -0.385 OA
ATOM     67  H   UNL     1      10.670   7.282  26.510  0.00  0.00    +0.210 HD
ENDBRANCH  51  66
BRANCH  50  68
ATOM     68  O   UNL     1      12.609   6.335  23.830  0.00  0.00    -0.278 OA
BRANCH  68  69
ATOM     69  P   UNL     1      13.157   5.636  22.346  0.00  0.00    +0.473 P 
ATOM     70  O   UNL     1      13.648   5.009  21.018  0.00  0.00    -0.228 OA
BRANCH  69  71
ATOM     71  O   UNL     1      13.975   7.037  22.190  0.00  0.00    -0.303 OA
ATOM     72  H   UNL     1      14.804   6.966  22.700  0.00  0.00    +0.222 HD
ENDBRANCH  69  71
BRANCH  69  73
ATOM     73  O   UNL     1      14.288   4.845  23.213  0.00  0.00    -0.303 OA
ATOM     74  H   UNL     1      13.922   4.800  24.121  0.00  0.00    +0.222 HD
ENDBRANCH  69  73
ENDBRANCH  68  69
ENDBRANCH  50  68
ENDBRANCH  48  49
ENDBRANCH  47  48
ENDBRANCH  43  47
ENDBRANCH  42  43
ENDBRANCH  38  42
ENDBRANCH   1  38
TORSDOF 30
ENDMDL
MODEL 9
REMARK VINA RESULT:      -4.6      2.568      7.218
REMARK  Name = 
REMARK  34 active torsions:
REMARK  status: ('A' for Active; 'I' for Inactive)
REMARK    1  A    between atoms: C_1  and  O_2
REMARK    2  A    between atoms: O_2  and  C_3
REMARK    3  A    between atoms: C_5  and  C_6
REMARK    4  A    between atoms: C_7  and  C_8
REMARK    5  A    between atoms: C_8  and  S_10
REMARK    6  A    between atoms: S_10  and  C_11
REMARK    7  A    between atoms: C_11  and  C_12
REMARK    8  A    between atoms: C_12  and  N_13
REMARK    9  A    between atoms: C_14  and  C_16
REMARK   10  A    between atoms: C_16  and  C_17
REMARK   11  A    between atoms: C_17  and  N_18
REMARK   12  A    between atoms: C_19  and  C_21
REMARK   13  A    between atoms: C_21  and  O_22
REMARK   14  A    between atoms: C_23  and  C_24
REMARK   15  A    between atoms: C_23  and  C_25
REMARK   16  A    between atoms: C_26  and  O_28
REMARK   17  A    between atoms: O_28  and  P_29
REMARK   18  A    between atoms: P_29  and  O_30
REMARK   19  A    between atoms: P_29  and  O_32
REMARK   20  A    between atoms: O_32  and  P_33
REMARK   21  A    between atoms: P_33  and  O_34
REMARK   22  A    between atoms: P_33  and  O_36
REMARK   23  A    between atoms: O_36  and  C_37
REMARK   24  A    between atoms: C_37  and  C_38
REMARK   25  A    between atoms: C_41  and  N_53
REMARK   26  A    between atoms: C_43  and  O_45
REMARK   27  A    between atoms: C_46  and  O_48
REMARK   28  A    between atoms: O_48  and  P_49
REMARK   29  A    between atoms: P_49  and  O_50
REMARK   30  A    between atoms: P_49  and  O_51
REMARK   31  A    between atoms: C_57  and  N_58
REMARK   32  A    between atoms: C_64  and  O_65
REMARK   33  A    between atoms: O_65  and  C_66
REMARK   34  A    between atoms: C_67  and  O_68
REMARK                            x       y       z     vdW  Elec       q    Type
REMARK                         _______ _______ _______ _____ _____    ______ ____
ROOT
ATOM      1  O   UNL     1       6.476  -5.560  26.067  0.00  0.00    -0.279 OA
ENDROOT
BRANCH   1   3
ATOM      2  C   UNL     1       6.071  -3.845  24.098  0.00  0.00    +0.176 C 
ATOM      3  C   UNL     1       6.086  -5.241  24.700  0.00  0.00    +0.180 C 
ATOM      4  C   UNL     1       7.164  -4.854  23.698  0.00  0.00    +0.035 C 
ATOM      5  C   UNL     1       8.592  -4.564  24.128  0.00  0.00    +0.017 C 
ATOM      6  C   UNL     1       7.112  -5.513  22.339  0.00  0.00    +0.017 C 
BRANCH   2   9
ATOM      7  N   UNL     1       6.906  -2.473  25.961  0.00  0.00    -0.312 N 
ATOM      8  H   UNL     1       6.888  -3.334  26.499  0.00  0.00    +0.149 HD
ATOM      9  C   UNL     1       6.548  -2.518  24.639  0.00  0.00    +0.248 C 
ATOM     10  O   UNL     1       6.427  -1.501  23.956  0.00  0.00    -0.273 OA
BRANCH   7  11
ATOM     11  C   UNL     1       7.288  -1.225  26.616  0.00  0.00    +0.113 C 
BRANCH  11  12
ATOM     12  C   UNL     1       8.796  -1.024  26.733  0.00  0.00    +0.114 C 
BRANCH  12  15
ATOM     13  N   UNL     1       9.323   0.899  25.322  0.00  0.00    -0.314 N 
ATOM     14  H   UNL     1       8.925   1.463  26.063  0.00  0.00    +0.149 HD
ATOM     15  C   UNL     1       9.375  -0.471  25.450  0.00  0.00    +0.215 C 
ATOM     16  O   UNL     1       9.798  -1.212  24.572  0.00  0.00    -0.276 OA
BRANCH  13  17
ATOM     17  C   UNL     1       9.730   1.560  24.090  0.00  0.00    +0.115 C 
BRANCH  17  18
ATOM     18  C   UNL     1       8.981   2.872  23.816  0.00  0.00    +0.096 C 
BRANCH  18  19
ATOM     19  S   UNL     1       8.029   3.310  25.306  0.00  0.00    -0.082 S 
BRANCH  19  20
ATOM     20  C   UNL     1       6.482   2.557  24.963  0.00  0.00    +0.213 C 
ATOM     21  O   UNL     1       6.205   1.414  25.292  0.00  0.00    -0.280 OA
BRANCH  20  23
ATOM     22  C   UNL     1       4.403   3.011  23.713  0.00  0.00    +0.012 C 
ATOM     23  C   UNL     1       5.569   3.459  24.205  0.00  0.00    +0.058 C 
BRANCH  22  28
ATOM     24  C   UNL     1       2.187   5.874  22.675  0.00  0.00    +0.166 A 
ATOM     25  C   UNL     1       1.645   5.417  21.454  0.00  0.00    +0.201 A 
ATOM     26  C   UNL     1       2.064   4.193  20.917  0.00  0.00    +0.166 A 
ATOM     27  C   UNL     1       2.978   3.416  21.654  0.00  0.00    +0.057 A 
ATOM     28  C   UNL     1       3.472   3.820  22.901  0.00  0.00    -0.018 A 
ATOM     29  C   UNL     1       3.081   5.067  23.390  0.00  0.00    +0.057 A 
BRANCH  24  31
ATOM     30  C   UNL     1       1.020   7.106  24.336  0.00  0.00    +0.277 C 
ATOM     31  O   UNL     1       1.774   7.107  23.126  0.00  0.00    -0.491 OA
ENDBRANCH  24  31
BRANCH  26  32
ATOM     32  O   UNL     1       1.714   3.568  19.754  0.00  0.00    -0.491 OA
ATOM     33  C   UNL     1       1.585   4.272  18.533  0.00  0.00    +0.277 C 
ENDBRANCH  26  32
BRANCH  25  34
ATOM     34  O   UNL     1       0.705   6.228  20.876  0.00  0.00    -0.501 OA
ATOM     35  H   UNL     1       0.277   6.758  21.559  0.00  0.00    +0.292 HD
ENDBRANCH  25  34
ENDBRANCH  22  28
ENDBRANCH  20  23
ENDBRANCH  19  20
ENDBRANCH  18  19
ENDBRANCH  17  18
ENDBRANCH  13  17
ENDBRANCH  12  15
ENDBRANCH  11  12
ENDBRANCH   7  11
ENDBRANCH   2   9
BRANCH   2  36
ATOM     36  O   UNL     1       4.995  -3.673  23.131  0.00  0.00    -0.376 OA
ATOM     37  H   UNL     1       5.343  -3.710  22.221  0.00  0.00    +0.211 HD
ENDBRANCH   2  36
ENDBRANCH   1   3
BRANCH   1  38
ATOM     38  P   UNL     1       5.112  -5.809  27.101  0.00  0.00    +0.484 P 
ATOM     39  O   UNL     1       5.675  -7.165  27.546  0.00  0.00    -0.227 OA
BRANCH  38  40
ATOM     40  O   UNL     1       4.212  -6.172  25.787  0.00  0.00    -0.302 OA
ATOM     41  H   UNL     1       4.338  -5.439  25.152  0.00  0.00    +0.222 HD
ENDBRANCH  38  40
BRANCH  38  42
ATOM     42  O   UNL     1       3.748  -6.058  28.137  0.00  0.00    -0.186 OA
BRANCH  42  43
ATOM     43  P   UNL     1       3.700  -5.880  29.727  0.00  0.00    +0.483 P 
ATOM     44  O   UNL     1       2.480  -6.419  30.408  0.00  0.00    -0.227 OA
BRANCH  43  45
ATOM     45  O   UNL     1       5.002  -6.632  30.268  0.00  0.00    -0.302 OA
ATOM     46  H   UNL     1       5.803  -6.255  29.855  0.00  0.00    +0.222 HD
ENDBRANCH  43  45
BRANCH  43  47
ATOM     47  O   UNL     1       3.990  -4.350  30.130  0.00  0.00    -0.284 OA
BRANCH  47  48
ATOM     48  C   UNL     1       4.395  -3.402  29.116  0.00  0.00    +0.206 C 
BRANCH  48  49
ATOM     49  C   UNL     1       3.412  -2.222  28.852  0.00  0.00    +0.179 C 
ATOM     50  C   UNL     1       3.031  -2.006  27.346  0.00  0.00    +0.194 C 
ATOM     51  C   UNL     1       3.248  -0.509  27.098  0.00  0.00    +0.196 C 
ATOM     52  C   UNL     1       3.636   0.072  28.471  0.00  0.00    +0.253 C 
ATOM     53  O   UNL     1       4.093  -1.023  29.281  0.00  0.00    -0.346 OA
BRANCH  52  54
ATOM     54  N   UNL     1       4.609   1.140  28.497  0.00  0.00    -0.286 N 
ATOM     55  C   UNL     1       4.439   2.431  28.074  0.00  0.00    +0.167 A 
ATOM     56  C   UNL     1       5.634   3.066  28.382  0.00  0.00    +0.147 A 
ATOM     57  C   UNL     1       5.709   4.449  28.100  0.00  0.00    +0.147 A 
ATOM     58  N   UNL     1       4.648   5.040  27.518  0.00  0.00    -0.219 NA
ATOM     59  C   UNL     1       3.550   4.294  27.264  0.00  0.00    +0.225 A 
ATOM     60  N   UNL     1       6.533   2.182  28.940  0.00  0.00    -0.231 NA
ATOM     61  N   UNL     1       3.341   2.985  27.523  0.00  0.00    -0.216 NA
ATOM     62  C   UNL     1       5.886   1.036  28.989  0.00  0.00    +0.203 A 
BRANCH  57  63
ATOM     63  N   UNL     1       6.815   5.229  28.407  0.00  0.00    -0.341 N 
ATOM     64  H   UNL     1       7.552   5.144  27.721  0.00  0.00    +0.144 HD
ATOM     65  H   UNL     1       7.070   5.219  29.387  0.00  0.00    +0.144 HD
ENDBRANCH  57  63
ENDBRANCH  52  54
BRANCH  51  66
ATOM     66  O   UNL     1       4.231  -0.354  26.069  0.00  0.00    -0.385 OA
ATOM     67  H   UNL     1       4.865   0.347  26.331  0.00  0.00    +0.210 HD
ENDBRANCH  51  66
BRANCH  50  68
ATOM     68  O   UNL     1       1.663  -2.364  26.946  0.00  0.00    -0.278 OA
BRANCH  68  69
ATOM     69  P   UNL     1       1.693  -3.508  25.648  0.00  0.00    +0.473 P 
ATOM     70  O   UNL     1       1.718  -4.532  24.487  0.00  0.00    -0.228 OA
BRANCH  69  71
ATOM     71  O   UNL     1       3.292  -3.195  25.639  0.00  0.00    -0.303 OA
ATOM     72  H   UNL     1       3.597  -3.185  24.712  0.00  0.00    +0.222 HD
ENDBRANCH  69  71
BRANCH  69  73
ATOM     73  O   UNL     1       1.731  -4.686  26.775  0.00  0.00    -0.303 OA
ATOM     74  H   UNL     1       1.750  -4.212  27.632  0.00  0.00    +0.222 HD
ENDBRANCH  69  73
ENDBRANCH  68  69
ENDBRANCH  50  68
ENDBRANCH  48  49
ENDBRANCH  47  48
ENDBRANCH  43  47
ENDBRANCH  42  43
ENDBRANCH  38  42
ENDBRANCH   1  38
TORSDOF 30
ENDMDL
