MODEL 1
REMARK VINA RESULT:      -5.7      0.000      0.000
REMARK  Name = 
REMARK  10 active torsions:
REMARK  status: ('A' for Active; 'I' for Inactive)
REMARK    1  A    between atoms: C_1  and  C_2
REMARK    2  A    between atoms: C_2  and  C_3
REMARK    3  A    between atoms: C_3  and  C_5
REMARK    4  A    between atoms: C_3  and  C_12
REMARK    5  A    between atoms: C_5  and  C_7
REMARK    6  A    between atoms: C_5  and  C_8
REMARK    7  A    between atoms: C_8  and  N_9
REMARK    8  A    between atoms: N_9  and  C_10
REMARK    9  A    between atoms: N_9  and  C_11
REMARK   10  A    between atoms: C_14  and  O_15
REMARK                            x       y       z     vdW  Elec       q    Type
REMARK                         _______ _______ _______ _____ _____    ______ ____
ROOT
ATOM      1  C   UNL     1       9.724   2.563  23.217  0.00  0.00    +0.023 C 
ENDROOT
BRANCH   1   2
ATOM      2  C   UNL     1      10.578   3.848  23.507  0.00  0.00    -0.041 A 
ATOM      3  C   UNL     1      10.013   5.015  24.065  0.00  0.00    +0.004 A 
ATOM      4  C   UNL     1      10.773   6.161  24.334  0.00  0.00    +0.004 A 
ATOM      5  C   UNL     1      12.130   6.181  24.044  0.00  0.00    +0.045 A 
ATOM      6  C   UNL     1      12.707   5.060  23.475  0.00  0.00    +0.117 A 
ATOM      7  C   UNL     1      11.950   3.920  23.184  0.00  0.00    +0.049 A 
BRANCH   6   8
ATOM      8  O   UNL     1      14.048   5.107  23.212  0.00  0.00    -0.507 OA
ATOM      9  H   UNL     1      14.479   5.633  23.906  0.00  0.00    +0.292 HD
ENDBRANCH   6   8
ENDBRANCH   1   2
BRANCH   1  11
ATOM     10  C   UNL     1       7.545   2.346  21.726  0.00  0.00    +0.004 C 
ATOM     11  C   UNL     1       8.232   2.937  22.946  0.00  0.00    +0.005 C 
ENDBRANCH   1  11
BRANCH   1  12
ATOM     12  C   UNL     1       9.932   1.441  24.305  0.00  0.00    +0.007 C 
ATOM     13  C   UNL     1       8.642   1.162  25.098  0.00  0.00    +0.009 C 
BRANCH  12  14
ATOM     14  C   UNL     1      10.515   0.079  23.847  0.00  0.00    +0.087 C 
BRANCH  14  15
ATOM     15  N   UNL     1       9.570  -0.884  23.255  0.00  0.00    -0.308 NA
ATOM     16  C   UNL     1       9.906  -2.240  23.721  0.00  0.00    +0.104 C 
ATOM     17  C   UNL     1       9.604  -0.851  21.792  0.00  0.00    +0.104 C 
ENDBRANCH  14  15
ENDBRANCH  12  14
ENDBRANCH   1  12
TORSDOF 6
ENDMDL
MODEL 2
REMARK VINA RESULT:      -5.6      1.600      3.184
REMARK  Name = 
REMARK  10 active torsions:
REMARK  status: ('A' for Active; 'I' for Inactive)
REMARK    1  A    between atoms: C_1  and  C_2
REMARK    2  A    between atoms: C_2  and  C_3
REMARK    3  A    between atoms: C_3  and  C_5
REMARK    4  A    between atoms: C_3  and  C_12
REMARK    5  A    between atoms: C_5  and  C_7
REMARK    6  A    between atoms: C_5  and  C_8
REMARK    7  A    between atoms: C_8  and  N_9
REMARK    8  A    between atoms: N_9  and  C_10
REMARK    9  A    between atoms: N_9  and  C_11
REMARK   10  A    between atoms: C_14  and  O_15
REMARK                            x       y       z     vdW  Elec       q    Type
REMARK                         _______ _______ _______ _____ _____    ______ ____
ROOT
ATOM      1  C   UNL     1       9.769   2.240  23.490  0.00  0.00    +0.023 C 
ENDROOT
BRANCH   1   2
ATOM      2  C   UNL     1      10.534   3.607  23.590  0.00  0.00    -0.041 A 
ATOM      3  C   UNL     1       9.881   4.810  23.935  0.00  0.00    +0.004 A 
ATOM      4  C   UNL     1      10.562   6.031  24.035  0.00  0.00    +0.004 A 
ATOM      5  C   UNL     1      11.925   6.091  23.781  0.00  0.00    +0.045 A 
ATOM      6  C   UNL     1      12.588   4.932  23.417  0.00  0.00    +0.117 A 
ATOM      7  C   UNL     1      11.911   3.715  23.295  0.00  0.00    +0.049 A 
BRANCH   6   8
ATOM      8  O   UNL     1      13.932   5.024  23.185  0.00  0.00    -0.507 OA
ATOM      9  H   UNL     1      14.068   5.498  22.348  0.00  0.00    +0.292 HD
ENDBRANCH   6   8
ENDBRANCH   1   2
BRANCH   1  11
ATOM     10  C   UNL     1      10.138   0.187  25.124  0.00  0.00    +0.004 C 
ATOM     11  C   UNL     1      10.663   1.066  23.999  0.00  0.00    +0.005 C 
ENDBRANCH   1  11
BRANCH   1  12
ATOM     12  C   UNL     1       9.128   2.008  22.068  0.00  0.00    +0.007 C 
ATOM     13  C   UNL     1       9.446   0.606  21.515  0.00  0.00    +0.009 C 
BRANCH  12  14
ATOM     14  C   UNL     1       7.606   2.253  21.905  0.00  0.00    +0.087 C 
BRANCH  14  15
ATOM     15  N   UNL     1       6.913   2.907  23.027  0.00  0.00    -0.308 NA
ATOM     16  C   UNL     1       5.977   1.951  23.643  0.00  0.00    +0.104 C 
ATOM     17  C   UNL     1       6.176   4.096  22.594  0.00  0.00    +0.104 C 
ENDBRANCH  14  15
ENDBRANCH  12  14
ENDBRANCH   1  12
TORSDOF 6
ENDMDL
MODEL 3
REMARK VINA RESULT:      -5.3      1.353      2.465
REMARK  Name = 
REMARK  10 active torsions:
REMARK  status: ('A' for Active; 'I' for Inactive)
REMARK    1  A    between atoms: C_1  and  C_2
REMARK    2  A    between atoms: C_2  and  C_3
REMARK    3  A    between atoms: C_3  and  C_5
REMARK    4  A    between atoms: C_3  and  C_12
REMARK    5  A    between atoms: C_5  and  C_7
REMARK    6  A    between atoms: C_5  and  C_8
REMARK    7  A    between atoms: C_8  and  N_9
REMARK    8  A    between atoms: N_9  and  C_10
REMARK    9  A    between atoms: N_9  and  C_11
REMARK   10  A    between atoms: C_14  and  O_15
REMARK                            x       y       z     vdW  Elec       q    Type
REMARK                         _______ _______ _______ _____ _____    ______ ____
ROOT
ATOM      1  C   UNL     1       9.560   2.646  23.314  0.00  0.00    +0.023 C 
ENDROOT
BRANCH   1   2
ATOM      2  C   UNL     1      10.476   3.897  23.561  0.00  0.00    -0.041 A 
ATOM      3  C   UNL     1       9.971   5.107  24.084  0.00  0.00    +0.004 A 
ATOM      4  C   UNL     1      10.786   6.222  24.315  0.00  0.00    +0.004 A 
ATOM      5  C   UNL     1      12.142   6.168  24.020  0.00  0.00    +0.045 A 
ATOM      6  C   UNL     1      12.661   5.003  23.483  0.00  0.00    +0.117 A 
ATOM      7  C   UNL     1      11.849   3.893  23.231  0.00  0.00    +0.049 A 
BRANCH   6   8
ATOM      8  O   UNL     1      14.001   4.978  23.214  0.00  0.00    -0.507 OA
ATOM      9  H   UNL     1      14.424   4.344  23.816  0.00  0.00    +0.292 HD
ENDBRANCH   6   8
ENDBRANCH   1   2
BRANCH   1  11
ATOM     10  C   UNL     1       9.921   0.385  21.982  0.00  0.00    +0.004 C 
ATOM     11  C   UNL     1       9.975   1.904  22.004  0.00  0.00    +0.005 C 
ENDBRANCH   1  11
BRANCH   1  12
ATOM     12  C   UNL     1       8.025   2.992  23.414  0.00  0.00    +0.007 C 
ATOM     13  C   UNL     1       7.374   3.128  22.025  0.00  0.00    +0.009 C 
BRANCH  12  14
ATOM     14  C   UNL     1       7.124   2.071  24.276  0.00  0.00    +0.087 C 
BRANCH  14  15
ATOM     15  N   UNL     1       7.643   0.726  24.579  0.00  0.00    -0.308 NA
ATOM     16  C   UNL     1       6.731  -0.283  24.015  0.00  0.00    +0.104 C 
ATOM     17  C   UNL     1       7.778   0.507  26.020  0.00  0.00    +0.104 C 
ENDBRANCH  14  15
ENDBRANCH  12  14
ENDBRANCH   1  12
TORSDOF 6
ENDMDL
MODEL 4
REMARK VINA RESULT:      -5.1      2.682      5.324
REMARK  Name = 
REMARK  10 active torsions:
REMARK  status: ('A' for Active; 'I' for Inactive)
REMARK    1  A    between atoms: C_1  and  C_2
REMARK    2  A    between atoms: C_2  and  C_3
REMARK    3  A    between atoms: C_3  and  C_5
REMARK    4  A    between atoms: C_3  and  C_12
REMARK    5  A    between atoms: C_5  and  C_7
REMARK    6  A    between atoms: C_5  and  C_8
REMARK    7  A    between atoms: C_8  and  N_9
REMARK    8  A    between atoms: N_9  and  C_10
REMARK    9  A    between atoms: N_9  and  C_11
REMARK   10  A    between atoms: C_14  and  O_15
REMARK                            x       y       z     vdW  Elec       q    Type
REMARK                         _______ _______ _______ _____ _____    ______ ____
ROOT
ATOM      1  C   UNL     1      10.495   3.880  23.273  0.00  0.00    +0.023 C 
ENDROOT
BRANCH   1   2
ATOM      2  C   UNL     1      10.369   2.316  23.221  0.00  0.00    -0.041 A 
ATOM      3  C   UNL     1      10.660   1.502  24.336  0.00  0.00    +0.004 A 
ATOM      4  C   UNL     1      10.540   0.106  24.297  0.00  0.00    +0.004 A 
ATOM      5  C   UNL     1      10.130  -0.525  23.131  0.00  0.00    +0.045 A 
ATOM      6  C   UNL     1       9.860   0.245  22.014  0.00  0.00    +0.117 A 
ATOM      7  C   UNL     1       9.999   1.636  22.040  0.00  0.00    +0.049 A 
BRANCH   6   8
ATOM      8  O   UNL     1       9.448  -0.407  20.885  0.00  0.00    -0.507 OA
ATOM      9  H   UNL     1      10.235  -0.697  20.394  0.00  0.00    +0.292 HD
ENDBRANCH   6   8
ENDBRANCH   1   2
BRANCH   1  11
ATOM     10  C   UNL     1      12.620   5.258  22.496  0.00  0.00    +0.004 C 
ATOM     11  C   UNL     1      11.978   4.311  23.497  0.00  0.00    +0.005 C 
ENDBRANCH   1  11
BRANCH   1  12
ATOM     12  C   UNL     1       9.463   4.537  24.269  0.00  0.00    +0.007 C 
ATOM     13  C   UNL     1       9.853   5.981  24.632  0.00  0.00    +0.009 C 
BRANCH  12  14
ATOM     14  C   UNL     1       7.964   4.531  23.875  0.00  0.00    +0.087 C 
BRANCH  14  15
ATOM     15  N   UNL     1       7.654   4.495  22.435  0.00  0.00    -0.308 NA
ATOM     16  C   UNL     1       7.190   5.826  22.006  0.00  0.00    +0.104 C 
ATOM     17  C   UNL     1       6.626   3.500  22.124  0.00  0.00    +0.104 C 
ENDBRANCH  14  15
ENDBRANCH  12  14
ENDBRANCH   1  12
TORSDOF 6
ENDMDL
MODEL 5
REMARK VINA RESULT:      -5.1      4.298      6.581
REMARK  Name = 
REMARK  10 active torsions:
REMARK  status: ('A' for Active; 'I' for Inactive)
REMARK    1  A    between atoms: C_1  and  C_2
REMARK    2  A    between atoms: C_2  and  C_3
REMARK    3  A    between atoms: C_3  and  C_5
REMARK    4  A    between atoms: C_3  and  C_12
REMARK    5  A    between atoms: C_5  and  C_7
REMARK    6  A    between atoms: C_5  and  C_8
REMARK    7  A    between atoms: C_8  and  N_9
REMARK    8  A    between atoms: N_9  and  C_10
REMARK    9  A    between atoms: N_9  and  C_11
REMARK   10  A    between atoms: C_14  and  O_15
REMARK                            x       y       z     vdW  Elec       q    Type
REMARK                         _______ _______ _______ _____ _____    ______ ____
ROOT
ATOM      1  C   UNL     1       7.936  -3.765  23.433  0.00  0.00    +0.023 C 
ENDROOT
BRANCH   1   2
ATOM      2  C   UNL     1       8.726  -2.414  23.298  0.00  0.00    -0.041 A 
ATOM      3  C   UNL     1       9.019  -1.838  22.043  0.00  0.00    +0.004 A 
ATOM      4  C   UNL     1       9.714  -0.628  21.918  0.00  0.00    +0.004 A 
ATOM      5  C   UNL     1      10.150   0.046  23.051  0.00  0.00    +0.045 A 
ATOM      6  C   UNL     1       9.898  -0.507  24.294  0.00  0.00    +0.117 A 
ATOM      7  C   UNL     1       9.223  -1.724  24.425  0.00  0.00    +0.049 A 
BRANCH   6   8
ATOM      8  O   UNL     1      10.331   0.187  25.390  0.00  0.00    -0.507 OA
ATOM      9  H   UNL     1       9.576   0.672  25.764  0.00  0.00    +0.292 HD
ENDBRANCH   6   8
ENDBRANCH   1   2
BRANCH   1  11
ATOM     10  C   UNL     1       7.089  -5.541  21.660  0.00  0.00    +0.004 C 
ATOM     11  C   UNL     1       7.167  -4.093  22.115  0.00  0.00    +0.005 C 
ENDBRANCH   1  11
BRANCH   1  12
ATOM     12  C   UNL     1       7.054  -3.821  24.739  0.00  0.00    +0.007 C 
ATOM     13  C   UNL     1       5.725  -3.062  24.569  0.00  0.00    +0.009 C 
BRANCH  12  14
ATOM     14  C   UNL     1       6.736  -5.212  25.346  0.00  0.00    +0.087 C 
BRANCH  14  15
ATOM     15  N   UNL     1       7.519  -5.618  26.526  0.00  0.00    -0.308 NA
ATOM     16  C   UNL     1       6.666  -5.539  27.723  0.00  0.00    +0.104 C 
ATOM     17  C   UNL     1       8.699  -4.773  26.714  0.00  0.00    +0.104 C 
ENDBRANCH  14  15
ENDBRANCH  12  14
ENDBRANCH   1  12
TORSDOF 6
ENDMDL
MODEL 6
REMARK VINA RESULT:      -5.1      3.738      7.139
REMARK  Name = 
REMARK  10 active torsions:
REMARK  status: ('A' for Active; 'I' for Inactive)
REMARK    1  A    between atoms: C_1  and  C_2
REMARK    2  A    between atoms: C_2  and  C_3
REMARK    3  A    between atoms: C_3  and  C_5
REMARK    4  A    between atoms: C_3  and  C_12
REMARK    5  A    between atoms: C_5  and  C_7
REMARK    6  A    between atoms: C_5  and  C_8
REMARK    7  A    between atoms: C_8  and  N_9
REMARK    8  A    between atoms: N_9  and  C_10
REMARK    9  A    between atoms: N_9  and  C_11
REMARK   10  A    between atoms: C_14  and  O_15
REMARK                            x       y       z     vdW  Elec       q    Type
REMARK                         _______ _______ _______ _____ _____    ______ ____
ROOT
ATOM      1  C   UNL     1       8.919  -1.174  24.052  0.00  0.00    +0.023 C 
ENDROOT
BRANCH   1   2
ATOM      2  C   UNL     1       8.715  -2.476  24.905  0.00  0.00    -0.041 A 
ATOM      3  C   UNL     1       7.807  -2.533  25.984  0.00  0.00    +0.004 A 
ATOM      4  C   UNL     1       7.615  -3.696  26.742  0.00  0.00    +0.004 A 
ATOM      5  C   UNL     1       8.336  -4.845  26.450  0.00  0.00    +0.045 A 
ATOM      6  C   UNL     1       9.251  -4.813  25.413  0.00  0.00    +0.117 A 
ATOM      7  C   UNL     1       9.463  -3.650  24.666  0.00  0.00    +0.049 A 
BRANCH   6   8
ATOM      8  O   UNL     1       9.937  -5.964  25.144  0.00  0.00    -0.507 OA
ATOM      9  H   UNL     1       9.295  -6.667  24.952  0.00  0.00    +0.292 HD
ENDBRANCH   6   8
ENDBRANCH   1   2
BRANCH   1  11
ATOM     10  C   UNL     1       9.582  -0.833  21.510  0.00  0.00    +0.004 C 
ATOM     11  C   UNL     1       9.904  -1.434  22.869  0.00  0.00    +0.005 C 
ENDBRANCH   1  11
BRANCH   1  12
ATOM     12  C   UNL     1       9.277   0.080  24.939  0.00  0.00    +0.007 C 
ATOM     13  C   UNL     1      10.766   0.455  24.832  0.00  0.00    +0.009 C 
BRANCH  12  14
ATOM     14  C   UNL     1       8.443   1.373  24.745  0.00  0.00    +0.087 C 
BRANCH  14  15
ATOM     15  N   UNL     1       8.996   2.391  23.835  0.00  0.00    -0.308 NA
ATOM     16  C   UNL     1       8.964   3.703  24.501  0.00  0.00    +0.104 C 
ATOM     17  C   UNL     1       8.245   2.465  22.581  0.00  0.00    +0.104 C 
ENDBRANCH  14  15
ENDBRANCH  12  14
ENDBRANCH   1  12
TORSDOF 6
ENDMDL
MODEL 7
REMARK VINA RESULT:      -5.0      4.981      8.205
REMARK  Name = 
REMARK  10 active torsions:
REMARK  status: ('A' for Active; 'I' for Inactive)
REMARK    1  A    between atoms: C_1  and  C_2
REMARK    2  A    between atoms: C_2  and  C_3
REMARK    3  A    between atoms: C_3  and  C_5
REMARK    4  A    between atoms: C_3  and  C_12
REMARK    5  A    between atoms: C_5  and  C_7
REMARK    6  A    between atoms: C_5  and  C_8
REMARK    7  A    between atoms: C_8  and  N_9
REMARK    8  A    between atoms: N_9  and  C_10
REMARK    9  A    between atoms: N_9  and  C_11
REMARK   10  A    between atoms: C_14  and  O_15
REMARK                            x       y       z     vdW  Elec       q    Type
REMARK                         _______ _______ _______ _____ _____    ______ ____
ROOT
ATOM      1  C   UNL     1       6.603  -3.889  22.866  0.00  0.00    +0.023 C 
ENDROOT
BRANCH   1   2
ATOM      2  C   UNL     1       7.180  -4.348  24.252  0.00  0.00    -0.041 A 
ATOM      3  C   UNL     1       6.379  -4.420  25.413  0.00  0.00    +0.004 A 
ATOM      4  C   UNL     1       6.888  -4.839  26.649  0.00  0.00    +0.004 A 
ATOM      5  C   UNL     1       8.225  -5.193  26.769  0.00  0.00    +0.045 A 
ATOM      6  C   UNL     1       9.040  -5.109  25.654  0.00  0.00    +0.117 A 
ATOM      7  C   UNL     1       8.543  -4.673  24.422  0.00  0.00    +0.049 A 
BRANCH   6   8
ATOM      8  O   UNL     1      10.349  -5.476  25.803  0.00  0.00    -0.507 OA
ATOM      9  H   UNL     1      10.562  -6.135  25.123  0.00  0.00    +0.292 HD
ENDBRANCH   6   8
ENDBRANCH   1   2
BRANCH   1  11
ATOM     10  C   UNL     1       6.422  -6.338  21.872  0.00  0.00    +0.004 C 
ATOM     11  C   UNL     1       6.956  -4.920  21.749  0.00  0.00    +0.005 C 
ENDBRANCH   1  11
BRANCH   1  12
ATOM     12  C   UNL     1       6.974  -2.396  22.522  0.00  0.00    +0.007 C 
ATOM     13  C   UNL     1       6.492  -1.418  23.609  0.00  0.00    +0.009 C 
BRANCH  12  14
ATOM     14  C   UNL     1       8.455  -2.066  22.205  0.00  0.00    +0.087 C 
BRANCH  14  15
ATOM     15  N   UNL     1       8.963  -0.765  22.674  0.00  0.00    -0.308 NA
ATOM     16  C   UNL     1       9.366   0.044  21.512  0.00  0.00    +0.104 C 
ATOM     17  C   UNL     1      10.105  -0.919  23.577  0.00  0.00    +0.104 C 
ENDBRANCH  14  15
ENDBRANCH  12  14
ENDBRANCH   1  12
TORSDOF 6
ENDMDL
MODEL 8
REMARK VINA RESULT:      -4.9      3.364      5.209
REMARK  Name = 
REMARK  10 active torsions:
REMARK  status: ('A' for Active; 'I' for Inactive)
REMARK    1  A    between atoms: C_1  and  C_2
REMARK    2  A    between atoms: C_2  and  C_3
REMARK    3  A    between atoms: C_3  and  C_5
REMARK    4  A    between atoms: C_3  and  C_12
REMARK    5  A    between atoms: C_5  and  C_7
REMARK    6  A    between atoms: C_5  and  C_8
REMARK    7  A    between atoms: C_8  and  N_9
REMARK    8  A    between atoms: N_9  and  C_10
REMARK    9  A    between atoms: N_9  and  C_11
REMARK   10  A    between atoms: C_14  and  O_15
REMARK                            x       y       z     vdW  Elec       q    Type
REMARK                         _______ _______ _______ _____ _____    ______ ____
ROOT
ATOM      1  C   UNL     1       7.620  -1.637  23.665  0.00  0.00    +0.023 C 
ENDROOT
BRANCH   1   2
ATOM      2  C   UNL     1       8.736  -0.533  23.686  0.00  0.00    -0.041 A 
ATOM      3  C   UNL     1       9.607  -0.366  24.785  0.00  0.00    +0.004 A 
ATOM      4  C   UNL     1      10.610   0.612  24.804  0.00  0.00    +0.004 A 
ATOM      5  C   UNL     1      10.772   1.466  23.723  0.00  0.00    +0.045 A 
ATOM      6  C   UNL     1       9.918   1.342  22.641  0.00  0.00    +0.117 A 
ATOM      7  C   UNL     1       8.901   0.383  22.624  0.00  0.00    +0.049 A 
BRANCH   6   8
ATOM      8  O   UNL     1      10.110   2.192  21.588  0.00  0.00    -0.507 OA
ATOM      9  H   UNL     1       9.299   2.710  21.458  0.00  0.00    +0.292 HD
ENDBRANCH   6   8
ENDBRANCH   1   2
BRANCH   1  11
ATOM     10  C   UNL     1       5.385  -1.769  25.079  0.00  0.00    +0.004 C 
ATOM     11  C   UNL     1       6.904  -1.730  25.048  0.00  0.00    +0.005 C 
ENDBRANCH   1  11
BRANCH   1  12
ATOM     12  C   UNL     1       8.144  -3.014  23.103  0.00  0.00    +0.007 C 
ATOM     13  C   UNL     1       8.625  -3.949  24.228  0.00  0.00    +0.009 C 
BRANCH  12  14
ATOM     14  C   UNL     1       7.206  -3.828  22.174  0.00  0.00    +0.087 C 
BRANCH  14  15
ATOM     15  N   UNL     1       6.557  -5.014  22.758  0.00  0.00    -0.308 NA
ATOM     16  C   UNL     1       6.785  -6.173  21.878  0.00  0.00    +0.104 C 
ATOM     17  C   UNL     1       5.118  -4.816  22.935  0.00  0.00    +0.104 C 
ENDBRANCH  14  15
ENDBRANCH  12  14
ENDBRANCH   1  12
TORSDOF 6
ENDMDL
MODEL 9
REMARK VINA RESULT:      -4.9      3.155      5.021
REMARK  Name = 
REMARK  10 active torsions:
REMARK  status: ('A' for Active; 'I' for Inactive)
REMARK    1  A    between atoms: C_1  and  C_2
REMARK    2  A    between atoms: C_2  and  C_3
REMARK    3  A    between atoms: C_3  and  C_5
REMARK    4  A    between atoms: C_3  and  C_12
REMARK    5  A    between atoms: C_5  and  C_7
REMARK    6  A    between atoms: C_5  and  C_8
REMARK    7  A    between atoms: C_8  and  N_9
REMARK    8  A    between atoms: N_9  and  C_10
REMARK    9  A    between atoms: N_9  and  C_11
REMARK   10  A    between atoms: C_14  and  O_15
REMARK                            x       y       z     vdW  Elec       q    Type
REMARK                         _______ _______ _______ _____ _____    ______ ____
ROOT
ATOM      1  C   UNL     1       8.527  -1.973  24.093  0.00  0.00    +0.023 C 
ENDROOT
BRANCH   1   2
ATOM      2  C   UNL     1       9.237  -0.604  23.798  0.00  0.00    -0.041 A 
ATOM      3  C   UNL     1      10.203  -0.056  24.670  0.00  0.00    +0.004 A 
ATOM      4  C   UNL     1      10.846   1.160  24.406  0.00  0.00    +0.004 A 
ATOM      5  C   UNL     1      10.536   1.878  23.259  0.00  0.00    +0.045 A 
ATOM      6  C   UNL     1       9.575   1.378  22.398  0.00  0.00    +0.117 A 
ATOM      7  C   UNL     1       8.915   0.175  22.666  0.00  0.00    +0.049 A 
BRANCH   6   8
ATOM      8  O   UNL     1       9.301   2.103  21.272  0.00  0.00    -0.507 OA
ATOM      9  H   UNL     1       8.990   1.494  20.582  0.00  0.00    +0.292 HD
ENDBRANCH   6   8
ENDBRANCH   1   2
BRANCH   1  11
ATOM     10  C   UNL     1       7.376  -3.651  22.396  0.00  0.00    +0.004 C 
ATOM     11  C   UNL     1       7.426  -2.269  23.026  0.00  0.00    +0.005 C 
ENDBRANCH   1  11
BRANCH   1  12
ATOM     12  C   UNL     1       8.041  -2.093  25.588  0.00  0.00    +0.007 C 
ATOM     13  C   UNL     1       6.510  -1.977  25.706  0.00  0.00    +0.009 C 
BRANCH  12  14
ATOM     14  C   UNL     1       8.491  -3.331  26.405  0.00  0.00    +0.087 C 
BRANCH  14  15
ATOM     15  N   UNL     1       8.059  -4.649  25.910  0.00  0.00    -0.308 NA
ATOM     16  C   UNL     1       7.475  -5.417  27.022  0.00  0.00    +0.104 C 
ATOM     17  C   UNL     1       9.171  -5.404  25.330  0.00  0.00    +0.104 C 
ENDBRANCH  14  15
ENDBRANCH  12  14
ENDBRANCH   1  12
TORSDOF 6
ENDMDL
