MODEL 1
REMARK VINA RESULT:      -7.0      0.000      0.000
REMARK  Name = 
REMARK  8 active torsions:
REMARK  status: ('A' for Active; 'I' for Inactive)
REMARK    1  A    between atoms: C_1  and  C_2
REMARK    2  A    between atoms: N_4  and  C_5
REMARK    3  A    between atoms: C_8  and  N_10
REMARK    4  A    between atoms: C_13  and  C_15
REMARK    5  A    between atoms: C_15  and  O_16
REMARK    6  A    between atoms: O_16  and  P_17
REMARK    7  A    between atoms: P_17  and  O_18
REMARK    8  A    between atoms: P_17  and  O_19
REMARK                            x       y       z     vdW  Elec       q    Type
REMARK                         _______ _______ _______ _____ _____    ______ ____
ROOT
ATOM      1  C   UNL     1       7.451  -3.904  24.542  0.00  0.00    +0.226 C 
ATOM      2  O   UNL     1       6.187  -3.529  25.115  0.00  0.00    -0.349 OA
ATOM      3  C   UNL     1       5.971  -4.335  26.295  0.00  0.00    +0.178 C 
ATOM      4  C   UNL     1       7.146  -5.322  26.372  0.00  0.00    +0.226 C 
ATOM      5  C   UNL     1       8.241  -4.556  25.665  0.00  0.00    +0.091 C 
ENDROOT
BRANCH   1  14
ATOM      6  C   UNL     1      10.388   0.107  24.920  0.00  0.00    +0.051 C 
ATOM      7  C   UNL     1       9.548  -0.861  24.152  0.00  0.00    +0.030 A 
ATOM      8  C   UNL     1       9.458  -0.664  22.684  0.00  0.00    +0.257 A 
ATOM      9  O   UNL     1      10.047   0.242  22.110  0.00  0.00    -0.267 OA
ATOM     10  N   UNL     1       8.688  -1.574  22.012  0.00  0.00    -0.275 N 
ATOM     11  H   UNL     1       8.632  -1.468  21.013  0.00  0.00    +0.173 HD
ATOM     12  C   UNL     1       8.053  -2.655  22.558  0.00  0.00    +0.331 A 
ATOM     13  O   UNL     1       7.470  -3.462  21.838  0.00  0.00    -0.246 OA
ATOM     14  N   UNL     1       8.132  -2.768  23.940  0.00  0.00    -0.274 N 
ATOM     15  C   UNL     1       8.884  -1.889  24.696  0.00  0.00    +0.101 A 
ENDBRANCH   1  14
BRANCH   4  16
ATOM     16  N   UNL     1       7.503  -5.617  27.763  0.00  0.00    +0.082 NA
ATOM     17  N   UNL     1       6.796  -6.468  28.337  0.00  0.00    -0.014 NA
ATOM     18  N   UNL     1       6.140  -7.240  28.859  0.00  0.00    -0.328 NA
ENDBRANCH   4  16
BRANCH   3  19
ATOM     19  C   UNL     1       4.633  -5.071  26.212  0.00  0.00    +0.206 C 
BRANCH  19  20
ATOM     20  O   UNL     1       4.356  -5.528  24.882  0.00  0.00    -0.284 OA
BRANCH  20  21
ATOM     21  P   UNL     1       3.522  -7.045  24.900  0.00  0.00    +0.472 P 
ATOM     22  O   UNL     1       2.777  -8.402  24.914  0.00  0.00    -0.228 OA
BRANCH  21  23
ATOM     23  O   UNL     1       4.407  -7.344  26.244  0.00  0.00    -0.303 OA
ATOM     24  H   UNL     1       4.298  -8.297  26.424  0.00  0.00    +0.222 HD
ENDBRANCH  21  23
BRANCH  21  25
ATOM     25  O   UNL     1       4.717  -7.526  23.886  0.00  0.00    -0.303 OA
ATOM     26  H   UNL     1       4.351  -7.846  23.043  0.00  0.00    +0.222 HD
ENDBRANCH  21  25
ENDBRANCH  20  21
ENDBRANCH  19  20
ENDBRANCH   3  19
TORSDOF 7
ENDMDL
MODEL 2
REMARK VINA RESULT:      -7.0      3.383      7.606
REMARK  Name = 
REMARK  8 active torsions:
REMARK  status: ('A' for Active; 'I' for Inactive)
REMARK    1  A    between atoms: C_1  and  C_2
REMARK    2  A    between atoms: N_4  and  C_5
REMARK    3  A    between atoms: C_8  and  N_10
REMARK    4  A    between atoms: C_13  and  C_15
REMARK    5  A    between atoms: C_15  and  O_16
REMARK    6  A    between atoms: O_16  and  P_17
REMARK    7  A    between atoms: P_17  and  O_18
REMARK    8  A    between atoms: P_17  and  O_19
REMARK                            x       y       z     vdW  Elec       q    Type
REMARK                         _______ _______ _______ _____ _____    ______ ____
ROOT
ATOM      1  C   UNL     1       7.122  -3.500  23.033  0.00  0.00    +0.226 C 
ATOM      2  O   UNL     1       8.105  -3.129  24.013  0.00  0.00    -0.349 OA
ATOM      3  C   UNL     1       8.256  -1.692  23.978  0.00  0.00    +0.178 C 
ATOM      4  C   UNL     1       7.368  -1.187  22.831  0.00  0.00    +0.226 C 
ATOM      5  C   UNL     1       6.295  -2.250  22.778  0.00  0.00    +0.091 C 
ENDROOT
BRANCH   1  14
ATOM      6  C   UNL     1       5.145  -6.304  26.651  0.00  0.00    +0.051 C 
ATOM      7  C   UNL     1       5.387  -5.956  25.218  0.00  0.00    +0.030 A 
ATOM      8  C   UNL     1       4.731  -6.803  24.193  0.00  0.00    +0.257 A 
ATOM      9  O   UNL     1       4.011  -7.747  24.491  0.00  0.00    -0.267 OA
ATOM     10  N   UNL     1       4.969  -6.450  22.893  0.00  0.00    -0.275 N 
ATOM     11  H   UNL     1       4.514  -7.002  22.184  0.00  0.00    +0.173 HD
ATOM     12  C   UNL     1       5.699  -5.375  22.469  0.00  0.00    +0.331 A 
ATOM     13  O   UNL     1       5.760  -5.099  21.273  0.00  0.00    -0.246 OA
ATOM     14  N   UNL     1       6.328  -4.640  23.465  0.00  0.00    -0.274 N 
ATOM     15  C   UNL     1       6.146  -4.932  24.803  0.00  0.00    +0.101 A 
ENDBRANCH   1  14
BRANCH   4  16
ATOM     16  N   UNL     1       6.807   0.134  23.134  0.00  0.00    +0.082 NA
ATOM     17  N   UNL     1       7.242   1.080  22.448  0.00  0.00    -0.014 NA
ATOM     18  N   UNL     1       7.650   1.941  21.824  0.00  0.00    -0.328 NA
ENDBRANCH   4  16
BRANCH   3  19
ATOM     19  C   UNL     1       9.719  -1.304  23.759  0.00  0.00    +0.206 C 
BRANCH  19  20
ATOM     20  O   UNL     1      10.213  -0.466  24.811  0.00  0.00    -0.284 OA
BRANCH  20  21
ATOM     21  P   UNL     1      10.633   1.105  24.218  0.00  0.00    +0.472 P 
ATOM     22  O   UNL     1      11.009   2.509  23.686  0.00  0.00    -0.228 OA
BRANCH  21  23
ATOM     23  O   UNL     1       9.103   1.507  24.637  0.00  0.00    -0.303 OA
ATOM     24  H   UNL     1       8.770   2.068  23.910  0.00  0.00    +0.222 HD
ENDBRANCH  21  23
BRANCH  21  25
ATOM     25  O   UNL     1      10.181   0.497  22.765  0.00  0.00    -0.303 OA
ATOM     26  H   UNL     1       9.219   0.355  22.730  0.00  0.00    +0.222 HD
ENDBRANCH  21  25
ENDBRANCH  20  21
ENDBRANCH  19  20
ENDBRANCH   3  19
TORSDOF 7
ENDMDL
MODEL 3
REMARK VINA RESULT:      -6.8      3.098      4.083
REMARK  Name = 
REMARK  8 active torsions:
REMARK  status: ('A' for Active; 'I' for Inactive)
REMARK    1  A    between atoms: C_1  and  C_2
REMARK    2  A    between atoms: N_4  and  C_5
REMARK    3  A    between atoms: C_8  and  N_10
REMARK    4  A    between atoms: C_13  and  C_15
REMARK    5  A    between atoms: C_15  and  O_16
REMARK    6  A    between atoms: O_16  and  P_17
REMARK    7  A    between atoms: P_17  and  O_18
REMARK    8  A    between atoms: P_17  and  O_19
REMARK                            x       y       z     vdW  Elec       q    Type
REMARK                         _______ _______ _______ _____ _____    ______ ____
ROOT
ATOM      1  C   UNL     1       7.434  -2.019  25.076  0.00  0.00    +0.226 C 
ATOM      2  O   UNL     1       7.967  -3.343  24.901  0.00  0.00    -0.349 OA
ATOM      3  C   UNL     1       6.897  -4.204  24.450  0.00  0.00    +0.178 C 
ATOM      4  C   UNL     1       5.620  -3.350  24.448  0.00  0.00    +0.226 C 
ATOM      5  C   UNL     1       6.175  -1.962  24.225  0.00  0.00    +0.091 C 
ENDROOT
BRANCH   1  14
ATOM      6  C   UNL     1       9.576   1.021  21.756  0.00  0.00    +0.051 C 
ATOM      7  C   UNL     1       9.406   0.457  23.129  0.00  0.00    +0.030 A 
ATOM      8  C   UNL     1      10.253   1.025  24.206  0.00  0.00    +0.257 A 
ATOM      9  O   UNL     1      11.056   1.924  23.997  0.00  0.00    -0.267 OA
ATOM     10  N   UNL     1      10.064   0.490  25.451  0.00  0.00    -0.275 N 
ATOM     11  H   UNL     1      10.616   0.878  26.198  0.00  0.00    +0.173 HD
ATOM     12  C   UNL     1       9.145  -0.464  25.789  0.00  0.00    +0.331 A 
ATOM     13  O   UNL     1       8.998  -0.795  26.963  0.00  0.00    -0.246 OA
ATOM     14  N   UNL     1       8.408  -0.993  24.738  0.00  0.00    -0.274 N 
ATOM     15  C   UNL     1       8.540  -0.515  23.448  0.00  0.00    +0.101 A 
ENDBRANCH   1  14
BRANCH   4  16
ATOM     16  N   UNL     1       4.713  -3.750  23.368  0.00  0.00    +0.082 NA
ATOM     17  N   UNL     1       5.197  -3.738  22.219  0.00  0.00    -0.014 NA
ATOM     18  N   UNL     1       5.643  -3.717  21.171  0.00  0.00    -0.328 NA
ENDBRANCH   4  16
BRANCH   3  19
ATOM     19  C   UNL     1       6.752  -5.417  25.369  0.00  0.00    +0.206 C 
BRANCH  19  20
ATOM     20  O   UNL     1       5.646  -5.276  26.270  0.00  0.00    -0.284 OA
BRANCH  20  21
ATOM     21  P   UNL     1       6.118  -5.611  27.901  0.00  0.00    +0.472 P 
ATOM     22  O   UNL     1       6.539  -5.912  29.360  0.00  0.00    -0.228 OA
BRANCH  21  23
ATOM     23  O   UNL     1       7.564  -6.003  27.242  0.00  0.00    -0.303 OA
ATOM     24  H   UNL     1       7.614  -6.977  27.278  0.00  0.00    +0.222 HD
ENDBRANCH  21  23
BRANCH  21  25
ATOM     25  O   UNL     1       5.473  -7.090  27.610  0.00  0.00    -0.303 OA
ATOM     26  H   UNL     1       4.845  -7.340  28.309  0.00  0.00    +0.222 HD
ENDBRANCH  21  25
ENDBRANCH  20  21
ENDBRANCH  19  20
ENDBRANCH   3  19
TORSDOF 7
ENDMDL
MODEL 4
REMARK VINA RESULT:      -6.8      3.930      4.752
REMARK  Name = 
REMARK  8 active torsions:
REMARK  status: ('A' for Active; 'I' for Inactive)
REMARK    1  A    between atoms: C_1  and  C_2
REMARK    2  A    between atoms: N_4  and  C_5
REMARK    3  A    between atoms: C_8  and  N_10
REMARK    4  A    between atoms: C_13  and  C_15
REMARK    5  A    between atoms: C_15  and  O_16
REMARK    6  A    between atoms: O_16  and  P_17
REMARK    7  A    between atoms: P_17  and  O_18
REMARK    8  A    between atoms: P_17  and  O_19
REMARK                            x       y       z     vdW  Elec       q    Type
REMARK                         _______ _______ _______ _____ _____    ______ ____
ROOT
ATOM      1  C   UNL     1       7.487  -1.533  24.194  0.00  0.00    +0.226 C 
ATOM      2  O   UNL     1       8.330  -2.450  23.476  0.00  0.00    -0.349 OA
ATOM      3  C   UNL     1       7.489  -3.464  22.881  0.00  0.00    +0.178 C 
ATOM      4  C   UNL     1       6.057  -3.181  23.361  0.00  0.00    +0.226 C 
ATOM      5  C   UNL     1       6.098  -1.689  23.596  0.00  0.00    +0.091 C 
ENDROOT
BRANCH   1  14
ATOM      6  C   UNL     1       7.487   3.024  22.173  0.00  0.00    +0.051 C 
ATOM      7  C   UNL     1       7.962   2.003  23.154  0.00  0.00    +0.030 A 
ATOM      8  C   UNL     1       8.970   2.438  24.152  0.00  0.00    +0.257 A 
ATOM      9  O   UNL     1       9.400   3.583  24.188  0.00  0.00    -0.267 OA
ATOM     10  N   UNL     1       9.376   1.479  25.040  0.00  0.00    -0.275 N 
ATOM     11  H   UNL     1      10.044   1.762  25.737  0.00  0.00    +0.173 HD
ATOM     12  C   UNL     1       8.902   0.199  25.118  0.00  0.00    +0.331 A 
ATOM     13  O   UNL     1       9.269  -0.545  26.025  0.00  0.00    -0.246 OA
ATOM     14  N   UNL     1       7.992  -0.171  24.136  0.00  0.00    -0.274 N 
ATOM     15  C   UNL     1       7.534   0.733  23.197  0.00  0.00    +0.101 A 
ENDBRANCH   1  14
BRANCH   4  16
ATOM     16  N   UNL     1       5.072  -3.541  22.336  0.00  0.00    +0.082 NA
ATOM     17  N   UNL     1       4.252  -4.424  22.656  0.00  0.00    -0.014 NA
ATOM     18  N   UNL     1       3.510  -5.237  22.953  0.00  0.00    -0.328 NA
ENDBRANCH   4  16
BRANCH   3  19
ATOM     19  C   UNL     1       7.948  -4.862  23.298  0.00  0.00    +0.206 C 
BRANCH  19  20
ATOM     20  O   UNL     1       9.047  -4.812  24.216  0.00  0.00    -0.284 OA
BRANCH  20  21
ATOM     21  P   UNL     1       8.542  -5.201  25.825  0.00  0.00    +0.472 P 
ATOM     22  O   UNL     1       8.091  -5.549  27.264  0.00  0.00    -0.228 OA
BRANCH  21  23
ATOM     23  O   UNL     1       8.844  -3.623  26.138  0.00  0.00    -0.303 OA
ATOM     24  H   UNL     1       9.150  -3.593  27.064  0.00  0.00    +0.222 HD
ENDBRANCH  21  23
BRANCH  21  25
ATOM     25  O   UNL     1      10.106  -5.643  26.033  0.00  0.00    -0.303 OA
ATOM     26  H   UNL     1      10.495  -5.196  26.804  0.00  0.00    +0.222 HD
ENDBRANCH  21  25
ENDBRANCH  20  21
ENDBRANCH  19  20
ENDBRANCH   3  19
TORSDOF 7
ENDMDL
MODEL 5
REMARK VINA RESULT:      -6.6      3.067      7.781
REMARK  Name = 
REMARK  8 active torsions:
REMARK  status: ('A' for Active; 'I' for Inactive)
REMARK    1  A    between atoms: C_1  and  C_2
REMARK    2  A    between atoms: N_4  and  C_5
REMARK    3  A    between atoms: C_8  and  N_10
REMARK    4  A    between atoms: C_13  and  C_15
REMARK    5  A    between atoms: C_15  and  O_16
REMARK    6  A    between atoms: O_16  and  P_17
REMARK    7  A    between atoms: P_17  and  O_18
REMARK    8  A    between atoms: P_17  and  O_19
REMARK                            x       y       z     vdW  Elec       q    Type
REMARK                         _______ _______ _______ _____ _____    ______ ____
ROOT
ATOM      1  C   UNL     1       8.207  -3.053  25.215  0.00  0.00    +0.226 C 
ATOM      2  O   UNL     1       7.639  -1.776  24.878  0.00  0.00    -0.349 OA
ATOM      3  C   UNL     1       8.582  -1.071  24.039  0.00  0.00    +0.178 C 
ATOM      4  C   UNL     1       9.836  -1.954  23.952  0.00  0.00    +0.226 C 
ATOM      5  C   UNL     1       9.256  -3.336  24.152  0.00  0.00    +0.091 C 
ENDROOT
BRANCH   1  14
ATOM      6  C   UNL     1       4.181  -5.386  23.425  0.00  0.00    +0.051 C 
ATOM      7  C   UNL     1       5.271  -5.191  24.428  0.00  0.00    +0.030 A 
ATOM      8  C   UNL     1       5.333  -6.151  25.557  0.00  0.00    +0.257 A 
ATOM      9  O   UNL     1       4.538  -7.074  25.673  0.00  0.00    -0.267 OA
ATOM     10  N   UNL     1       6.348  -5.946  26.452  0.00  0.00    -0.275 N 
ATOM     11  H   UNL     1       6.418  -6.601  27.213  0.00  0.00    +0.173 HD
ATOM     12  C   UNL     1       7.320  -4.988  26.366  0.00  0.00    +0.331 A 
ATOM     13  O   UNL     1       8.242  -4.964  27.177  0.00  0.00    -0.246 OA
ATOM     14  N   UNL     1       7.191  -4.089  25.316  0.00  0.00    -0.274 N 
ATOM     15  C   UNL     1       6.191  -4.219  24.370  0.00  0.00    +0.101 A 
ENDBRANCH   1  14
BRANCH   4  16
ATOM     16  N   UNL     1      10.489  -1.825  22.646  0.00  0.00    +0.082 NA
ATOM     17  N   UNL     1       9.919  -1.081  21.824  0.00  0.00    -0.014 NA
ATOM     18  N   UNL     1       9.388  -0.407  21.074  0.00  0.00    -0.328 NA
ENDBRANCH   4  16
BRANCH   3  19
ATOM     19  C   UNL     1       8.911   0.302  24.627  0.00  0.00    +0.206 C 
BRANCH  19  20
ATOM     20  O   UNL     1       8.579   1.364  23.723  0.00  0.00    -0.284 OA
BRANCH  20  21
ATOM     21  P   UNL     1       9.899   2.468  23.539  0.00  0.00    +0.472 P 
ATOM     22  O   UNL     1      11.080   3.455  23.375  0.00  0.00    -0.228 OA
BRANCH  21  23
ATOM     23  O   UNL     1       9.647   2.266  21.935  0.00  0.00    -0.303 OA
ATOM     24  H   UNL     1       9.419   1.323  21.822  0.00  0.00    +0.222 HD
ENDBRANCH  21  23
BRANCH  21  25
ATOM     25  O   UNL     1      10.827   1.123  23.664  0.00  0.00    -0.303 OA
ATOM     26  H   UNL     1      11.546   1.133  23.008  0.00  0.00    +0.222 HD
ENDBRANCH  21  25
ENDBRANCH  20  21
ENDBRANCH  19  20
ENDBRANCH   3  19
TORSDOF 7
ENDMDL
MODEL 6
REMARK VINA RESULT:      -6.6      2.200      2.930
REMARK  Name = 
REMARK  8 active torsions:
REMARK  status: ('A' for Active; 'I' for Inactive)
REMARK    1  A    between atoms: C_1  and  C_2
REMARK    2  A    between atoms: N_4  and  C_5
REMARK    3  A    between atoms: C_8  and  N_10
REMARK    4  A    between atoms: C_13  and  C_15
REMARK    5  A    between atoms: C_15  and  O_16
REMARK    6  A    between atoms: O_16  and  P_17
REMARK    7  A    between atoms: P_17  and  O_18
REMARK    8  A    between atoms: P_17  and  O_19
REMARK                            x       y       z     vdW  Elec       q    Type
REMARK                         _______ _______ _______ _____ _____    ______ ____
ROOT
ATOM      1  C   UNL     1       8.327  -2.123  24.072  0.00  0.00    +0.226 C 
ATOM      2  O   UNL     1       6.923  -2.212  23.776  0.00  0.00    -0.349 OA
ATOM      3  C   UNL     1       6.307  -3.068  24.765  0.00  0.00    +0.178 C 
ATOM      4  C   UNL     1       7.443  -3.599  25.652  0.00  0.00    +0.226 C 
ATOM      5  C   UNL     1       8.467  -2.493  25.541  0.00  0.00    +0.091 C 
ENDROOT
BRANCH   1  14
ATOM      6  C   UNL     1       8.616   2.784  24.901  0.00  0.00    +0.051 C 
ATOM      7  C   UNL     1       8.992   1.531  24.179  0.00  0.00    +0.030 A 
ATOM      8  C   UNL     1      10.016   1.644  23.111  0.00  0.00    +0.257 A 
ATOM      9  O   UNL     1      10.545   2.710  22.826  0.00  0.00    -0.267 OA
ATOM     10  N   UNL     1      10.341   0.476  22.478  0.00  0.00    -0.275 N 
ATOM     11  H   UNL     1      11.049   0.531  21.765  0.00  0.00    +0.173 HD
ATOM     12  C   UNL     1       9.854  -0.767  22.775  0.00  0.00    +0.331 A 
ATOM     13  O   UNL     1      10.297  -1.760  22.203  0.00  0.00    -0.246 OA
ATOM     14  N   UNL     1       8.868  -0.812  23.752  0.00  0.00    -0.274 N 
ATOM     15  C   UNL     1       8.475   0.322  24.437  0.00  0.00    +0.101 A 
ENDBRANCH   1  14
BRANCH   4  16
ATOM     16  N   UNL     1       6.995  -3.784  27.036  0.00  0.00    +0.082 NA
ATOM     17  N   UNL     1       7.124  -4.933  27.500  0.00  0.00    -0.014 NA
ATOM     18  N   UNL     1       7.237  -5.989  27.916  0.00  0.00    -0.328 NA
ENDBRANCH   4  16
BRANCH   3  19
ATOM     19  C   UNL     1       5.546  -4.212  24.094  0.00  0.00    +0.206 C 
BRANCH  19  20
ATOM     20  O   UNL     1       6.433  -5.205  23.564  0.00  0.00    -0.284 OA
BRANCH  20  21
ATOM     21  P   UNL     1       6.186  -5.424  21.865  0.00  0.00    +0.472 P 
ATOM     22  O   UNL     1       5.965  -5.621  20.345  0.00  0.00    -0.228 OA
BRANCH  21  23
ATOM     23  O   UNL     1       5.210  -4.116  21.991  0.00  0.00    -0.303 OA
ATOM     24  H   UNL     1       4.888  -4.117  22.913  0.00  0.00    +0.222 HD
ENDBRANCH  21  23
BRANCH  21  25
ATOM     25  O   UNL     1       5.014  -6.468  22.336  0.00  0.00    -0.303 OA
ATOM     26  H   UNL     1       5.384  -7.182  22.885  0.00  0.00    +0.222 HD
ENDBRANCH  21  25
ENDBRANCH  20  21
ENDBRANCH  19  20
ENDBRANCH   3  19
TORSDOF 7
ENDMDL
MODEL 7
REMARK VINA RESULT:      -6.6      1.694      2.098
REMARK  Name = 
REMARK  8 active torsions:
REMARK  status: ('A' for Active; 'I' for Inactive)
REMARK    1  A    between atoms: C_1  and  C_2
REMARK    2  A    between atoms: N_4  and  C_5
REMARK    3  A    between atoms: C_8  and  N_10
REMARK    4  A    between atoms: C_13  and  C_15
REMARK    5  A    between atoms: C_15  and  O_16
REMARK    6  A    between atoms: O_16  and  P_17
REMARK    7  A    between atoms: P_17  and  O_18
REMARK    8  A    between atoms: P_17  and  O_19
REMARK                            x       y       z     vdW  Elec       q    Type
REMARK                         _______ _______ _______ _____ _____    ______ ____
ROOT
ATOM      1  C   UNL     1       8.501  -2.307  24.206  0.00  0.00    +0.226 C 
ATOM      2  O   UNL     1       7.167  -2.553  23.730  0.00  0.00    -0.349 OA
ATOM      3  C   UNL     1       6.497  -3.406  24.685  0.00  0.00    +0.178 C 
ATOM      4  C   UNL     1       7.540  -3.768  25.754  0.00  0.00    +0.226 C 
ATOM      5  C   UNL     1       8.464  -2.573  25.702  0.00  0.00    +0.091 C 
ENDROOT
BRANCH   1  14
ATOM      6  C   UNL     1       8.500   2.618  24.979  0.00  0.00    +0.051 C 
ATOM      7  C   UNL     1       8.946   1.381  24.268  0.00  0.00    +0.030 A 
ATOM      8  C   UNL     1       9.955   1.544  23.192  0.00  0.00    +0.257 A 
ATOM      9  O   UNL     1      10.418   2.636  22.892  0.00  0.00    -0.267 OA
ATOM     10  N   UNL     1      10.346   0.389  22.570  0.00  0.00    -0.275 N 
ATOM     11  H   UNL     1      11.045   0.479  21.851  0.00  0.00    +0.173 HD
ATOM     12  C   UNL     1       9.936  -0.877  22.884  0.00  0.00    +0.331 A 
ATOM     13  O   UNL     1      10.434  -1.848  22.320  0.00  0.00    -0.246 OA
ATOM     14  N   UNL     1       8.960  -0.970  23.867  0.00  0.00    -0.274 N 
ATOM     15  C   UNL     1       8.504   0.146  24.542  0.00  0.00    +0.101 A 
ENDBRANCH   1  14
BRANCH   4  16
ATOM     16  N   UNL     1       6.919  -3.915  27.075  0.00  0.00    +0.082 NA
ATOM     17  N   UNL     1       7.028  -5.038  27.605  0.00  0.00    -0.014 NA
ATOM     18  N   UNL     1       7.124  -6.069  28.080  0.00  0.00    -0.328 NA
ENDBRANCH   4  16
BRANCH   3  19
ATOM     19  C   UNL     1       5.946  -4.659  24.002  0.00  0.00    +0.206 C 
BRANCH  19  20
ATOM     20  O   UNL     1       4.541  -4.818  24.233  0.00  0.00    -0.284 OA
BRANCH  20  21
ATOM     21  P   UNL     1       4.124  -6.484  24.448  0.00  0.00    +0.472 P 
ATOM     22  O   UNL     1       3.751  -7.975  24.639  0.00  0.00    -0.228 OA
BRANCH  21  23
ATOM     23  O   UNL     1       5.269  -6.463  25.617  0.00  0.00    -0.303 OA
ATOM     24  H   UNL     1       5.675  -5.576  25.571  0.00  0.00    +0.222 HD
ENDBRANCH  21  23
BRANCH  21  25
ATOM     25  O   UNL     1       5.211  -6.741  23.249  0.00  0.00    -0.303 OA
ATOM     26  H   UNL     1       5.025  -6.173  22.482  0.00  0.00    +0.222 HD
ENDBRANCH  21  25
ENDBRANCH  20  21
ENDBRANCH  19  20
ENDBRANCH   3  19
TORSDOF 7
ENDMDL
MODEL 8
REMARK VINA RESULT:      -6.6      3.282      4.749
REMARK  Name = 
REMARK  8 active torsions:
REMARK  status: ('A' for Active; 'I' for Inactive)
REMARK    1  A    between atoms: C_1  and  C_2
REMARK    2  A    between atoms: N_4  and  C_5
REMARK    3  A    between atoms: C_8  and  N_10
REMARK    4  A    between atoms: C_13  and  C_15
REMARK    5  A    between atoms: C_15  and  O_16
REMARK    6  A    between atoms: O_16  and  P_17
REMARK    7  A    between atoms: P_17  and  O_18
REMARK    8  A    between atoms: P_17  and  O_19
REMARK                            x       y       z     vdW  Elec       q    Type
REMARK                         _______ _______ _______ _____ _____    ______ ____
ROOT
ATOM      1  C   UNL     1       8.660   0.135  23.358  0.00  0.00    +0.226 C 
ATOM      2  O   UNL     1       7.286  -0.288  23.360  0.00  0.00    -0.349 OA
ATOM      3  C   UNL     1       7.230  -1.631  23.889  0.00  0.00    +0.178 C 
ATOM      4  C   UNL     1       8.682  -2.069  24.129  0.00  0.00    +0.226 C 
ATOM      5  C   UNL     1       9.368  -0.745  24.376  0.00  0.00    +0.091 C 
ENDROOT
BRANCH   1  14
ATOM      6  C   UNL     1       7.688   4.126  26.185  0.00  0.00    +0.051 C 
ATOM      7  C   UNL     1       8.317   3.446  25.012  0.00  0.00    +0.030 A 
ATOM      8  C   UNL     1       9.160   4.276  24.118  0.00  0.00    +0.257 A 
ATOM      9  O   UNL     1       9.350   5.468  24.322  0.00  0.00    -0.267 OA
ATOM     10  N   UNL     1       9.725   3.618  23.060  0.00  0.00    -0.275 N 
ATOM     11  H   UNL     1      10.317   4.162  22.454  0.00  0.00    +0.173 HD
ATOM     12  C   UNL     1       9.626   2.281  22.793  0.00  0.00    +0.331 A 
ATOM     13  O   UNL     1      10.262   1.784  21.867  0.00  0.00    -0.246 OA
ATOM     14  N   UNL     1       8.791   1.557  23.634  0.00  0.00    -0.274 N 
ATOM     15  C   UNL     1       8.175   2.145  24.723  0.00  0.00    +0.101 A 
ENDBRANCH   1  14
BRANCH   4  16
ATOM     16  N   UNL     1       8.786  -2.957  25.291  0.00  0.00    +0.082 NA
ATOM     17  N   UNL     1       9.286  -4.079  25.076  0.00  0.00    -0.014 NA
ATOM     18  N   UNL     1       9.736  -5.105  24.871  0.00  0.00    -0.328 NA
ENDBRANCH   4  16
BRANCH   3  19
ATOM     19  C   UNL     1       6.521  -2.571  22.912  0.00  0.00    +0.206 C 
BRANCH  19  20
ATOM     20  O   UNL     1       7.450  -3.389  22.189  0.00  0.00    -0.284 OA
BRANCH  20  21
ATOM     21  P   UNL     1       6.864  -5.009  22.024  0.00  0.00    +0.472 P 
ATOM     22  O   UNL     1       6.340  -6.459  21.878  0.00  0.00    -0.228 OA
BRANCH  21  23
ATOM     23  O   UNL     1       5.393  -4.303  21.896  0.00  0.00    -0.303 OA
ATOM     24  H   UNL     1       5.252  -3.834  22.741  0.00  0.00    +0.222 HD
ENDBRANCH  21  23
BRANCH  21  25
ATOM     25  O   UNL     1       6.840  -4.992  23.663  0.00  0.00    -0.303 OA
ATOM     26  H   UNL     1       7.518  -4.390  24.015  0.00  0.00    +0.222 HD
ENDBRANCH  21  25
ENDBRANCH  20  21
ENDBRANCH  19  20
ENDBRANCH   3  19
TORSDOF 7
ENDMDL
MODEL 9
REMARK VINA RESULT:      -6.5      2.765      3.570
REMARK  Name = 
REMARK  8 active torsions:
REMARK  status: ('A' for Active; 'I' for Inactive)
REMARK    1  A    between atoms: C_1  and  C_2
REMARK    2  A    between atoms: N_4  and  C_5
REMARK    3  A    between atoms: C_8  and  N_10
REMARK    4  A    between atoms: C_13  and  C_15
REMARK    5  A    between atoms: C_15  and  O_16
REMARK    6  A    between atoms: O_16  and  P_17
REMARK    7  A    between atoms: P_17  and  O_18
REMARK    8  A    between atoms: P_17  and  O_19
REMARK                            x       y       z     vdW  Elec       q    Type
REMARK                         _______ _______ _______ _____ _____    ______ ____
ROOT
ATOM      1  C   UNL     1       7.040  -1.848  23.980  0.00  0.00    +0.226 C 
ATOM      2  O   UNL     1       6.583  -2.481  25.187  0.00  0.00    -0.349 OA
ATOM      3  C   UNL     1       6.821  -3.902  25.069  0.00  0.00    +0.178 C 
ATOM      4  C   UNL     1       7.371  -4.137  23.654  0.00  0.00    +0.226 C 
ATOM      5  C   UNL     1       8.036  -2.813  23.355  0.00  0.00    +0.091 C 
ENDROOT
BRANCH   1  14
ATOM      6  C   UNL     1      10.924   1.271  24.189  0.00  0.00    +0.051 C 
ATOM      7  C   UNL     1       9.472   0.941  24.317  0.00  0.00    +0.030 A 
ATOM      8  C   UNL     1       8.554   2.050  24.676  0.00  0.00    +0.257 A 
ATOM      9  O   UNL     1       8.952   3.193  24.857  0.00  0.00    -0.267 OA
ATOM     10  N   UNL     1       7.232   1.713  24.776  0.00  0.00    -0.275 N 
ATOM     11  H   UNL     1       6.592   2.458  24.999  0.00  0.00    +0.173 HD
ATOM     12  C   UNL     1       6.690   0.483  24.526  0.00  0.00    +0.331 A 
ATOM     13  O   UNL     1       5.472   0.325  24.550  0.00  0.00    -0.246 OA
ATOM     14  N   UNL     1       7.596  -0.529  24.236  0.00  0.00    -0.274 N 
ATOM     15  C   UNL     1       8.950  -0.277  24.122  0.00  0.00    +0.101 A 
ENDBRANCH   1  14
BRANCH   4  16
ATOM     16  N   UNL     1       8.334  -5.243  23.634  0.00  0.00    +0.082 NA
ATOM     17  N   UNL     1       9.203  -5.224  24.527  0.00  0.00    -0.014 NA
ATOM     18  N   UNL     1       9.999  -5.197  25.342  0.00  0.00    -0.328 NA
ENDBRANCH   4  16
BRANCH   3  19
ATOM     19  C   UNL     1       5.531  -4.690  25.301  0.00  0.00    +0.206 C 
BRANCH  19  20
ATOM     20  O   UNL     1       5.776  -5.927  25.982  0.00  0.00    -0.284 OA
BRANCH  20  21
ATOM     21  P   UNL     1       6.122  -5.664  27.657  0.00  0.00    +0.472 P 
ATOM     22  O   UNL     1       6.431  -5.430  29.156  0.00  0.00    -0.228 OA
BRANCH  21  23
ATOM     23  O   UNL     1       7.641  -6.127  27.260  0.00  0.00    -0.303 OA
ATOM     24  H   UNL     1       8.077  -6.352  28.105  0.00  0.00    +0.222 HD
ENDBRANCH  21  23
BRANCH  21  25
ATOM     25  O   UNL     1       5.594  -7.205  27.839  0.00  0.00    -0.303 OA
ATOM     26  H   UNL     1       5.092  -7.307  28.665  0.00  0.00    +0.222 HD
ENDBRANCH  21  25
ENDBRANCH  20  21
ENDBRANCH  19  20
ENDBRANCH   3  19
TORSDOF 7
ENDMDL
