MODEL 1
REMARK VINA RESULT:      -6.3      0.000      0.000
REMARK  Name = 
REMARK  7 active torsions:
REMARK  status: ('A' for Active; 'I' for Inactive)
REMARK    1  A    between atoms: O_1  and  C_2
REMARK    2  A    between atoms: C_4  and  C_6
REMARK    3  A    between atoms: C_6  and  O_7
REMARK    4  A    between atoms: O_7  and  P_8
REMARK    5  A    between atoms: P_8  and  O_9
REMARK    6  A    between atoms: P_8  and  O_10
REMARK    7  A    between atoms: C_20  and  O_22
REMARK                            x       y       z     vdW  Elec       q    Type
REMARK                         _______ _______ _______ _____ _____    ______ ____
ROOT
ATOM      1  C   UNL     1       7.213  -2.763  23.336  0.00  0.00    +0.179 C 
ATOM      2  C   UNL     1       7.466  -4.156  23.886  0.00  0.00    +0.205 C 
ATOM      3  C   UNL     1       8.040  -3.850  25.279  0.00  0.00    +0.244 C 
ATOM      4  C   UNL     1       9.100  -4.914  25.636  0.00  0.00    +0.274 C 
ATOM      5  O   UNL     1      10.203  -5.045  25.125  0.00  0.00    -0.270 OA
ATOM      6  N   UNL     1       8.591  -5.691  26.633  0.00  0.00    -0.236 N 
ATOM      7  H   UNL     1       9.093  -6.431  27.086  0.00  0.00    +0.159 HD
ATOM      8  C   UNL     1       7.456  -5.140  27.122  0.00  0.00    +0.308 C 
ATOM      9  O   UNL     1       6.863  -5.497  28.124  0.00  0.00    -0.252 OA
ATOM     10  N   UNL     1       7.100  -4.064  26.344  0.00  0.00    -0.261 N 
ATOM     11  H   UNL     1       6.428  -3.384  26.676  0.00  0.00    +0.154 HD
ATOM     12  O   UNL     1       8.464  -2.499  25.325  0.00  0.00    -0.338 OA
ATOM     13  C   UNL     1       8.333  -1.965  23.994  0.00  0.00    +0.179 C 
ENDROOT
BRANCH   1  14
ATOM     14  O   UNL     1       7.295  -2.730  21.917  0.00  0.00    -0.386 OA
ATOM     15  H   UNL     1       6.920  -1.888  21.607  0.00  0.00    +0.210 HD
ENDBRANCH   1  14
BRANCH   2  16
ATOM     16  O   UNL     1       6.270  -4.944  23.906  0.00  0.00    -0.384 OA
ATOM     17  H   UNL     1       5.573  -4.419  24.340  0.00  0.00    +0.210 HD
ENDBRANCH   2  16
BRANCH  13  18
ATOM     18  C   UNL     1       8.040  -0.471  24.050  0.00  0.00    +0.206 C 
BRANCH  18  19
ATOM     19  O   UNL     1       7.974   0.025  22.722  0.00  0.00    -0.284 OA
BRANCH  19  20
ATOM     20  P   UNL     1       9.345   0.396  21.987  0.00  0.00    +0.472 P 
ATOM     21  O   UNL     1      10.505   0.655  22.881  0.00  0.00    -0.228 OA
BRANCH  20  22
ATOM     22  O   UNL     1       8.923   1.583  21.018  0.00  0.00    -0.303 OA
ATOM     23  H   UNL     1       7.963   1.724  20.972  0.00  0.00    +0.222 HD
ENDBRANCH  20  22
BRANCH  20  24
ATOM     24  O   UNL     1       9.503  -0.845  20.999  0.00  0.00    -0.303 OA
ATOM     25  H   UNL     1       9.132  -1.661  21.377  0.00  0.00    +0.222 HD
ENDBRANCH  20  24
ENDBRANCH  19  20
ENDBRANCH  18  19
ENDBRANCH  13  18
TORSDOF 7
ENDMDL
MODEL 2
REMARK VINA RESULT:      -6.1      2.959      4.690
REMARK  Name = 
REMARK  7 active torsions:
REMARK  status: ('A' for Active; 'I' for Inactive)
REMARK    1  A    between atoms: O_1  and  C_2
REMARK    2  A    between atoms: C_4  and  C_6
REMARK    3  A    between atoms: C_6  and  O_7
REMARK    4  A    between atoms: O_7  and  P_8
REMARK    5  A    between atoms: P_8  and  O_9
REMARK    6  A    between atoms: P_8  and  O_10
REMARK    7  A    between atoms: C_20  and  O_22
REMARK                            x       y       z     vdW  Elec       q    Type
REMARK                         _______ _______ _______ _____ _____    ______ ____
ROOT
ATOM      1  C   UNL     1       8.796   1.155  21.682  0.00  0.00    +0.179 C 
ATOM      2  C   UNL     1       9.470  -0.111  22.182  0.00  0.00    +0.205 C 
ATOM      3  C   UNL     1       8.354  -0.760  23.017  0.00  0.00    +0.244 C 
ATOM      4  C   UNL     1       8.982  -1.486  24.225  0.00  0.00    +0.274 C 
ATOM      5  O   UNL     1       9.511  -0.964  25.196  0.00  0.00    -0.270 OA
ATOM      6  N   UNL     1       8.841  -2.826  24.025  0.00  0.00    -0.236 N 
ATOM      7  H   UNL     1       9.121  -3.530  24.683  0.00  0.00    +0.159 HD
ATOM      8  C   UNL     1       8.015  -3.058  22.979  0.00  0.00    +0.308 C 
ATOM      9  O   UNL     1       7.555  -4.139  22.659  0.00  0.00    -0.252 OA
ATOM     10  N   UNL     1       7.719  -1.868  22.359  0.00  0.00    -0.261 N 
ATOM     11  H   UNL     1       6.941  -1.797  21.716  0.00  0.00    +0.154 HD
ATOM     12  O   UNL     1       7.364   0.210  23.310  0.00  0.00    -0.338 OA
ATOM     13  C   UNL     1       7.857   1.479  22.839  0.00  0.00    +0.179 C 
ENDROOT
BRANCH   1  14
ATOM     14  O   UNL     1       9.733   2.197  21.446  0.00  0.00    -0.386 OA
ATOM     15  H   UNL     1       9.313   3.045  21.671  0.00  0.00    +0.210 HD
ENDBRANCH   1  14
BRANCH   2  16
ATOM     16  O   UNL     1       9.940  -0.925  21.099  0.00  0.00    -0.384 OA
ATOM     17  H   UNL     1       9.181  -1.111  20.515  0.00  0.00    +0.210 HD
ENDBRANCH   2  16
BRANCH  13  18
ATOM     18  C   UNL     1       6.697   2.376  22.425  0.00  0.00    +0.206 C 
BRANCH  18  19
ATOM     19  O   UNL     1       7.221   3.500  21.734  0.00  0.00    -0.284 OA
BRANCH  19  20
ATOM     20  P   UNL     1       7.407   4.864  22.547  0.00  0.00    +0.472 P 
ATOM     21  O   UNL     1       6.418   5.108  23.631  0.00  0.00    -0.228 OA
BRANCH  20  22
ATOM     22  O   UNL     1       7.477   5.960  21.397  0.00  0.00    -0.303 OA
ATOM     23  H   UNL     1       8.380   6.148  21.094  0.00  0.00    +0.222 HD
ENDBRANCH  20  22
BRANCH  20  24
ATOM     24  O   UNL     1       8.923   4.731  23.018  0.00  0.00    -0.303 OA
ATOM     25  H   UNL     1       9.296   5.586  23.292  0.00  0.00    +0.222 HD
ENDBRANCH  20  24
ENDBRANCH  19  20
ENDBRANCH  18  19
ENDBRANCH  13  18
TORSDOF 7
ENDMDL
MODEL 3
REMARK VINA RESULT:      -6.0      1.662      2.406
REMARK  Name = 
REMARK  7 active torsions:
REMARK  status: ('A' for Active; 'I' for Inactive)
REMARK    1  A    between atoms: O_1  and  C_2
REMARK    2  A    between atoms: C_4  and  C_6
REMARK    3  A    between atoms: C_6  and  O_7
REMARK    4  A    between atoms: O_7  and  P_8
REMARK    5  A    between atoms: P_8  and  O_9
REMARK    6  A    between atoms: P_8  and  O_10
REMARK    7  A    between atoms: C_20  and  O_22
REMARK                            x       y       z     vdW  Elec       q    Type
REMARK                         _______ _______ _______ _____ _____    ______ ____
ROOT
ATOM      1  C   UNL     1       9.111  -1.256  22.810  0.00  0.00    +0.179 C 
ATOM      2  C   UNL     1       8.714  -2.720  22.889  0.00  0.00    +0.205 C 
ATOM      3  C   UNL     1       8.544  -2.926  24.403  0.00  0.00    +0.244 C 
ATOM      4  C   UNL     1       8.989  -4.356  24.774  0.00  0.00    +0.274 C 
ATOM      5  O   UNL     1      10.132  -4.790  24.765  0.00  0.00    -0.270 OA
ATOM      6  N   UNL     1       7.877  -5.061  25.120  0.00  0.00    -0.236 N 
ATOM      7  H   UNL     1       7.887  -6.009  25.451  0.00  0.00    +0.159 HD
ATOM      8  C   UNL     1       6.816  -4.230  25.246  0.00  0.00    +0.308 C 
ATOM      9  O   UNL     1       5.729  -4.525  25.709  0.00  0.00    -0.252 OA
ATOM     10  N   UNL     1       7.171  -2.972  24.823  0.00  0.00    -0.261 N 
ATOM     11  H   UNL     1       6.605  -2.168  25.056  0.00  0.00    +0.154 HD
ATOM     12  O   UNL     1       9.185  -1.868  25.094  0.00  0.00    -0.338 OA
ATOM     13  C   UNL     1       9.884  -1.078  24.113  0.00  0.00    +0.179 C 
ENDROOT
BRANCH   1  14
ATOM     14  O   UNL     1       9.915  -0.985  21.670  0.00  0.00    -0.386 OA
ATOM     15  H   UNL     1       9.493  -0.275  21.158  0.00  0.00    +0.210 HD
ENDBRANCH   1  14
BRANCH   2  16
ATOM     16  O   UNL     1       7.532  -2.991  22.124  0.00  0.00    -0.384 OA
ATOM     17  H   UNL     1       7.182  -2.139  21.805  0.00  0.00    +0.210 HD
ENDBRANCH   2  16
BRANCH  13  18
ATOM     18  C   UNL     1       9.961   0.376  24.561  0.00  0.00    +0.206 C 
BRANCH  18  19
ATOM     19  O   UNL     1      10.641   1.120  23.561  0.00  0.00    -0.284 OA
BRANCH  19  20
ATOM     20  P   UNL     1       9.914   2.410  22.959  0.00  0.00    +0.472 P 
ATOM     21  O   UNL     1       8.674   2.839  23.661  0.00  0.00    -0.228 OA
BRANCH  20  22
ATOM     22  O   UNL     1       9.762   2.050  21.418  0.00  0.00    -0.303 OA
ATOM     23  H   UNL     1       9.657   1.099  21.249  0.00  0.00    +0.222 HD
ENDBRANCH  20  22
BRANCH  20  24
ATOM     24  O   UNL     1      11.109   3.465  22.972  0.00  0.00    -0.303 OA
ATOM     25  H   UNL     1      10.979   4.172  22.317  0.00  0.00    +0.222 HD
ENDBRANCH  20  24
ENDBRANCH  19  20
ENDBRANCH  18  19
ENDBRANCH  13  18
TORSDOF 7
ENDMDL
MODEL 4
REMARK VINA RESULT:      -5.8      2.746      5.627
REMARK  Name = 
REMARK  7 active torsions:
REMARK  status: ('A' for Active; 'I' for Inactive)
REMARK    1  A    between atoms: O_1  and  C_2
REMARK    2  A    between atoms: C_4  and  C_6
REMARK    3  A    between atoms: C_6  and  O_7
REMARK    4  A    between atoms: O_7  and  P_8
REMARK    5  A    between atoms: P_8  and  O_9
REMARK    6  A    between atoms: P_8  and  O_10
REMARK    7  A    between atoms: C_20  and  O_22
REMARK                            x       y       z     vdW  Elec       q    Type
REMARK                         _______ _______ _______ _____ _____    ______ ____
ROOT
ATOM      1  C   UNL     1       7.939  -3.028  22.781  0.00  0.00    +0.179 C 
ATOM      2  C   UNL     1       8.503  -1.710  22.281  0.00  0.00    +0.205 C 
ATOM      3  C   UNL     1       8.542  -0.869  23.567  0.00  0.00    +0.244 C 
ATOM      4  C   UNL     1       8.242   0.604  23.219  0.00  0.00    +0.274 C 
ATOM      5  O   UNL     1       7.168   1.064  22.857  0.00  0.00    -0.270 OA
ATOM      6  N   UNL     1       9.392   1.314  23.388  0.00  0.00    -0.236 N 
ATOM      7  H   UNL     1       9.465   2.308  23.275  0.00  0.00    +0.159 HD
ATOM      8  C   UNL     1      10.323   0.555  24.012  0.00  0.00    +0.308 C 
ATOM      9  O   UNL     1      11.384   0.952  24.458  0.00  0.00    -0.252 OA
ATOM     10  N   UNL     1       9.860  -0.734  24.123  0.00  0.00    -0.261 N 
ATOM     11  H   UNL     1      10.295  -1.388  24.759  0.00  0.00    +0.154 HD
ATOM     12  O   UNL     1       7.707  -1.468  24.543  0.00  0.00    -0.338 OA
ATOM     13  C   UNL     1       7.020  -2.561  23.905  0.00  0.00    +0.179 C 
ENDROOT
BRANCH   1  14
ATOM     14  O   UNL     1       7.228  -3.721  21.764  0.00  0.00    -0.386 OA
ATOM     15  H   UNL     1       7.507  -4.653  21.774  0.00  0.00    +0.210 HD
ENDBRANCH   1  14
BRANCH   2  16
ATOM     16  O   UNL     1       9.782  -1.884  21.657  0.00  0.00    -0.384 OA
ATOM     17  H   UNL     1       9.636  -2.301  20.787  0.00  0.00    +0.210 HD
ENDBRANCH   2  16
BRANCH  13  18
ATOM     18  C   UNL     1       6.718  -3.659  24.917  0.00  0.00    +0.206 C 
BRANCH  18  19
ATOM     19  O   UNL     1       7.648  -4.715  24.728  0.00  0.00    -0.284 OA
BRANCH  19  20
ATOM     20  P   UNL     1       8.858  -4.846  25.763  0.00  0.00    +0.472 P 
ATOM     21  O   UNL     1      10.199  -5.076  25.162  0.00  0.00    -0.228 OA
BRANCH  20  22
ATOM     22  O   UNL     1       8.342  -5.954  26.780  0.00  0.00    -0.303 OA
ATOM     23  H   UNL     1       8.830  -6.792  26.723  0.00  0.00    +0.222 HD
ENDBRANCH  20  22
BRANCH  20  24
ATOM     24  O   UNL     1       8.699  -3.491  26.587  0.00  0.00    -0.303 OA
ATOM     25  H   UNL     1       8.067  -2.882  26.169  0.00  0.00    +0.222 HD
ENDBRANCH  20  24
ENDBRANCH  19  20
ENDBRANCH  18  19
ENDBRANCH  13  18
TORSDOF 7
ENDMDL
MODEL 5
REMARK VINA RESULT:      -5.7      2.179      3.328
REMARK  Name = 
REMARK  7 active torsions:
REMARK  status: ('A' for Active; 'I' for Inactive)
REMARK    1  A    between atoms: O_1  and  C_2
REMARK    2  A    between atoms: C_4  and  C_6
REMARK    3  A    between atoms: C_6  and  O_7
REMARK    4  A    between atoms: O_7  and  P_8
REMARK    5  A    between atoms: P_8  and  O_9
REMARK    6  A    between atoms: P_8  and  O_10
REMARK    7  A    between atoms: C_20  and  O_22
REMARK                            x       y       z     vdW  Elec       q    Type
REMARK                         _______ _______ _______ _____ _____    ______ ____
ROOT
ATOM      1  C   UNL     1       9.270  -1.302  23.966  0.00  0.00    +0.179 C 
ATOM      2  C   UNL     1       8.866  -2.689  24.434  0.00  0.00    +0.205 C 
ATOM      3  C   UNL     1       7.625  -2.970  23.572  0.00  0.00    +0.244 C 
ATOM      4  C   UNL     1       6.617  -3.803  24.391  0.00  0.00    +0.274 C 
ATOM      5  O   UNL     1       5.961  -3.419  25.349  0.00  0.00    -0.270 OA
ATOM      6  N   UNL     1       6.579  -5.055  23.856  0.00  0.00    -0.236 N 
ATOM      7  H   UNL     1       5.969  -5.787  24.169  0.00  0.00    +0.159 HD
ATOM      8  C   UNL     1       7.243  -5.080  22.676  0.00  0.00    +0.308 C 
ATOM      9  O   UNL     1       7.243  -5.997  21.876  0.00  0.00    -0.252 OA
ATOM     10  N   UNL     1       7.876  -3.875  22.485  0.00  0.00    -0.261 N 
ATOM     11  H   UNL     1       8.221  -3.609  21.573  0.00  0.00    +0.154 HD
ATOM     12  O   UNL     1       7.144  -1.751  23.033  0.00  0.00    -0.338 OA
ATOM     13  C   UNL     1       7.917  -0.688  23.623  0.00  0.00    +0.179 C 
ENDROOT
BRANCH   1  14
ATOM     14  O   UNL     1       9.944  -0.574  24.984  0.00  0.00    -0.386 OA
ATOM     15  H   UNL     1      10.444   0.148  24.566  0.00  0.00    +0.210 HD
ENDBRANCH   1  14
BRANCH   2  16
ATOM     16  O   UNL     1       9.927  -3.637  24.259  0.00  0.00    -0.384 OA
ATOM     17  H   UNL     1       9.612  -4.329  23.649  0.00  0.00    +0.210 HD
ENDBRANCH   2  16
BRANCH  13  18
ATOM     18  C   UNL     1       8.027   0.485  22.658  0.00  0.00    +0.206 C 
BRANCH  18  19
ATOM     19  O   UNL     1       8.354   1.650  23.400  0.00  0.00    -0.284 OA
BRANCH  19  20
ATOM     20  P   UNL     1       9.715   2.410  23.045  0.00  0.00    +0.472 P 
ATOM     21  O   UNL     1      10.885   2.069  23.898  0.00  0.00    -0.228 OA
BRANCH  20  22
ATOM     22  O   UNL     1       9.277   3.938  23.027  0.00  0.00    -0.303 OA
ATOM     23  H   UNL     1       8.321   4.068  22.914  0.00  0.00    +0.222 HD
ENDBRANCH  20  22
BRANCH  20  24
ATOM     24  O   UNL     1       9.866   2.054  21.499  0.00  0.00    -0.303 OA
ATOM     25  H   UNL     1      10.178   1.143  21.364  0.00  0.00    +0.222 HD
ENDBRANCH  20  24
ENDBRANCH  19  20
ENDBRANCH  18  19
ENDBRANCH  13  18
TORSDOF 7
ENDMDL
MODEL 6
REMARK VINA RESULT:      -5.7      3.750      6.699
REMARK  Name = 
REMARK  7 active torsions:
REMARK  status: ('A' for Active; 'I' for Inactive)
REMARK    1  A    between atoms: O_1  and  C_2
REMARK    2  A    between atoms: C_4  and  C_6
REMARK    3  A    between atoms: C_6  and  O_7
REMARK    4  A    between atoms: O_7  and  P_8
REMARK    5  A    between atoms: P_8  and  O_9
REMARK    6  A    between atoms: P_8  and  O_10
REMARK    7  A    between atoms: C_20  and  O_22
REMARK                            x       y       z     vdW  Elec       q    Type
REMARK                         _______ _______ _______ _____ _____    ______ ____
ROOT
ATOM      1  C   UNL     1       9.962  -0.121  22.454  0.00  0.00    +0.179 C 
ATOM      2  C   UNL     1       9.308   1.199  22.084  0.00  0.00    +0.205 C 
ATOM      3  C   UNL     1       8.746   1.668  23.436  0.00  0.00    +0.244 C 
ATOM      4  C   UNL     1       7.418   2.419  23.200  0.00  0.00    +0.274 C 
ATOM      5  O   UNL     1       6.357   1.929  22.842  0.00  0.00    -0.270 OA
ATOM      6  N   UNL     1       7.633   3.737  23.467  0.00  0.00    -0.236 N 
ATOM      7  H   UNL     1       6.921   4.444  23.439  0.00  0.00    +0.159 HD
ATOM      8  C   UNL     1       8.839   3.906  24.057  0.00  0.00    +0.308 C 
ATOM      9  O   UNL     1       9.246   4.932  24.570  0.00  0.00    -0.252 OA
ATOM     10  N   UNL     1       9.522   2.713  24.045  0.00  0.00    -0.261 N 
ATOM     11  H   UNL     1      10.327   2.571  24.640  0.00  0.00    +0.154 HD
ATOM     12  O   UNL     1       8.699   0.570  24.330  0.00  0.00    -0.338 OA
ATOM     13  C   UNL     1       9.056  -0.607  23.581  0.00  0.00    +0.179 C 
ENDROOT
BRANCH   1  14
ATOM     14  O   UNL     1       9.986  -1.027  21.359  0.00  0.00    -0.386 OA
ATOM     15  H   UNL     1      10.911  -1.257  21.170  0.00  0.00    +0.210 HD
ENDBRANCH   1  14
BRANCH   2  16
ATOM     16  O   UNL     1      10.245   2.108  21.492  0.00  0.00    -0.384 OA
ATOM     17  H   UNL     1       9.821   2.505  20.709  0.00  0.00    +0.210 HD
ENDBRANCH   2  16
BRANCH  13  18
ATOM     18  C   UNL     1       9.735  -1.625  24.488  0.00  0.00    +0.206 C 
BRANCH  18  19
ATOM     19  O   UNL     1       9.672  -2.898  23.862  0.00  0.00    -0.284 OA
BRANCH  19  20
ATOM     20  P   UNL     1       9.092  -4.125  24.708  0.00  0.00    +0.472 P 
ATOM     21  O   UNL     1       8.304  -3.759  25.916  0.00  0.00    -0.228 OA
BRANCH  20  22
ATOM     22  O   UNL     1      10.376  -5.031  24.951  0.00  0.00    -0.303 OA
ATOM     23  H   UNL     1      11.180  -4.521  25.146  0.00  0.00    +0.222 HD
ENDBRANCH  20  22
BRANCH  20  24
ATOM     24  O   UNL     1       8.293  -4.918  23.581  0.00  0.00    -0.303 OA
ATOM     25  H   UNL     1       7.685  -5.577  23.960  0.00  0.00    +0.222 HD
ENDBRANCH  20  24
ENDBRANCH  19  20
ENDBRANCH  18  19
ENDBRANCH  13  18
TORSDOF 7
ENDMDL
MODEL 7
REMARK VINA RESULT:      -5.6      4.161      6.881
REMARK  Name = 
REMARK  7 active torsions:
REMARK  status: ('A' for Active; 'I' for Inactive)
REMARK    1  A    between atoms: O_1  and  C_2
REMARK    2  A    between atoms: C_4  and  C_6
REMARK    3  A    between atoms: C_6  and  O_7
REMARK    4  A    between atoms: O_7  and  P_8
REMARK    5  A    between atoms: P_8  and  O_9
REMARK    6  A    between atoms: P_8  and  O_10
REMARK    7  A    between atoms: C_20  and  O_22
REMARK                            x       y       z     vdW  Elec       q    Type
REMARK                         _______ _______ _______ _____ _____    ______ ____
ROOT
ATOM      1  C   UNL     1       7.563   1.268  22.892  0.00  0.00    +0.179 C 
ATOM      2  C   UNL     1       7.943   2.737  22.828  0.00  0.00    +0.205 C 
ATOM      3  C   UNL     1       9.095   2.814  23.843  0.00  0.00    +0.244 C 
ATOM      4  C   UNL     1       9.051   4.182  24.557  0.00  0.00    +0.274 C 
ATOM      5  O   UNL     1       8.212   4.557  25.363  0.00  0.00    -0.270 OA
ATOM      6  N   UNL     1      10.122   4.908  24.132  0.00  0.00    -0.236 N 
ATOM      7  H   UNL     1      10.361   5.820  24.475  0.00  0.00    +0.159 HD
ATOM      8  C   UNL     1      10.970   4.123  23.426  0.00  0.00    +0.308 C 
ATOM      9  O   UNL     1      12.091   4.429  23.063  0.00  0.00    -0.252 OA
ATOM     10  N   UNL     1      10.392   2.892  23.230  0.00  0.00    -0.261 N 
ATOM     11  H   UNL     1      10.949   2.099  22.939  0.00  0.00    +0.154 HD
ATOM     12  O   UNL     1       9.064   1.668  24.675  0.00  0.00    -0.338 OA
ATOM     13  C   UNL     1       7.868   0.936  24.349  0.00  0.00    +0.179 C 
ENDROOT
BRANCH   1  14
ATOM     14  O   UNL     1       6.194   1.059  22.571  0.00  0.00    -0.386 OA
ATOM     15  H   UNL     1       6.105   1.035  21.603  0.00  0.00    +0.210 HD
ENDBRANCH   1  14
BRANCH   2  16
ATOM     16  O   UNL     1       8.306   3.133  21.499  0.00  0.00    -0.384 OA
ATOM     17  H   UNL     1       7.527   3.555  21.090  0.00  0.00    +0.210 HD
ENDBRANCH   2  16
BRANCH  13  18
ATOM     18  C   UNL     1       8.079  -0.555  24.584  0.00  0.00    +0.206 C 
BRANCH  18  19
ATOM     19  O   UNL     1       8.379  -1.169  23.340  0.00  0.00    -0.284 OA
BRANCH  19  20
ATOM     20  P   UNL     1       9.883  -1.645  23.079  0.00  0.00    +0.472 P 
ATOM     21  O   UNL     1      10.292  -2.898  23.770  0.00  0.00    -0.228 OA
BRANCH  20  22
ATOM     22  O   UNL     1      10.734  -0.345  23.416  0.00  0.00    -0.303 OA
ATOM     23  H   UNL     1      10.216   0.360  23.839  0.00  0.00    +0.222 HD
ENDBRANCH  20  22
BRANCH  20  24
ATOM     24  O   UNL     1       9.912  -1.698  21.487  0.00  0.00    -0.303 OA
ATOM     25  H   UNL     1       9.991  -0.812  21.094  0.00  0.00    +0.222 HD
ENDBRANCH  20  24
ENDBRANCH  19  20
ENDBRANCH  18  19
ENDBRANCH  13  18
TORSDOF 7
ENDMDL
MODEL 8
REMARK VINA RESULT:      -5.6      3.424      4.926
REMARK  Name = 
REMARK  7 active torsions:
REMARK  status: ('A' for Active; 'I' for Inactive)
REMARK    1  A    between atoms: O_1  and  C_2
REMARK    2  A    between atoms: C_4  and  C_6
REMARK    3  A    between atoms: C_6  and  O_7
REMARK    4  A    between atoms: O_7  and  P_8
REMARK    5  A    between atoms: P_8  and  O_9
REMARK    6  A    between atoms: P_8  and  O_10
REMARK    7  A    between atoms: C_20  and  O_22
REMARK                            x       y       z     vdW  Elec       q    Type
REMARK                         _______ _______ _______ _____ _____    ______ ____
ROOT
ATOM      1  C   UNL     1       8.846   2.019  22.751  0.00  0.00    +0.179 C 
ATOM      2  C   UNL     1       8.490   0.544  22.706  0.00  0.00    +0.205 C 
ATOM      3  C   UNL     1       9.524  -0.065  23.668  0.00  0.00    +0.244 C 
ATOM      4  C   UNL     1       9.926  -1.465  23.159  0.00  0.00    +0.274 C 
ATOM      5  O   UNL     1      10.589  -1.717  22.163  0.00  0.00    -0.270 OA
ATOM      6  N   UNL     1       9.413  -2.385  24.023  0.00  0.00    -0.236 N 
ATOM      7  H   UNL     1       9.566  -3.374  23.954  0.00  0.00    +0.159 HD
ATOM      8  C   UNL     1       8.937  -1.771  25.132  0.00  0.00    +0.308 C 
ATOM      9  O   UNL     1       8.577  -2.324  26.155  0.00  0.00    -0.252 OA
ATOM     10  N   UNL     1       8.978  -0.409  24.951  0.00  0.00    -0.261 N 
ATOM     11  H   UNL     1       8.893   0.221  25.737  0.00  0.00    +0.154 HD
ATOM     12  O   UNL     1      10.579   0.860  23.867  0.00  0.00    -0.338 OA
ATOM     13  C   UNL     1      10.354   1.965  22.970  0.00  0.00    +0.179 C 
ENDROOT
BRANCH   1  14
ATOM     14  O   UNL     1       8.506   2.684  21.542  0.00  0.00    -0.386 OA
ATOM     15  H   UNL     1       8.192   2.021  20.903  0.00  0.00    +0.210 HD
ENDBRANCH   1  14
BRANCH   2  16
ATOM     16  O   UNL     1       7.128   0.315  23.090  0.00  0.00    -0.384 OA
ATOM     17  H   UNL     1       7.065   0.439  24.056  0.00  0.00    +0.210 HD
ENDBRANCH   2  16
BRANCH  13  18
ATOM     18  C   UNL     1      10.913   3.251  23.565  0.00  0.00    +0.206 C 
BRANCH  18  19
ATOM     19  O   UNL     1       9.827   4.052  24.007  0.00  0.00    -0.284 OA
BRANCH  19  20
ATOM     20  P   UNL     1       9.868   5.618  23.687  0.00  0.00    +0.472 P 
ATOM     21  O   UNL     1       9.746   6.520  24.864  0.00  0.00    -0.228 OA
BRANCH  20  22
ATOM     22  O   UNL     1       8.765   5.782  22.555  0.00  0.00    -0.303 OA
ATOM     23  H   UNL     1       7.891   6.034  22.897  0.00  0.00    +0.222 HD
ENDBRANCH  20  22
BRANCH  20  24
ATOM     24  O   UNL     1      11.239   5.725  22.880  0.00  0.00    -0.303 OA
ATOM     25  H   UNL     1      11.915   6.220  23.374  0.00  0.00    +0.222 HD
ENDBRANCH  20  24
ENDBRANCH  19  20
ENDBRANCH  18  19
ENDBRANCH  13  18
TORSDOF 7
ENDMDL
MODEL 9
REMARK VINA RESULT:      -5.6      3.260      5.855
REMARK  Name = 
REMARK  7 active torsions:
REMARK  status: ('A' for Active; 'I' for Inactive)
REMARK    1  A    between atoms: O_1  and  C_2
REMARK    2  A    between atoms: C_4  and  C_6
REMARK    3  A    between atoms: C_6  and  O_7
REMARK    4  A    between atoms: O_7  and  P_8
REMARK    5  A    between atoms: P_8  and  O_9
REMARK    6  A    between atoms: P_8  and  O_10
REMARK    7  A    between atoms: C_20  and  O_22
REMARK                            x       y       z     vdW  Elec       q    Type
REMARK                         _______ _______ _______ _____ _____    ______ ____
ROOT
ATOM      1  C   UNL     1       5.635  -6.085  23.866  0.00  0.00    +0.179 C 
ATOM      2  C   UNL     1       6.448  -5.234  22.906  0.00  0.00    +0.205 C 
ATOM      3  C   UNL     1       6.893  -4.070  23.807  0.00  0.00    +0.244 C 
ATOM      4  C   UNL     1       6.943  -2.773  22.973  0.00  0.00    +0.274 C 
ATOM      5  O   UNL     1       5.988  -2.159  22.520  0.00  0.00    -0.270 OA
ATOM      6  N   UNL     1       8.251  -2.422  22.827  0.00  0.00    -0.236 N 
ATOM      7  H   UNL     1       8.567  -1.589  22.366  0.00  0.00    +0.159 HD
ATOM      8  C   UNL     1       9.031  -3.176  23.637  0.00  0.00    +0.308 C 
ATOM      9  O   UNL     1      10.212  -2.990  23.866  0.00  0.00    -0.252 OA
ATOM     10  N   UNL     1       8.266  -4.159  24.219  0.00  0.00    -0.261 N 
ATOM     11  H   UNL     1       8.602  -4.667  25.026  0.00  0.00    +0.154 HD
ATOM     12  O   UNL     1       6.082  -4.041  24.968  0.00  0.00    -0.338 OA
ATOM     13  C   UNL     1       5.046  -5.026  24.791  0.00  0.00    +0.179 C 
ENDROOT
BRANCH   1  14
ATOM     14  O   UNL     1       4.627  -6.828  23.194  0.00  0.00    -0.386 OA
ATOM     15  H   UNL     1       5.059  -7.452  22.586  0.00  0.00    +0.210 HD
ENDBRANCH   1  14
BRANCH   2  16
ATOM     16  O   UNL     1       7.531  -5.974  22.328  0.00  0.00    -0.384 OA
ATOM     17  H   UNL     1       7.206  -6.386  21.506  0.00  0.00    +0.210 HD
ENDBRANCH   2  16
BRANCH  13  18
ATOM     18  C   UNL     1       4.616  -5.590  26.139  0.00  0.00    +0.206 C 
BRANCH  18  19
ATOM     19  O   UNL     1       5.650  -6.435  26.624  0.00  0.00    -0.284 OA
BRANCH  19  20
ATOM     20  P   UNL     1       6.660  -5.839  27.710  0.00  0.00    +0.472 P 
ATOM     21  O   UNL     1       6.772  -6.610  28.978  0.00  0.00    -0.228 OA
BRANCH  20  22
ATOM     22  O   UNL     1       6.191  -4.326  27.844  0.00  0.00    -0.303 OA
ATOM     23  H   UNL     1       5.936  -3.921  26.998  0.00  0.00    +0.222 HD
ENDBRANCH  20  22
BRANCH  20  24
ATOM     24  O   UNL     1       7.998  -5.732  26.852  0.00  0.00    -0.303 OA
ATOM     25  H   UNL     1       7.815  -5.626  25.902  0.00  0.00    +0.222 HD
ENDBRANCH  20  24
ENDBRANCH  19  20
ENDBRANCH  18  19
ENDBRANCH  13  18
TORSDOF 7
ENDMDL
