MODEL 1
REMARK VINA RESULT:      -5.7      0.000      0.000
REMARK  Name = 
REMARK  17 active torsions:
REMARK  status: ('A' for Active; 'I' for Inactive)
REMARK    1  A    between atoms: C_1  and  C_2
REMARK    2  A    between atoms: C_5  and  C_6
REMARK    3  A    between atoms: C_6  and  O_7
REMARK    4  A    between atoms: O_7  and  P_8
REMARK    5  A    between atoms: P_8  and  O_9
REMARK    6  A    between atoms: P_8  and  O_10
REMARK    7  A    between atoms: C_12  and  C_13
REMARK    8  A    between atoms: C_13  and  N_14
REMARK    9  A    between atoms: N_14  and  C_15
REMARK   10  A    between atoms: C_15  and  C_16
REMARK   11  A    between atoms: C_16  and  C_17
REMARK   12  A    between atoms: C_17  and  C_18
REMARK   13  A    between atoms: C_18  and  C_19
REMARK   14  A    between atoms: C_19  and  N_21
REMARK   15  A    between atoms: C_19  and  C_22
REMARK   16  A    between atoms: C_22  and  O_23
REMARK   17  A    between atoms: C_25  and  O_26
REMARK                            x       y       z     vdW  Elec       q    Type
REMARK                         _______ _______ _______ _____ _____    ______ ____
ROOT
ATOM      1  C   UNK     1       6.055  -5.949  21.296  0.00  0.00    +0.069 C 
ATOM      2  C   UNK     1       6.143  -4.886  22.349  0.00  0.00    +0.080 A 
ATOM      3  C   UNK     1       7.280  -4.753  23.146  0.00  0.00    +0.142 A 
ATOM      4  C   UNK     1       7.366  -3.711  24.092  0.00  0.00    +0.016 A 
ATOM      5  C   UNK     1       6.231  -2.890  24.259  0.00  0.00    +0.005 A 
ATOM      6  C   UNK     1       5.147  -3.097  23.400  0.00  0.00    +0.117 A 
ATOM      7  N   UNK     1       5.080  -4.055  22.454  0.00  0.00    -0.256 NA
ENDROOT
BRANCH   3   8
ATOM      8  O   UNK     1       8.298  -5.654  22.978  0.00  0.00    -0.505 OA
ATOM      9  H   UNK     1       8.804  -5.374  22.184  0.00  0.00    +0.292 HD
ENDBRANCH   3   8
BRANCH   5  10
ATOM     10  C   UNK     1       6.143  -1.792  25.287  0.00  0.00    +0.209 C 
BRANCH  10  11
ATOM     11  O   UNK     1       5.416  -0.710  24.739  0.00  0.00    -0.282 OA
BRANCH  11  12
ATOM     12  P   UNK     1       6.217   0.622  24.383  0.00  0.00    +0.473 P 
ATOM     13  O   UNK     1       5.551   1.902  24.755  0.00  0.00    -0.228 OA
BRANCH  12  14
ATOM     14  O   UNK     1       7.632   0.346  25.069  0.00  0.00    -0.303 OA
ATOM     15  H   UNK     1       7.628  -0.424  25.661  0.00  0.00    +0.222 HD
ENDBRANCH  12  14
BRANCH  12  16
ATOM     16  O   UNK     1       6.524   0.384  22.837  0.00  0.00    -0.303 OA
ATOM     17  H   UNK     1       5.888  -0.232  22.436  0.00  0.00    +0.222 HD
ENDBRANCH  12  16
ENDBRANCH  11  12
ENDBRANCH  10  11
ENDBRANCH   5  10
BRANCH   4  18
ATOM     18  C   UNK     1       8.599  -3.510  24.953  0.00  0.00    +0.120 C 
BRANCH  18  19
ATOM     19  N   UNK     1       9.811  -3.271  24.150  0.00  0.00    -0.312 NA
ATOM     20  H   UNK     1       9.785  -3.904  23.344  0.00  0.00    +0.122 HD
BRANCH  19  21
ATOM     21  C   UNK     1       9.838  -1.893  23.653  0.00  0.00    +0.081 C 
BRANCH  21  22
ATOM     22  C   UNK     1       9.561  -1.881  22.148  0.00  0.00    +0.015 C 
BRANCH  22  23
ATOM     23  C   UNK     1       9.599  -0.451  21.607  0.00  0.00    +0.003 C 
BRANCH  23  24
ATOM     24  C   UNK     1      10.167   0.531  22.636  0.00  0.00    +0.030 C 
BRANCH  24  25
ATOM     25  C   UNK     1      10.010   1.999  22.218  0.00  0.00    +0.161 C 
BRANCH  25  26
ATOM     26  N   UNK     1       8.729   2.225  21.491  0.00  0.00    -0.318 NA
ATOM     27  H   UNK     1       8.630   3.237  21.343  0.00  0.00    +0.119 HD
ATOM     28  H   UNK     1       8.828   1.852  20.543  0.00  0.00    +0.119 HD
ENDBRANCH  25  26
BRANCH  25  29
ATOM     29  C   UNK     1      10.004   2.878  23.477  0.00  0.00    +0.322 C 
ATOM     30  O   UNK     1       9.389   2.632  24.502  0.00  0.00    -0.249 OA
BRANCH  29  31
ATOM     31  O   UNK     1      10.759   3.995  23.300  0.00  0.00    -0.480 OA
ATOM     32  H   UNK     1      10.382   4.682  23.905  0.00  0.00    +0.295 HD
ENDBRANCH  29  31
ENDBRANCH  25  29
ENDBRANCH  24  25
ENDBRANCH  23  24
ENDBRANCH  22  23
ENDBRANCH  21  22
ENDBRANCH  19  21
ENDBRANCH  18  19
ENDBRANCH   4  18
TORSDOF 16
ENDMDL
MODEL 2
REMARK VINA RESULT:      -5.6      2.718      4.908
REMARK  Name = 
REMARK  17 active torsions:
REMARK  status: ('A' for Active; 'I' for Inactive)
REMARK    1  A    between atoms: C_1  and  C_2
REMARK    2  A    between atoms: C_5  and  C_6
REMARK    3  A    between atoms: C_6  and  O_7
REMARK    4  A    between atoms: O_7  and  P_8
REMARK    5  A    between atoms: P_8  and  O_9
REMARK    6  A    between atoms: P_8  and  O_10
REMARK    7  A    between atoms: C_12  and  C_13
REMARK    8  A    between atoms: C_13  and  N_14
REMARK    9  A    between atoms: N_14  and  C_15
REMARK   10  A    between atoms: C_15  and  C_16
REMARK   11  A    between atoms: C_16  and  C_17
REMARK   12  A    between atoms: C_17  and  C_18
REMARK   13  A    between atoms: C_18  and  C_19
REMARK   14  A    between atoms: C_19  and  N_21
REMARK   15  A    between atoms: C_19  and  C_22
REMARK   16  A    between atoms: C_22  and  O_23
REMARK   17  A    between atoms: C_25  and  O_26
REMARK                            x       y       z     vdW  Elec       q    Type
REMARK                         _______ _______ _______ _____ _____    ______ ____
ROOT
ATOM      1  C   UNK     1       6.844   2.389  25.785  0.00  0.00    +0.069 C 
ATOM      2  C   UNK     1       6.995   0.901  25.873  0.00  0.00    +0.080 A 
ATOM      3  C   UNK     1       6.298   0.053  25.011  0.00  0.00    +0.142 A 
ATOM      4  C   UNK     1       6.496  -1.341  25.072  0.00  0.00    +0.016 A 
ATOM      5  C   UNK     1       7.336  -1.833  26.093  0.00  0.00    +0.005 A 
ATOM      6  C   UNK     1       7.998  -0.900  26.896  0.00  0.00    +0.117 A 
ATOM      7  N   UNK     1       7.859   0.438  26.806  0.00  0.00    -0.256 NA
ENDROOT
BRANCH   3   8
ATOM      8  O   UNK     1       5.432   0.615  24.111  0.00  0.00    -0.505 OA
ATOM      9  H   UNK     1       4.808  -0.090  23.830  0.00  0.00    +0.292 HD
ENDBRANCH   3   8
BRANCH   5  10
ATOM     10  C   UNK     1       7.576  -3.301  26.337  0.00  0.00    +0.209 C 
BRANCH  10  11
ATOM     11  O   UNK     1       8.812  -3.664  25.754  0.00  0.00    -0.282 OA
BRANCH  11  12
ATOM     12  P   UNK     1       8.989  -5.169  25.258  0.00  0.00    +0.473 P 
ATOM     13  O   UNK     1       8.500  -5.463  23.881  0.00  0.00    -0.228 OA
BRANCH  12  14
ATOM     14  O   UNK     1      10.545  -5.418  25.514  0.00  0.00    -0.303 OA
ATOM     15  H   UNK     1      11.116  -4.776  25.060  0.00  0.00    +0.222 HD
ENDBRANCH  12  14
BRANCH  12  16
ATOM     16  O   UNK     1       8.304  -5.965  26.458  0.00  0.00    -0.303 OA
ATOM     17  H   UNK     1       7.638  -6.595  26.135  0.00  0.00    +0.222 HD
ENDBRANCH  12  16
ENDBRANCH  11  12
ENDBRANCH  10  11
ENDBRANCH   5  10
BRANCH   4  18
ATOM     18  C   UNK     1       5.785  -2.294  24.129  0.00  0.00    +0.120 C 
BRANCH  18  19
ATOM     19  N   UNK     1       6.110  -2.030  22.717  0.00  0.00    -0.312 NA
ATOM     20  H   UNK     1       6.277  -1.023  22.614  0.00  0.00    +0.122 HD
BRANCH  19  21
ATOM     21  C   UNK     1       7.328  -2.742  22.324  0.00  0.00    +0.081 C 
BRANCH  21  22
ATOM     22  C   UNK     1       8.401  -1.737  21.901  0.00  0.00    +0.015 C 
BRANCH  22  23
ATOM     23  C   UNK     1       9.449  -1.574  23.004  0.00  0.00    +0.003 C 
BRANCH  23  24
ATOM     24  C   UNK     1      10.298  -0.317  22.800  0.00  0.00    +0.030 C 
BRANCH  24  25
ATOM     25  C   UNK     1       9.848   0.862  23.672  0.00  0.00    +0.161 C 
BRANCH  25  26
ATOM     26  N   UNK     1      10.483   0.817  25.020  0.00  0.00    -0.318 NA
ATOM     27  H   UNK     1       9.765   1.068  25.711  0.00  0.00    +0.119 HD
ATOM     28  H   UNK     1      10.698  -0.159  25.240  0.00  0.00    +0.119 HD
ENDBRANCH  25  26
BRANCH  25  29
ATOM     29  C   UNK     1      10.268   2.174  22.993  0.00  0.00    +0.322 C 
ATOM     30  O   UNK     1      10.658   3.173  23.575  0.00  0.00    -0.249 OA
BRANCH  29  31
ATOM     31  O   UNK     1      10.125   2.095  21.642  0.00  0.00    -0.480 OA
ATOM     32  H   UNK     1      10.313   1.155  21.399  0.00  0.00    +0.295 HD
ENDBRANCH  29  31
ENDBRANCH  25  29
ENDBRANCH  24  25
ENDBRANCH  23  24
ENDBRANCH  22  23
ENDBRANCH  21  22
ENDBRANCH  19  21
ENDBRANCH  18  19
ENDBRANCH   4  18
TORSDOF 16
ENDMDL
MODEL 3
REMARK VINA RESULT:      -5.6      3.168      4.452
REMARK  Name = 
REMARK  17 active torsions:
REMARK  status: ('A' for Active; 'I' for Inactive)
REMARK    1  A    between atoms: C_1  and  C_2
REMARK    2  A    between atoms: C_5  and  C_6
REMARK    3  A    between atoms: C_6  and  O_7
REMARK    4  A    between atoms: O_7  and  P_8
REMARK    5  A    between atoms: P_8  and  O_9
REMARK    6  A    between atoms: P_8  and  O_10
REMARK    7  A    between atoms: C_12  and  C_13
REMARK    8  A    between atoms: C_13  and  N_14
REMARK    9  A    between atoms: N_14  and  C_15
REMARK   10  A    between atoms: C_15  and  C_16
REMARK   11  A    between atoms: C_16  and  C_17
REMARK   12  A    between atoms: C_17  and  C_18
REMARK   13  A    between atoms: C_18  and  C_19
REMARK   14  A    between atoms: C_19  and  N_21
REMARK   15  A    between atoms: C_19  and  C_22
REMARK   16  A    between atoms: C_22  and  O_23
REMARK   17  A    between atoms: C_25  and  O_26
REMARK                            x       y       z     vdW  Elec       q    Type
REMARK                         _______ _______ _______ _____ _____    ______ ____
ROOT
ATOM      1  C   UNK     1      10.098  -5.240  25.800  0.00  0.00    +0.069 C 
ATOM      2  C   UNK     1       8.702  -4.911  25.365  0.00  0.00    +0.080 A 
ATOM      3  C   UNK     1       8.463  -3.992  24.343  0.00  0.00    +0.142 A 
ATOM      4  C   UNK     1       7.147  -3.738  23.910  0.00  0.00    +0.016 A 
ATOM      5  C   UNK     1       6.099  -4.368  24.613  0.00  0.00    +0.005 A 
ATOM      6  C   UNK     1       6.445  -5.283  25.612  0.00  0.00    +0.117 A 
ATOM      7  N   UNK     1       7.705  -5.575  25.993  0.00  0.00    -0.256 NA
ENDROOT
BRANCH   3   8
ATOM      8  O   UNK     1       9.539  -3.357  23.779  0.00  0.00    -0.505 OA
ATOM      9  H   UNK     1       9.316  -2.401  23.726  0.00  0.00    +0.292 HD
ENDBRANCH   3   8
BRANCH   5  10
ATOM     10  C   UNK     1       4.639  -4.130  24.321  0.00  0.00    +0.209 C 
BRANCH  10  11
ATOM     11  O   UNK     1       3.927  -5.330  24.544  0.00  0.00    -0.282 OA
BRANCH  11  12
ATOM     12  P   UNK     1       3.315  -6.080  23.277  0.00  0.00    +0.473 P 
ATOM     13  O   UNK     1       2.011  -5.559  22.777  0.00  0.00    -0.228 OA
BRANCH  12  14
ATOM     14  O   UNK     1       4.532  -6.023  22.244  0.00  0.00    -0.303 OA
ATOM     15  H   UNK     1       4.695  -5.132  21.892  0.00  0.00    +0.222 HD
ENDBRANCH  12  14
BRANCH  12  16
ATOM     16  O   UNK     1       3.350  -7.594  23.777  0.00  0.00    -0.303 OA
ATOM     17  H   UNK     1       2.880  -7.703  24.620  0.00  0.00    +0.222 HD
ENDBRANCH  12  16
ENDBRANCH  11  12
ENDBRANCH  10  11
ENDBRANCH   5  10
BRANCH   4  18
ATOM     18  C   UNK     1       6.848  -2.772  22.778  0.00  0.00    +0.120 C 
BRANCH  18  19
ATOM     19  N   UNK     1       7.325  -1.409  23.063  0.00  0.00    -0.312 NA
ATOM     20  H   UNK     1       7.323  -0.883  22.183  0.00  0.00    +0.122 HD
BRANCH  19  21
ATOM     21  C   UNK     1       6.429  -0.734  24.005  0.00  0.00    +0.081 C 
BRANCH  21  22
ATOM     22  C   UNK     1       7.219   0.283  24.832  0.00  0.00    +0.015 C 
BRANCH  22  23
ATOM     23  C   UNK     1       8.681  -0.148  24.958  0.00  0.00    +0.003 C 
BRANCH  23  24
ATOM     24  C   UNK     1       9.640   0.961  24.517  0.00  0.00    +0.030 C 
BRANCH  24  25
ATOM     25  C   UNK     1      10.358   0.647  23.198  0.00  0.00    +0.161 C 
BRANCH  25  26
ATOM     26  N   UNK     1      10.361  -0.816  22.913  0.00  0.00    -0.318 NA
ATOM     27  H   UNK     1      11.293  -1.177  23.149  0.00  0.00    +0.119 HD
ATOM     28  H   UNK     1       9.746  -1.275  23.590  0.00  0.00    +0.119 HD
ENDBRANCH  25  26
BRANCH  25  29
ATOM     29  C   UNK     1       9.623   1.354  22.050  0.00  0.00    +0.322 C 
ATOM     30  O   UNK     1       8.551   1.006  21.583  0.00  0.00    -0.249 OA
BRANCH  29  31
ATOM     31  O   UNK     1      10.335   2.419  21.592  0.00  0.00    -0.480 OA
ATOM     32  H   UNK     1      10.317   3.095  22.314  0.00  0.00    +0.295 HD
ENDBRANCH  29  31
ENDBRANCH  25  29
ENDBRANCH  24  25
ENDBRANCH  23  24
ENDBRANCH  22  23
ENDBRANCH  21  22
ENDBRANCH  19  21
ENDBRANCH  18  19
ENDBRANCH   4  18
TORSDOF 16
ENDMDL
MODEL 4
REMARK VINA RESULT:      -5.5      2.702      6.375
REMARK  Name = 
REMARK  17 active torsions:
REMARK  status: ('A' for Active; 'I' for Inactive)
REMARK    1  A    between atoms: C_1  and  C_2
REMARK    2  A    between atoms: C_5  and  C_6
REMARK    3  A    between atoms: C_6  and  O_7
REMARK    4  A    between atoms: O_7  and  P_8
REMARK    5  A    between atoms: P_8  and  O_9
REMARK    6  A    between atoms: P_8  and  O_10
REMARK    7  A    between atoms: C_12  and  C_13
REMARK    8  A    between atoms: C_13  and  N_14
REMARK    9  A    between atoms: N_14  and  C_15
REMARK   10  A    between atoms: C_15  and  C_16
REMARK   11  A    between atoms: C_16  and  C_17
REMARK   12  A    between atoms: C_17  and  C_18
REMARK   13  A    between atoms: C_18  and  C_19
REMARK   14  A    between atoms: C_19  and  N_21
REMARK   15  A    between atoms: C_19  and  C_22
REMARK   16  A    between atoms: C_22  and  O_23
REMARK   17  A    between atoms: C_25  and  O_26
REMARK                            x       y       z     vdW  Elec       q    Type
REMARK                         _______ _______ _______ _____ _____    ______ ____
ROOT
ATOM      1  C   UNK     1      10.141   1.839  21.903  0.00  0.00    +0.069 C 
ATOM      2  C   UNK     1       9.334   0.622  22.240  0.00  0.00    +0.080 A 
ATOM      3  C   UNK     1       8.253   0.695  23.120  0.00  0.00    +0.142 A 
ATOM      4  C   UNK     1       7.472  -0.448  23.381  0.00  0.00    +0.016 A 
ATOM      5  C   UNK     1       7.888  -1.665  22.801  0.00  0.00    +0.005 A 
ATOM      6  C   UNK     1       8.975  -1.629  21.922  0.00  0.00    +0.117 A 
ATOM      7  N   UNK     1       9.693  -0.527  21.623  0.00  0.00    -0.256 NA
ENDROOT
BRANCH   3   8
ATOM      8  O   UNK     1       7.978   1.900  23.710  0.00  0.00    -0.505 OA
ATOM      9  H   UNK     1       7.833   2.550  22.988  0.00  0.00    +0.292 HD
ENDBRANCH   3   8
BRANCH   5  10
ATOM     10  C   UNK     1       7.205  -2.985  23.055  0.00  0.00    +0.209 C 
BRANCH  10  11
ATOM     11  O   UNK     1       6.555  -3.398  21.869  0.00  0.00    -0.282 OA
BRANCH  11  12
ATOM     12  P   UNK     1       6.057  -4.910  21.780  0.00  0.00    +0.473 P 
ATOM     13  O   UNK     1       6.083  -5.526  20.423  0.00  0.00    -0.228 OA
BRANCH  12  14
ATOM     14  O   UNK     1       6.963  -5.619  22.887  0.00  0.00    -0.303 OA
ATOM     15  H   UNK     1       6.936  -6.589  22.841  0.00  0.00    +0.222 HD
ENDBRANCH  12  14
BRANCH  12  16
ATOM     16  O   UNK     1       4.639  -4.803  22.502  0.00  0.00    -0.303 OA
ATOM     17  H   UNK     1       4.731  -4.531  23.431  0.00  0.00    +0.222 HD
ENDBRANCH  12  16
ENDBRANCH  11  12
ENDBRANCH  10  11
ENDBRANCH   5  10
BRANCH   4  18
ATOM     18  C   UNK     1       6.268  -0.403  24.303  0.00  0.00    +0.120 C 
BRANCH  18  19
ATOM     19  N   UNK     1       6.580   0.212  25.604  0.00  0.00    -0.312 NA
ATOM     20  H   UNK     1       5.755   0.735  25.912  0.00  0.00    +0.122 HD
BRANCH  19  21
ATOM     21  C   UNK     1       6.874  -0.817  26.605  0.00  0.00    +0.081 C 
BRANCH  21  22
ATOM     22  C   UNK     1       5.932  -2.008  26.413  0.00  0.00    +0.015 C 
BRANCH  22  23
ATOM     23  C   UNK     1       6.663  -3.322  26.698  0.00  0.00    +0.003 C 
BRANCH  23  24
ATOM     24  C   UNK     1       8.173  -3.189  26.487  0.00  0.00    +0.030 C 
BRANCH  24  25
ATOM     25  C   UNK     1       8.916  -4.528  26.589  0.00  0.00    +0.161 C 
BRANCH  25  26
ATOM     26  N   UNK     1       7.972  -5.658  26.815  0.00  0.00    -0.318 NA
ATOM     27  H   UNK     1       7.172  -5.527  26.184  0.00  0.00    +0.119 HD
ATOM     28  H   UNK     1       8.411  -6.516  26.471  0.00  0.00    +0.119 HD
ENDBRANCH  25  26
BRANCH  25  29
ATOM     29  C   UNK     1       9.662  -4.785  25.272  0.00  0.00    +0.322 C 
ATOM     30  O   UNK     1      10.049  -3.920  24.503  0.00  0.00    -0.249 OA
BRANCH  29  31
ATOM     31  O   UNK     1       9.820  -6.118  25.049  0.00  0.00    -0.480 OA
ATOM     32  H   UNK     1      10.736  -6.341  25.347  0.00  0.00    +0.295 HD
ENDBRANCH  29  31
ENDBRANCH  25  29
ENDBRANCH  24  25
ENDBRANCH  23  24
ENDBRANCH  22  23
ENDBRANCH  21  22
ENDBRANCH  19  21
ENDBRANCH  18  19
ENDBRANCH   4  18
TORSDOF 16
ENDMDL
MODEL 5
REMARK VINA RESULT:      -5.4      2.801      6.058
REMARK  Name = 
REMARK  17 active torsions:
REMARK  status: ('A' for Active; 'I' for Inactive)
REMARK    1  A    between atoms: C_1  and  C_2
REMARK    2  A    between atoms: C_5  and  C_6
REMARK    3  A    between atoms: C_6  and  O_7
REMARK    4  A    between atoms: O_7  and  P_8
REMARK    5  A    between atoms: P_8  and  O_9
REMARK    6  A    between atoms: P_8  and  O_10
REMARK    7  A    between atoms: C_12  and  C_13
REMARK    8  A    between atoms: C_13  and  N_14
REMARK    9  A    between atoms: N_14  and  C_15
REMARK   10  A    between atoms: C_15  and  C_16
REMARK   11  A    between atoms: C_16  and  C_17
REMARK   12  A    between atoms: C_17  and  C_18
REMARK   13  A    between atoms: C_18  and  C_19
REMARK   14  A    between atoms: C_19  and  N_21
REMARK   15  A    between atoms: C_19  and  C_22
REMARK   16  A    between atoms: C_22  and  O_23
REMARK   17  A    between atoms: C_25  and  O_26
REMARK                            x       y       z     vdW  Elec       q    Type
REMARK                         _______ _______ _______ _____ _____    ______ ____
ROOT
ATOM      1  C   UNK     1       6.020  -5.994  21.497  0.00  0.00    +0.069 C 
ATOM      2  C   UNK     1       6.473  -4.688  22.076  0.00  0.00    +0.080 A 
ATOM      3  C   UNK     1       7.616  -4.611  22.874  0.00  0.00    +0.142 A 
ATOM      4  C   UNK     1       8.059  -3.366  23.362  0.00  0.00    +0.016 A 
ATOM      5  C   UNK     1       7.251  -2.240  23.095  0.00  0.00    +0.005 A 
ATOM      6  C   UNK     1       6.134  -2.421  22.274  0.00  0.00    +0.117 A 
ATOM      7  N   UNK     1       5.736  -3.600  21.755  0.00  0.00    -0.256 NA
ENDROOT
BRANCH   3   8
ATOM      8  O   UNK     1       8.286  -5.772  23.158  0.00  0.00    -0.505 OA
ATOM      9  H   UNK     1       7.890  -6.142  23.977  0.00  0.00    +0.292 HD
ENDBRANCH   3   8
BRANCH   5  10
ATOM     10  C   UNK     1       7.549  -0.859  23.621  0.00  0.00    +0.209 C 
BRANCH  10  11
ATOM     11  O   UNK     1       7.845  -0.009  22.531  0.00  0.00    -0.282 OA
BRANCH  11  12
ATOM     12  P   UNK     1       9.374   0.167  22.117  0.00  0.00    +0.473 P 
ATOM     13  O   UNK     1      10.363   0.114  23.232  0.00  0.00    -0.228 OA
BRANCH  12  14
ATOM     14  O   UNK     1       9.538  -0.948  20.986  0.00  0.00    -0.303 OA
ATOM     15  H   UNK     1       8.735  -1.479  20.852  0.00  0.00    +0.222 HD
ENDBRANCH  12  14
BRANCH  12  16
ATOM     16  O   UNK     1       9.304   1.517  21.271  0.00  0.00    -0.303 OA
ATOM     17  H   UNK     1       8.389   1.743  21.034  0.00  0.00    +0.222 HD
ENDBRANCH  12  16
ENDBRANCH  11  12
ENDBRANCH  10  11
ENDBRANCH   5  10
BRANCH   4  18
ATOM     18  C   UNK     1       9.315  -3.235  24.202  0.00  0.00    +0.120 C 
BRANCH  18  19
ATOM     19  N   UNK     1       9.381  -4.244  25.272  0.00  0.00    -0.312 NA
ATOM     20  H   UNK     1      10.347  -4.276  25.617  0.00  0.00    +0.122 HD
BRANCH  19  21
ATOM     21  C   UNK     1       8.507  -3.873  26.388  0.00  0.00    +0.081 C 
BRANCH  21  22
ATOM     22  C   UNK     1       7.632  -5.067  26.778  0.00  0.00    +0.015 C 
BRANCH  22  23
ATOM     23  C   UNK     1       6.207  -4.883  26.253  0.00  0.00    +0.003 C 
BRANCH  23  24
ATOM     24  C   UNK     1       5.569  -6.218  25.860  0.00  0.00    +0.030 C 
BRANCH  24  25
ATOM     25  C   UNK     1       4.039  -6.151  25.770  0.00  0.00    +0.161 C 
BRANCH  25  26
ATOM     26  N   UNK     1       3.526  -4.816  26.191  0.00  0.00    -0.318 NA
ATOM     27  H   UNK     1       3.433  -4.827  27.214  0.00  0.00    +0.119 HD
ATOM     28  H   UNK     1       4.259  -4.123  26.024  0.00  0.00    +0.119 HD
ENDBRANCH  25  26
BRANCH  25  29
ATOM     29  C   UNK     1       3.615  -6.386  24.314  0.00  0.00    +0.322 C 
ATOM     30  O   UNK     1       3.191  -5.527  23.558  0.00  0.00    -0.249 OA
BRANCH  29  31
ATOM     31  O   UNK     1       3.746  -7.695  23.968  0.00  0.00    -0.480 OA
ATOM     32  H   UNK     1       4.422  -7.724  23.246  0.00  0.00    +0.295 HD
ENDBRANCH  29  31
ENDBRANCH  25  29
ENDBRANCH  24  25
ENDBRANCH  23  24
ENDBRANCH  22  23
ENDBRANCH  21  22
ENDBRANCH  19  21
ENDBRANCH  18  19
ENDBRANCH   4  18
TORSDOF 16
ENDMDL
MODEL 6
REMARK VINA RESULT:      -5.4      3.554      4.552
REMARK  Name = 
REMARK  17 active torsions:
REMARK  status: ('A' for Active; 'I' for Inactive)
REMARK    1  A    between atoms: C_1  and  C_2
REMARK    2  A    between atoms: C_5  and  C_6
REMARK    3  A    between atoms: C_6  and  O_7
REMARK    4  A    between atoms: O_7  and  P_8
REMARK    5  A    between atoms: P_8  and  O_9
REMARK    6  A    between atoms: P_8  and  O_10
REMARK    7  A    between atoms: C_12  and  C_13
REMARK    8  A    between atoms: C_13  and  N_14
REMARK    9  A    between atoms: N_14  and  C_15
REMARK   10  A    between atoms: C_15  and  C_16
REMARK   11  A    between atoms: C_16  and  C_17
REMARK   12  A    between atoms: C_17  and  C_18
REMARK   13  A    between atoms: C_18  and  C_19
REMARK   14  A    between atoms: C_19  and  N_21
REMARK   15  A    between atoms: C_19  and  C_22
REMARK   16  A    between atoms: C_22  and  O_23
REMARK   17  A    between atoms: C_25  and  O_26
REMARK                            x       y       z     vdW  Elec       q    Type
REMARK                         _______ _______ _______ _____ _____    ______ ____
ROOT
ATOM      1  C   UNK     1       6.538  -5.744  21.165  0.00  0.00    +0.069 C 
ATOM      2  C   UNK     1       6.314  -5.311  22.582  0.00  0.00    +0.080 A 
ATOM      3  C   UNK     1       6.804  -4.090  23.049  0.00  0.00    +0.142 A 
ATOM      4  C   UNK     1       6.536  -3.675  24.368  0.00  0.00    +0.016 A 
ATOM      5  C   UNK     1       5.850  -4.579  25.207  0.00  0.00    +0.005 A 
ATOM      6  C   UNK     1       5.389  -5.771  24.638  0.00  0.00    +0.117 A 
ATOM      7  N   UNK     1       5.592  -6.149  23.360  0.00  0.00    -0.256 NA
ENDROOT
BRANCH   3   8
ATOM      8  O   UNK     1       7.541  -3.317  22.190  0.00  0.00    -0.505 OA
ATOM      9  H   UNK     1       8.083  -3.927  21.644  0.00  0.00    +0.292 HD
ENDBRANCH   3   8
BRANCH   5  10
ATOM     10  C   UNK     1       5.565  -4.312  26.662  0.00  0.00    +0.209 C 
BRANCH  10  11
ATOM     11  O   UNK     1       5.160  -5.519  27.278  0.00  0.00    -0.282 OA
BRANCH  11  12
ATOM     12  P   UNK     1       6.024  -6.055  28.505  0.00  0.00    +0.473 P 
ATOM     13  O   UNK     1       5.869  -5.310  29.787  0.00  0.00    -0.228 OA
BRANCH  12  14
ATOM     14  O   UNK     1       5.616  -7.599  28.542  0.00  0.00    -0.303 OA
ATOM     15  H   UNK     1       5.907  -8.054  29.350  0.00  0.00    +0.222 HD
ENDBRANCH  12  14
BRANCH  12  16
ATOM     16  O   UNK     1       7.480  -6.092  27.857  0.00  0.00    -0.303 OA
ATOM     17  H   UNK     1       8.084  -6.656  28.367  0.00  0.00    +0.222 HD
ENDBRANCH  12  16
ENDBRANCH  11  12
ENDBRANCH  10  11
ENDBRANCH   5  10
BRANCH   4  18
ATOM     18  C   UNK     1       7.019  -2.340  24.903  0.00  0.00    +0.120 C 
BRANCH  18  19
ATOM     19  N   UNK     1       6.531  -1.205  24.101  0.00  0.00    -0.312 NA
ATOM     20  H   UNK     1       5.510  -1.281  24.035  0.00  0.00    +0.122 HD
BRANCH  19  21
ATOM     21  C   UNK     1       6.858   0.067  24.752  0.00  0.00    +0.081 C 
BRANCH  21  22
ATOM     22  C   UNK     1       7.103   1.142  23.691  0.00  0.00    +0.015 C 
BRANCH  22  23
ATOM     23  C   UNK     1       8.567   1.586  23.705  0.00  0.00    +0.003 C 
BRANCH  23  24
ATOM     24  C   UNK     1       9.395   0.850  22.649  0.00  0.00    +0.030 C 
BRANCH  24  25
ATOM     25  C   UNK     1      10.482  -0.048  23.254  0.00  0.00    +0.161 C 
BRANCH  25  26
ATOM     26  N   UNK     1      10.472   0.012  24.742  0.00  0.00    -0.318 NA
ATOM     27  H   UNK     1      10.067   0.916  25.015  0.00  0.00    +0.119 HD
ATOM     28  H   UNK     1       9.792  -0.670  25.087  0.00  0.00    +0.119 HD
ENDBRANCH  25  26
BRANCH  25  29
ATOM     29  C   UNK     1      10.218  -1.501  22.834  0.00  0.00    +0.322 C 
ATOM     30  O   UNK     1      10.170  -2.454  23.595  0.00  0.00    -0.249 OA
BRANCH  29  31
ATOM     31  O   UNK     1      10.066  -1.604  21.486  0.00  0.00    -0.480 OA
ATOM     32  H   UNK     1      10.188  -0.692  21.124  0.00  0.00    +0.295 HD
ENDBRANCH  29  31
ENDBRANCH  25  29
ENDBRANCH  24  25
ENDBRANCH  23  24
ENDBRANCH  22  23
ENDBRANCH  21  22
ENDBRANCH  19  21
ENDBRANCH  18  19
ENDBRANCH   4  18
TORSDOF 16
ENDMDL
MODEL 7
REMARK VINA RESULT:      -5.3      2.489      4.262
REMARK  Name = 
REMARK  17 active torsions:
REMARK  status: ('A' for Active; 'I' for Inactive)
REMARK    1  A    between atoms: C_1  and  C_2
REMARK    2  A    between atoms: C_5  and  C_6
REMARK    3  A    between atoms: C_6  and  O_7
REMARK    4  A    between atoms: O_7  and  P_8
REMARK    5  A    between atoms: P_8  and  O_9
REMARK    6  A    between atoms: P_8  and  O_10
REMARK    7  A    between atoms: C_12  and  C_13
REMARK    8  A    between atoms: C_13  and  N_14
REMARK    9  A    between atoms: N_14  and  C_15
REMARK   10  A    between atoms: C_15  and  C_16
REMARK   11  A    between atoms: C_16  and  C_17
REMARK   12  A    between atoms: C_17  and  C_18
REMARK   13  A    between atoms: C_18  and  C_19
REMARK   14  A    between atoms: C_19  and  N_21
REMARK   15  A    between atoms: C_19  and  C_22
REMARK   16  A    between atoms: C_22  and  O_23
REMARK   17  A    between atoms: C_25  and  O_26
REMARK                            x       y       z     vdW  Elec       q    Type
REMARK                         _______ _______ _______ _____ _____    ______ ____
ROOT
ATOM      1  C   UNK     1       6.082  -1.106  27.300  0.00  0.00    +0.069 C 
ATOM      2  C   UNK     1       6.568  -2.106  26.295  0.00  0.00    +0.080 A 
ATOM      3  C   UNK     1       7.818  -1.970  25.689  0.00  0.00    +0.142 A 
ATOM      4  C   UNK     1       8.281  -2.951  24.790  0.00  0.00    +0.016 A 
ATOM      5  C   UNK     1       7.397  -4.000  24.461  0.00  0.00    +0.005 A 
ATOM      6  C   UNK     1       6.173  -4.054  25.135  0.00  0.00    +0.117 A 
ATOM      7  N   UNK     1       5.746  -3.150  26.040  0.00  0.00    -0.256 NA
ENDROOT
BRANCH   3   8
ATOM      8  O   UNK     1       8.571  -0.868  25.999  0.00  0.00    -0.505 OA
ATOM      9  H   UNK     1       8.129  -0.091  25.591  0.00  0.00    +0.292 HD
ENDBRANCH   3   8
BRANCH   5  10
ATOM     10  C   UNK     1       7.719  -5.074  23.453  0.00  0.00    +0.209 C 
BRANCH  10  11
ATOM     11  O   UNK     1       7.263  -4.657  22.181  0.00  0.00    -0.282 OA
BRANCH  11  12
ATOM     12  P   UNK     1       6.021  -5.427  21.545  0.00  0.00    +0.473 P 
ATOM     13  O   UNK     1       6.070  -5.636  20.069  0.00  0.00    -0.228 OA
BRANCH  12  14
ATOM     14  O   UNK     1       5.966  -6.751  22.435  0.00  0.00    -0.303 OA
ATOM     15  H   UNK     1       5.260  -6.735  23.103  0.00  0.00    +0.222 HD
ENDBRANCH  12  14
BRANCH  12  16
ATOM     16  O   UNK     1       4.807  -4.568  22.118  0.00  0.00    -0.303 OA
ATOM     17  H   UNK     1       4.736  -3.707  21.671  0.00  0.00    +0.222 HD
ENDBRANCH  12  16
ENDBRANCH  11  12
ENDBRANCH  10  11
ENDBRANCH   5  10
BRANCH   4  18
ATOM     18  C   UNK     1       9.648  -2.858  24.138  0.00  0.00    +0.120 C 
BRANCH  18  19
ATOM     19  N   UNK     1       9.881  -1.548  23.507  0.00  0.00    -0.312 NA
ATOM     20  H   UNK     1      10.894  -1.423  23.404  0.00  0.00    +0.122 HD
BRANCH  19  21
ATOM     21  C   UNK     1       9.273  -1.500  22.175  0.00  0.00    +0.081 C 
BRANCH  21  22
ATOM     22  C   UNK     1       9.682  -0.207  21.466  0.00  0.00    +0.015 C 
BRANCH  22  23
ATOM     23  C   UNK     1       8.509   0.774  21.420  0.00  0.00    +0.003 C 
BRANCH  23  24
ATOM     24  C   UNK     1       8.900   2.153  21.958  0.00  0.00    +0.030 C 
BRANCH  24  25
ATOM     25  C   UNK     1       8.786   2.258  23.485  0.00  0.00    +0.161 C 
BRANCH  25  26
ATOM     26  N   UNK     1       7.885   1.209  24.038  0.00  0.00    -0.318 NA
ATOM     27  H   UNK     1       8.465   0.395  24.277  0.00  0.00    +0.119 HD
ATOM     28  H   UNK     1       7.536   1.530  24.944  0.00  0.00    +0.119 HD
ENDBRANCH  25  26
BRANCH  25  29
ATOM     29  C   UNK     1      10.178   2.064  24.102  0.00  0.00    +0.322 C 
ATOM     30  O   UNK     1      11.181   2.681  23.781  0.00  0.00    -0.249 OA
BRANCH  29  31
ATOM     31  O   UNK     1      10.165   1.088  25.048  0.00  0.00    -0.480 OA
ATOM     32  H   UNK     1      11.101   0.781  25.143  0.00  0.00    +0.295 HD
ENDBRANCH  29  31
ENDBRANCH  25  29
ENDBRANCH  24  25
ENDBRANCH  23  24
ENDBRANCH  22  23
ENDBRANCH  21  22
ENDBRANCH  19  21
ENDBRANCH  18  19
ENDBRANCH   4  18
TORSDOF 16
ENDMDL
MODEL 8
REMARK VINA RESULT:      -5.3      3.058      3.843
REMARK  Name = 
REMARK  17 active torsions:
REMARK  status: ('A' for Active; 'I' for Inactive)
REMARK    1  A    between atoms: C_1  and  C_2
REMARK    2  A    between atoms: C_5  and  C_6
REMARK    3  A    between atoms: C_6  and  O_7
REMARK    4  A    between atoms: O_7  and  P_8
REMARK    5  A    between atoms: P_8  and  O_9
REMARK    6  A    between atoms: P_8  and  O_10
REMARK    7  A    between atoms: C_12  and  C_13
REMARK    8  A    between atoms: C_13  and  N_14
REMARK    9  A    between atoms: N_14  and  C_15
REMARK   10  A    between atoms: C_15  and  C_16
REMARK   11  A    between atoms: C_16  and  C_17
REMARK   12  A    between atoms: C_17  and  C_18
REMARK   13  A    between atoms: C_18  and  C_19
REMARK   14  A    between atoms: C_19  and  N_21
REMARK   15  A    between atoms: C_19  and  C_22
REMARK   16  A    between atoms: C_22  and  O_23
REMARK   17  A    between atoms: C_25  and  O_26
REMARK                            x       y       z     vdW  Elec       q    Type
REMARK                         _______ _______ _______ _____ _____    ______ ____
ROOT
ATOM      1  C   UNK     1       5.677  -6.036  21.542  0.00  0.00    +0.069 C 
ATOM      2  C   UNK     1       5.974  -5.474  22.899  0.00  0.00    +0.080 A 
ATOM      3  C   UNK     1       7.287  -5.265  23.321  0.00  0.00    +0.142 A 
ATOM      4  C   UNK     1       7.546  -4.683  24.578  0.00  0.00    +0.016 A 
ATOM      5  C   UNK     1       6.438  -4.422  25.412  0.00  0.00    +0.005 A 
ATOM      6  C   UNK     1       5.162  -4.653  24.890  0.00  0.00    +0.117 A 
ATOM      7  N   UNK     1       4.905  -5.156  23.665  0.00  0.00    -0.256 NA
ENDROOT
BRANCH   3   8
ATOM      8  O   UNK     1       8.304  -5.636  22.480  0.00  0.00    -0.505 OA
ATOM      9  H   UNK     1       7.987  -5.494  21.562  0.00  0.00    +0.292 HD
ENDBRANCH   3   8
BRANCH   5  10
ATOM     10  C   UNK     1       6.562  -3.880  26.813  0.00  0.00    +0.209 C 
BRANCH  10  11
ATOM     11  O   UNK     1       5.653  -4.568  27.650  0.00  0.00    -0.282 OA
BRANCH  11  12
ATOM     12  P   UNK     1       6.126  -5.951  28.287  0.00  0.00    +0.473 P 
ATOM     13  O   UNK     1       5.323  -7.150  27.913  0.00  0.00    -0.228 OA
BRANCH  12  14
ATOM     14  O   UNK     1       7.669  -5.989  27.877  0.00  0.00    -0.303 OA
ATOM     15  H   UNK     1       7.962  -6.862  27.567  0.00  0.00    +0.222 HD
ENDBRANCH  12  14
BRANCH  12  16
ATOM     16  O   UNK     1       6.183  -5.568  29.833  0.00  0.00    -0.303 OA
ATOM     17  H   UNK     1       5.838  -4.673  29.992  0.00  0.00    +0.222 HD
ENDBRANCH  12  16
ENDBRANCH  11  12
ENDBRANCH  10  11
ENDBRANCH   5  10
BRANCH   4  18
ATOM     18  C   UNK     1       8.958  -4.407  25.059  0.00  0.00    +0.120 C 
BRANCH  18  19
ATOM     19  N   UNK     1       9.665  -3.445  24.196  0.00  0.00    -0.312 NA
ATOM     20  H   UNK     1       9.620  -3.792  23.233  0.00  0.00    +0.122 HD
BRANCH  19  21
ATOM     21  C   UNK     1       9.016  -2.132  24.245  0.00  0.00    +0.081 C 
BRANCH  21  22
ATOM     22  C   UNK     1       9.984  -1.058  23.744  0.00  0.00    +0.015 C 
BRANCH  22  23
ATOM     23  C   UNK     1      10.166  -1.163  22.229  0.00  0.00    +0.003 C 
BRANCH  23  24
ATOM     24  C   UNK     1       9.421  -0.049  21.489  0.00  0.00    +0.030 C 
BRANCH  24  25
ATOM     25  C   UNK     1       9.384   1.272  22.270  0.00  0.00    +0.161 C 
BRANCH  25  26
ATOM     26  N   UNK     1      10.345   2.264  21.708  0.00  0.00    -0.318 NA
ATOM     27  H   UNK     1       9.831   3.139  21.549  0.00  0.00    +0.119 HD
ATOM     28  H   UNK     1      11.017   2.509  22.440  0.00  0.00    +0.119 HD
ENDBRANCH  25  26
BRANCH  25  29
ATOM     29  C   UNK     1       7.973   1.869  22.172  0.00  0.00    +0.322 C 
ATOM     30  O   UNK     1       6.935   1.241  22.302  0.00  0.00    -0.249 OA
BRANCH  29  31
ATOM     31  O   UNK     1       8.020   3.199  21.893  0.00  0.00    -0.480 OA
ATOM     32  H   UNK     1       7.143   3.431  21.500  0.00  0.00    +0.295 HD
ENDBRANCH  29  31
ENDBRANCH  25  29
ENDBRANCH  24  25
ENDBRANCH  23  24
ENDBRANCH  22  23
ENDBRANCH  21  22
ENDBRANCH  19  21
ENDBRANCH  18  19
ENDBRANCH   4  18
TORSDOF 16
ENDMDL
MODEL 9
REMARK VINA RESULT:      -5.3      2.456      6.670
REMARK  Name = 
REMARK  17 active torsions:
REMARK  status: ('A' for Active; 'I' for Inactive)
REMARK    1  A    between atoms: C_1  and  C_2
REMARK    2  A    between atoms: C_5  and  C_6
REMARK    3  A    between atoms: C_6  and  O_7
REMARK    4  A    between atoms: O_7  and  P_8
REMARK    5  A    between atoms: P_8  and  O_9
REMARK    6  A    between atoms: P_8  and  O_10
REMARK    7  A    between atoms: C_12  and  C_13
REMARK    8  A    between atoms: C_13  and  N_14
REMARK    9  A    between atoms: N_14  and  C_15
REMARK   10  A    between atoms: C_15  and  C_16
REMARK   11  A    between atoms: C_16  and  C_17
REMARK   12  A    between atoms: C_17  and  C_18
REMARK   13  A    between atoms: C_18  and  C_19
REMARK   14  A    between atoms: C_19  and  N_21
REMARK   15  A    between atoms: C_19  and  C_22
REMARK   16  A    between atoms: C_22  and  O_23
REMARK   17  A    between atoms: C_25  and  O_26
REMARK                            x       y       z     vdW  Elec       q    Type
REMARK                         _______ _______ _______ _____ _____    ______ ____
ROOT
ATOM      1  C   UNK     1       9.802   1.175  21.882  0.00  0.00    +0.069 C 
ATOM      2  C   UNK     1       9.341   0.217  22.938  0.00  0.00    +0.080 A 
ATOM      3  C   UNK     1       8.085   0.348  23.532  0.00  0.00    +0.142 A 
ATOM      4  C   UNK     1       7.646  -0.595  24.482  0.00  0.00    +0.016 A 
ATOM      5  C   UNK     1       8.559  -1.599  24.869  0.00  0.00    +0.005 A 
ATOM      6  C   UNK     1       9.787  -1.653  24.203  0.00  0.00    +0.117 A 
ATOM      7  N   UNK     1      10.191  -0.788  23.252  0.00  0.00    -0.256 NA
ENDROOT
BRANCH   3   8
ATOM      8  O   UNK     1       7.301   1.409  23.161  0.00  0.00    -0.505 OA
ATOM      9  H   UNK     1       7.472   2.134  23.802  0.00  0.00    +0.292 HD
ENDBRANCH   3   8
BRANCH   5  10
ATOM     10  C   UNK     1       8.265  -2.626  25.933  0.00  0.00    +0.209 C 
BRANCH  10  11
ATOM     11  O   UNK     1       9.263  -3.627  25.890  0.00  0.00    -0.282 OA
BRANCH  11  12
ATOM     12  P   UNK     1       8.814  -5.110  25.518  0.00  0.00    +0.473 P 
ATOM     13  O   UNK     1       7.653  -5.652  26.281  0.00  0.00    -0.228 OA
BRANCH  12  14
ATOM     14  O   UNK     1       8.624  -5.008  23.936  0.00  0.00    -0.303 OA
ATOM     15  H   UNK     1       8.617  -4.093  23.609  0.00  0.00    +0.222 HD
ENDBRANCH  12  14
BRANCH  12  16
ATOM     16  O   UNK     1      10.200  -5.887  25.655  0.00  0.00    -0.303 OA
ATOM     17  H   UNK     1      10.105  -6.829  25.434  0.00  0.00    +0.222 HD
ENDBRANCH  12  16
ENDBRANCH  11  12
ENDBRANCH  10  11
ENDBRANCH   5  10
BRANCH   4  18
ATOM     18  C   UNK     1       6.274  -0.509  25.124  0.00  0.00    +0.120 C 
BRANCH  18  19
ATOM     19  N   UNK     1       5.310  -1.439  24.514  0.00  0.00    -0.312 NA
ATOM     20  H   UNK     1       5.839  -2.140  23.985  0.00  0.00    +0.122 HD
BRANCH  19  21
ATOM     21  C   UNK     1       4.533  -2.130  25.546  0.00  0.00    +0.081 C 
BRANCH  21  22
ATOM     22  C   UNK     1       4.785  -3.637  25.461  0.00  0.00    +0.015 C 
BRANCH  22  23
ATOM     23  C   UNK     1       4.129  -4.220  24.208  0.00  0.00    +0.003 C 
BRANCH  23  24
ATOM     24  C   UNK     1       5.097  -5.108  23.421  0.00  0.00    +0.030 C 
BRANCH  24  25
ATOM     25  C   UNK     1       5.601  -4.451  22.128  0.00  0.00    +0.161 C 
BRANCH  25  26
ATOM     26  N   UNK     1       6.647  -3.427  22.408  0.00  0.00    -0.318 NA
ATOM     27  H   UNK     1       7.558  -3.842  22.177  0.00  0.00    +0.119 HD
ATOM     28  H   UNK     1       6.546  -2.671  21.727  0.00  0.00    +0.119 HD
ENDBRANCH  25  26
BRANCH  25  29
ATOM     29  C   UNK     1       6.220  -5.531  21.230  0.00  0.00    +0.322 C 
ATOM     30  O   UNK     1       5.982  -5.679  20.042  0.00  0.00    -0.249 OA
BRANCH  29  31
ATOM     31  O   UNK     1       7.062  -6.334  21.935  0.00  0.00    -0.480 OA
ATOM     32  H   UNK     1       6.954  -6.081  22.885  0.00  0.00    +0.295 HD
ENDBRANCH  29  31
ENDBRANCH  25  29
ENDBRANCH  24  25
ENDBRANCH  23  24
ENDBRANCH  22  23
ENDBRANCH  21  22
ENDBRANCH  19  21
ENDBRANCH  18  19
ENDBRANCH   4  18
TORSDOF 16
ENDMDL
