MODEL 1
REMARK VINA RESULT:      -7.1      0.000      0.000
REMARK  Name = 
REMARK  8 active torsions:
REMARK  status: ('A' for Active; 'I' for Inactive)
REMARK    1  A    between atoms: C_1  and  O_2
REMARK    2  A    between atoms: O_2  and  C_3
REMARK    3  A    between atoms: C_4  and  O_5
REMARK    4  A    between atoms: O_5  and  C_6
REMARK    5  A    between atoms: C_6  and  C_7
REMARK    6  A    between atoms: C_7  and  C_8
REMARK    7  A    between atoms: C_8  and  N_9
REMARK    8  A    between atoms: N_18  and  C_19
REMARK                            x       y       z     vdW  Elec       q    Type
REMARK                         _______ _______ _______ _____ _____    ______ ____
ROOT
ATOM      1  C   UNL     1       4.731  -6.786  25.310  0.00  0.00    +0.164 A 
ATOM      2  C   UNL     1       4.603  -6.570  23.936  0.00  0.00    +0.078 A 
ATOM      3  C   UNL     1       5.459  -5.742  23.241  0.00  0.00    +0.080 A 
ATOM      4  C   UNL     1       6.458  -5.040  23.940  0.00  0.00    +0.044 A 
ATOM      5  C   UNL     1       7.274  -4.209  23.136  0.00  0.00    +0.134 A 
ATOM      6  N   UNL     1       7.100  -4.137  21.804  0.00  0.00    -0.220 NA
ATOM      7  C   UNL     1       6.117  -4.854  21.264  0.00  0.00    +0.223 A 
ATOM      8  N   UNL     1       8.215  -3.335  23.737  0.00  0.00    -0.299 N 
ATOM      9  H   UNL     1       8.573  -3.664  24.621  0.00  0.00    +0.154 HD
ATOM     10  C   UNL     1       6.549  -5.217  25.354  0.00  0.00    +0.062 A 
ATOM     11  N   UNL     1       5.276  -5.650  21.925  0.00  0.00    -0.235 NA
ATOM     12  C   UNL     1       5.697  -6.090  26.042  0.00  0.00    +0.163 A 
ENDROOT
BRANCH   8  13
ATOM     13  C   UNL     1       8.932  -2.238  23.210  0.00  0.00    +0.034 A 
ATOM     14  C   UNL     1       8.821  -1.796  21.883  0.00  0.00    +0.026 A 
ATOM     15  C   UNL     1       9.374  -0.583  21.462  0.00  0.00    +0.041 A 
ATOM     16  C   UNL     1      10.057   0.208  22.369  0.00  0.00    +0.142 A 
ATOM     17  F   UNL     1      10.533   1.394  21.963  0.00  0.00    -0.204 F 
ATOM     18  C   UNL     1      10.226  -0.223  23.681  0.00  0.00    +0.078 A 
ATOM     19 CL   UNL     1      11.084   0.750  24.816  0.00  0.00    -0.081 Cl
ATOM     20  C   UNL     1       9.673  -1.439  24.098  0.00  0.00    +0.046 A 
ENDBRANCH   8  13
BRANCH   1  22
ATOM     21  C   UNL     1       2.657  -7.857  25.024  0.00  0.00    +0.277 C 
ATOM     22  O   UNL     1       3.822  -7.675  25.825  0.00  0.00    -0.491 OA
ENDBRANCH   1  22
BRANCH  12  23
ATOM     23  O   UNL     1       5.713  -6.291  27.396  0.00  0.00    -0.488 OA
BRANCH  23  24
ATOM     24  C   UNL     1       5.935  -5.170  28.249  0.00  0.00    +0.230 C 
BRANCH  24  25
ATOM     25  C   UNL     1       4.599  -4.470  28.505  0.00  0.00    +0.056 C 
BRANCH  25  26
ATOM     26  C   UNL     1       4.326  -3.250  27.609  0.00  0.00    +0.088 C 
BRANCH  26  27
ATOM     27  N   UNL     1       5.301  -2.153  27.720  0.00  0.00    -0.298 NA
ATOM     28  C   UNL     1       4.631  -0.875  28.078  0.00  0.00    +0.112 C 
ATOM     29  C   UNL     1       3.898  -0.178  26.913  0.00  0.00    +0.175 C 
ATOM     30  O   UNL     1       4.753   0.001  25.777  0.00  0.00    -0.377 OA
ATOM     31  C   UNL     1       5.297  -1.252  25.355  0.00  0.00    +0.175 C 
ATOM     32  C   UNL     1       6.091  -1.914  26.493  0.00  0.00    +0.112 C 
ENDBRANCH  26  27
ENDBRANCH  25  26
ENDBRANCH  24  25
ENDBRANCH  23  24
ENDBRANCH  12  23
TORSDOF 7
ENDMDL
MODEL 2
REMARK VINA RESULT:      -7.1      2.099      3.236
REMARK  Name = 
REMARK  8 active torsions:
REMARK  status: ('A' for Active; 'I' for Inactive)
REMARK    1  A    between atoms: C_1  and  O_2
REMARK    2  A    between atoms: O_2  and  C_3
REMARK    3  A    between atoms: C_4  and  O_5
REMARK    4  A    between atoms: O_5  and  C_6
REMARK    5  A    between atoms: C_6  and  C_7
REMARK    6  A    between atoms: C_7  and  C_8
REMARK    7  A    between atoms: C_8  and  N_9
REMARK    8  A    between atoms: N_18  and  C_19
REMARK                            x       y       z     vdW  Elec       q    Type
REMARK                         _______ _______ _______ _____ _____    ______ ____
ROOT
ATOM      1  C   UNL     1       2.925  -5.389  23.799  0.00  0.00    +0.164 A 
ATOM      2  C   UNL     1       3.910  -5.929  22.970  0.00  0.00    +0.078 A 
ATOM      3  C   UNL     1       5.121  -5.303  22.765  0.00  0.00    +0.080 A 
ATOM      4  C   UNL     1       5.357  -4.050  23.359  0.00  0.00    +0.044 A 
ATOM      5  C   UNL     1       6.626  -3.487  23.077  0.00  0.00    +0.134 A 
ATOM      6  N   UNL     1       7.524  -4.138  22.317  0.00  0.00    -0.220 NA
ATOM      7  C   UNL     1       7.177  -5.321  21.815  0.00  0.00    +0.223 A 
ATOM      8  N   UNL     1       6.928  -2.165  23.488  0.00  0.00    -0.299 N 
ATOM      9  H   UNL     1       6.438  -1.872  24.319  0.00  0.00    +0.154 HD
ATOM     10  C   UNL     1       4.326  -3.472  24.160  0.00  0.00    +0.062 A 
ATOM     11  N   UNL     1       6.006  -5.933  21.995  0.00  0.00    -0.235 NA
ATOM     12  C   UNL     1       3.114  -4.136  24.389  0.00  0.00    +0.163 A 
ENDROOT
BRANCH   8  13
ATOM     13  C   UNL     1       7.971  -1.290  23.110  0.00  0.00    +0.034 A 
ATOM     14  C   UNL     1       8.631  -1.348  21.873  0.00  0.00    +0.026 A 
ATOM     15  C   UNL     1       9.498  -0.337  21.452  0.00  0.00    +0.041 A 
ATOM     16  C   UNL     1       9.725   0.754  22.273  0.00  0.00    +0.142 A 
ATOM     17  F   UNL     1      10.515   1.743  21.831  0.00  0.00    -0.204 F 
ATOM     18  C   UNL     1       9.124   0.821  23.525  0.00  0.00    +0.078 A 
ATOM     19 CL   UNL     1       9.407   2.170  24.560  0.00  0.00    -0.081 Cl
ATOM     20  C   UNL     1       8.257  -0.195  23.944  0.00  0.00    +0.046 A 
ENDBRANCH   8  13
BRANCH   1  22
ATOM     21  C   UNL     1       0.948  -6.156  22.782  0.00  0.00    +0.277 C 
ATOM     22  O   UNL     1       1.804  -6.171  23.922  0.00  0.00    -0.491 OA
ENDBRANCH   1  22
BRANCH  12  23
ATOM     23  O   UNL     1       2.076  -3.633  25.125  0.00  0.00    -0.488 OA
BRANCH  23  24
ATOM     24  C   UNL     1       2.340  -3.165  26.445  0.00  0.00    +0.230 C 
BRANCH  24  25
ATOM     25  C   UNL     1       2.462  -4.368  27.383  0.00  0.00    +0.056 C 
BRANCH  25  26
ATOM     26  C   UNL     1       3.893  -4.670  27.863  0.00  0.00    +0.088 C 
BRANCH  26  27
ATOM     27  N   UNL     1       4.455  -5.952  27.409  0.00  0.00    -0.298 NA
ATOM     28  C   UNL     1       4.766  -6.839  28.561  0.00  0.00    +0.112 C 
ATOM     29  C   UNL     1       6.057  -6.481  29.324  0.00  0.00    +0.175 C 
ATOM     30  O   UNL     1       7.185  -6.380  28.446  0.00  0.00    -0.377 OA
ATOM     31  C   UNL     1       6.931  -5.428  27.409  0.00  0.00    +0.175 C 
ATOM     32  C   UNL     1       5.686  -5.824  26.599  0.00  0.00    +0.112 C 
ENDBRANCH  26  27
ENDBRANCH  25  26
ENDBRANCH  24  25
ENDBRANCH  23  24
ENDBRANCH  12  23
TORSDOF 7
ENDMDL
MODEL 3
REMARK VINA RESULT:      -7.0      3.372      5.205
REMARK  Name = 
REMARK  8 active torsions:
REMARK  status: ('A' for Active; 'I' for Inactive)
REMARK    1  A    between atoms: C_1  and  O_2
REMARK    2  A    between atoms: O_2  and  C_3
REMARK    3  A    between atoms: C_4  and  O_5
REMARK    4  A    between atoms: O_5  and  C_6
REMARK    5  A    between atoms: C_6  and  C_7
REMARK    6  A    between atoms: C_7  and  C_8
REMARK    7  A    between atoms: C_8  and  N_9
REMARK    8  A    between atoms: N_18  and  C_19
REMARK                            x       y       z     vdW  Elec       q    Type
REMARK                         _______ _______ _______ _____ _____    ______ ____
ROOT
ATOM      1  C   UNL     1       8.474  -3.498  25.354  0.00  0.00    +0.164 A 
ATOM      2  C   UNL     1       9.286  -3.276  24.240  0.00  0.00    +0.078 A 
ATOM      3  C   UNL     1       9.515  -2.012  23.739  0.00  0.00    +0.080 A 
ATOM      4  C   UNL     1       8.866  -0.911  24.326  0.00  0.00    +0.044 A 
ATOM      5  C   UNL     1       9.160   0.340  23.730  0.00  0.00    +0.134 A 
ATOM      6  N   UNL     1      10.018   0.437  22.699  0.00  0.00    -0.220 NA
ATOM      7  C   UNL     1      10.568  -0.684  22.237  0.00  0.00    +0.223 A 
ATOM      8  N   UNL     1       8.456   1.504  24.128  0.00  0.00    -0.299 N 
ATOM      9  H   UNL     1       8.134   1.481  25.084  0.00  0.00    +0.154 HD
ATOM     10  C   UNL     1       7.991  -1.147  25.429  0.00  0.00    +0.062 A 
ATOM     11  N   UNL     1      10.348  -1.913  22.704  0.00  0.00    -0.235 NA
ATOM     12  C   UNL     1       7.795  -2.432  25.950  0.00  0.00    +0.163 A 
ENDROOT
BRANCH   8  13
ATOM     13  C   UNL     1       8.353   2.778  23.528  0.00  0.00    +0.034 A 
ATOM     14  C   UNL     1       7.335   3.142  22.633  0.00  0.00    +0.026 A 
ATOM     15  C   UNL     1       7.142   4.467  22.235  0.00  0.00    +0.041 A 
ATOM     16  C   UNL     1       7.977   5.456  22.725  0.00  0.00    +0.142 A 
ATOM     17  F   UNL     1       7.745   6.730  22.378  0.00  0.00    -0.204 F 
ATOM     18  C   UNL     1       9.026   5.124  23.577  0.00  0.00    +0.078 A 
ATOM     19 CL   UNL     1      10.078   6.346  24.186  0.00  0.00    -0.081 Cl
ATOM     20  C   UNL     1       9.216   3.795  23.972  0.00  0.00    +0.046 A 
ENDBRANCH   8  13
BRANCH   1  22
ATOM     21  C   UNL     1       9.446  -5.636  25.235  0.00  0.00    +0.277 C 
ATOM     22  O   UNL     1       8.398  -4.813  25.740  0.00  0.00    -0.491 OA
ENDBRANCH   1  22
BRANCH  12  23
ATOM     23  O   UNL     1       6.956  -2.733  26.988  0.00  0.00    -0.488 OA
BRANCH  23  24
ATOM     24  C   UNL     1       5.595  -2.314  26.908  0.00  0.00    +0.230 C 
BRANCH  24  25
ATOM     25  C   UNL     1       4.703  -3.549  26.767  0.00  0.00    +0.056 C 
BRANCH  25  26
ATOM     26  C   UNL     1       4.950  -4.382  25.496  0.00  0.00    +0.088 C 
BRANCH  26  27
ATOM     27  N   UNL     1       4.345  -3.850  24.264  0.00  0.00    -0.298 NA
ATOM     28  C   UNL     1       3.563  -4.896  23.556  0.00  0.00    +0.112 C 
ATOM     29  C   UNL     1       4.409  -5.915  22.765  0.00  0.00    +0.175 C 
ATOM     30  O   UNL     1       5.318  -5.268  21.865  0.00  0.00    -0.377 OA
ATOM     31  C   UNL     1       6.159  -4.352  22.572  0.00  0.00    +0.175 C 
ATOM     32  C   UNL     1       5.319  -3.291  23.301  0.00  0.00    +0.112 C 
ENDBRANCH  26  27
ENDBRANCH  25  26
ENDBRANCH  24  25
ENDBRANCH  23  24
ENDBRANCH  12  23
TORSDOF 7
ENDMDL
MODEL 4
REMARK VINA RESULT:      -7.0      3.374      5.071
REMARK  Name = 
REMARK  8 active torsions:
REMARK  status: ('A' for Active; 'I' for Inactive)
REMARK    1  A    between atoms: C_1  and  O_2
REMARK    2  A    between atoms: O_2  and  C_3
REMARK    3  A    between atoms: C_4  and  O_5
REMARK    4  A    between atoms: O_5  and  C_6
REMARK    5  A    between atoms: C_6  and  C_7
REMARK    6  A    between atoms: C_7  and  C_8
REMARK    7  A    between atoms: C_8  and  N_9
REMARK    8  A    between atoms: N_18  and  C_19
REMARK                            x       y       z     vdW  Elec       q    Type
REMARK                         _______ _______ _______ _____ _____    ______ ____
ROOT
ATOM      1  C   UNL     1       6.788  -3.756  22.933  0.00  0.00    +0.164 A 
ATOM      2  C   UNL     1       8.047  -3.380  22.459  0.00  0.00    +0.078 A 
ATOM      3  C   UNL     1       8.503  -2.081  22.539  0.00  0.00    +0.080 A 
ATOM      4  C   UNL     1       7.657  -1.085  23.058  0.00  0.00    +0.044 A 
ATOM      5  C   UNL     1       8.216   0.216  23.085  0.00  0.00    +0.134 A 
ATOM      6  N   UNL     1       9.473   0.444  22.664  0.00  0.00    -0.220 NA
ATOM      7  C   UNL     1      10.171  -0.588  22.196  0.00  0.00    +0.223 A 
ATOM      8  N   UNL     1       7.415   1.330  23.441  0.00  0.00    -0.299 N 
ATOM      9  H   UNL     1       6.663   1.108  24.075  0.00  0.00    +0.154 HD
ATOM     10  C   UNL     1       6.349  -1.461  23.488  0.00  0.00    +0.062 A 
ATOM     11  N   UNL     1       9.739  -1.846  22.103  0.00  0.00    -0.235 NA
ATOM     12  C   UNL     1       5.911  -2.791  23.435  0.00  0.00    +0.163 A 
ENDROOT
BRANCH   8  13
ATOM     13  C   UNL     1       7.633   2.717  23.286  0.00  0.00    +0.034 A 
ATOM     14  C   UNL     1       7.113   3.477  22.227  0.00  0.00    +0.026 A 
ATOM     15  C   UNL     1       7.164   4.873  22.227  0.00  0.00    +0.041 A 
ATOM     16  C   UNL     1       7.748   5.536  23.293  0.00  0.00    +0.142 A 
ATOM     17  F   UNL     1       7.739   6.876  23.305  0.00  0.00    -0.204 F 
ATOM     18  C   UNL     1       8.314   4.812  24.337  0.00  0.00    +0.078 A 
ATOM     19 CL   UNL     1       9.052   5.627  25.665  0.00  0.00    -0.081 Cl
ATOM     20  C   UNL     1       8.262   3.413  24.333  0.00  0.00    +0.046 A 
ENDBRANCH   8  13
BRANCH   1  22
ATOM     21  C   UNL     1       6.182  -5.514  21.494  0.00  0.00    +0.277 C 
ATOM     22  O   UNL     1       6.521  -5.097  22.814  0.00  0.00    -0.491 OA
ENDBRANCH   1  22
BRANCH  12  23
ATOM     23  O   UNL     1       4.666  -3.218  23.808  0.00  0.00    -0.488 OA
BRANCH  23  24
ATOM     24  C   UNL     1       4.203  -2.905  25.120  0.00  0.00    +0.230 C 
BRANCH  24  25
ATOM     25  C   UNL     1       3.387  -4.085  25.652  0.00  0.00    +0.056 C 
BRANCH  25  26
ATOM     26  C   UNL     1       3.944  -4.729  26.935  0.00  0.00    +0.088 C 
BRANCH  26  27
ATOM     27  N   UNL     1       4.627  -6.019  26.749  0.00  0.00    -0.298 NA
ATOM     28  C   UNL     1       4.899  -6.674  28.056  0.00  0.00    +0.112 C 
ATOM     29  C   UNL     1       6.096  -6.092  28.835  0.00  0.00    +0.175 C 
ATOM     30  O   UNL     1       7.284  -6.049  28.035  0.00  0.00    -0.377 OA
ATOM     31  C   UNL     1       7.054  -5.307  26.833  0.00  0.00    +0.175 C 
ATOM     32  C   UNL     1       5.910  -5.930  26.018  0.00  0.00    +0.112 C 
ENDBRANCH  26  27
ENDBRANCH  25  26
ENDBRANCH  24  25
ENDBRANCH  23  24
ENDBRANCH  12  23
TORSDOF 7
ENDMDL
MODEL 5
REMARK VINA RESULT:      -6.8      4.718      7.840
REMARK  Name = 
REMARK  8 active torsions:
REMARK  status: ('A' for Active; 'I' for Inactive)
REMARK    1  A    between atoms: C_1  and  O_2
REMARK    2  A    between atoms: O_2  and  C_3
REMARK    3  A    between atoms: C_4  and  O_5
REMARK    4  A    between atoms: O_5  and  C_6
REMARK    5  A    between atoms: C_6  and  C_7
REMARK    6  A    between atoms: C_7  and  C_8
REMARK    7  A    between atoms: C_8  and  N_9
REMARK    8  A    between atoms: N_18  and  C_19
REMARK                            x       y       z     vdW  Elec       q    Type
REMARK                         _______ _______ _______ _____ _____    ______ ____
ROOT
ATOM      1  C   UNL     1       9.598  -0.795  23.197  0.00  0.00    +0.164 A 
ATOM      2  C   UNL     1       9.877  -2.013  23.821  0.00  0.00    +0.078 A 
ATOM      3  C   UNL     1       8.934  -3.012  23.935  0.00  0.00    +0.080 A 
ATOM      4  C   UNL     1       7.628  -2.783  23.465  0.00  0.00    +0.044 A 
ATOM      5  C   UNL     1       6.734  -3.867  23.641  0.00  0.00    +0.134 A 
ATOM      6  N   UNL     1       7.140  -5.023  24.195  0.00  0.00    -0.220 NA
ATOM      7  C   UNL     1       8.405  -5.112  24.597  0.00  0.00    +0.223 A 
ATOM      8  N   UNL     1       5.355  -3.709  23.351  0.00  0.00    -0.299 N 
ATOM      9  H   UNL     1       5.163  -3.029  22.632  0.00  0.00    +0.154 HD
ATOM     10  C   UNL     1       7.329  -1.515  22.881  0.00  0.00    +0.062 A 
ATOM     11  N   UNL     1       9.325  -4.152  24.502  0.00  0.00    -0.235 NA
ATOM     12  C   UNL     1       8.306  -0.522  22.739  0.00  0.00    +0.163 A 
ENDROOT
BRANCH   8  13
ATOM     13  C   UNL     1       4.239  -4.506  23.687  0.00  0.00    +0.034 A 
ATOM     14  C   UNL     1       3.848  -5.648  22.970  0.00  0.00    +0.026 A 
ATOM     15  C   UNL     1       2.879  -6.529  23.457  0.00  0.00    +0.041 A 
ATOM     16  C   UNL     1       2.276  -6.274  24.677  0.00  0.00    +0.142 A 
ATOM     17  F   UNL     1       1.389  -7.157  25.157  0.00  0.00    -0.204 F 
ATOM     18  C   UNL     1       2.605  -5.127  25.392  0.00  0.00    +0.078 A 
ATOM     19 CL   UNL     1       1.854  -4.795  26.907  0.00  0.00    -0.081 Cl
ATOM     20  C   UNL     1       3.576  -4.246  24.899  0.00  0.00    +0.046 A 
ENDBRANCH   8  13
BRANCH   1  22
ATOM     21  C   UNL     1      10.944   0.752  24.350  0.00  0.00    +0.277 C 
ATOM     22  O   UNL     1      10.669   0.062  23.134  0.00  0.00    -0.491 OA
ENDBRANCH   1  22
BRANCH  12  23
ATOM     23  O   UNL     1       8.085   0.721  22.210  0.00  0.00    -0.488 OA
BRANCH  23  24
ATOM     24  C   UNL     1       7.135   1.573  22.845  0.00  0.00    +0.230 C 
BRANCH  24  25
ATOM     25  C   UNL     1       7.125   2.925  22.130  0.00  0.00    +0.056 C 
BRANCH  25  26
ATOM     26  C   UNL     1       7.678   4.098  22.959  0.00  0.00    +0.088 C 
BRANCH  26  27
ATOM     27  N   UNL     1       8.678   3.737  23.977  0.00  0.00    -0.298 NA
ATOM     28  C   UNL     1       8.233   4.147  25.334  0.00  0.00    +0.112 C 
ATOM     29  C   UNL     1       8.387   5.651  25.640  0.00  0.00    +0.175 C 
ATOM     30  O   UNL     1       9.718   6.115  25.383  0.00  0.00    -0.377 OA
ATOM     31  C   UNL     1      10.098   5.831  24.034  0.00  0.00    +0.175 C 
ATOM     32  C   UNL     1      10.017   4.323  23.749  0.00  0.00    +0.112 C 
ENDBRANCH  26  27
ENDBRANCH  25  26
ENDBRANCH  24  25
ENDBRANCH  23  24
ENDBRANCH  12  23
TORSDOF 7
ENDMDL
MODEL 6
REMARK VINA RESULT:      -6.6      4.974      8.229
REMARK  Name = 
REMARK  8 active torsions:
REMARK  status: ('A' for Active; 'I' for Inactive)
REMARK    1  A    between atoms: C_1  and  O_2
REMARK    2  A    between atoms: O_2  and  C_3
REMARK    3  A    between atoms: C_4  and  O_5
REMARK    4  A    between atoms: O_5  and  C_6
REMARK    5  A    between atoms: C_6  and  C_7
REMARK    6  A    between atoms: C_7  and  C_8
REMARK    7  A    between atoms: C_8  and  N_9
REMARK    8  A    between atoms: N_18  and  C_19
REMARK                            x       y       z     vdW  Elec       q    Type
REMARK                         _______ _______ _______ _____ _____    ______ ____
ROOT
ATOM      1  C   UNL     1       9.674   2.789  23.805  0.00  0.00    +0.164 A 
ATOM      2  C   UNL     1      10.171   1.841  22.908  0.00  0.00    +0.078 A 
ATOM      3  C   UNL     1       9.672   0.558  22.845  0.00  0.00    +0.080 A 
ATOM      4  C   UNL     1       8.671   0.163  23.752  0.00  0.00    +0.044 A 
ATOM      5  C   UNL     1       8.236  -1.177  23.611  0.00  0.00    +0.134 A 
ATOM      6  N   UNL     1       8.742  -1.979  22.657  0.00  0.00    -0.220 NA
ATOM      7  C   UNL     1       9.686  -1.481  21.860  0.00  0.00    +0.223 A 
ATOM      8  N   UNL     1       7.345  -1.742  24.558  0.00  0.00    -0.299 N 
ATOM      9  H   UNL     1       6.730  -1.071  24.992  0.00  0.00    +0.154 HD
ATOM     10  C   UNL     1       8.206   1.116  24.707  0.00  0.00    +0.062 A 
ATOM     11  N   UNL     1      10.185  -0.247  21.916  0.00  0.00    -0.235 NA
ATOM     12  C   UNL     1       8.696   2.428  24.736  0.00  0.00    +0.163 A 
ENDROOT
BRANCH   8  13
ATOM     13  C   UNL     1       6.984  -3.084  24.808  0.00  0.00    +0.034 A 
ATOM     14  C   UNL     1       7.777  -3.986  25.535  0.00  0.00    +0.026 A 
ATOM     15  C   UNL     1       7.290  -5.229  25.947  0.00  0.00    +0.041 A 
ATOM     16  C   UNL     1       5.994  -5.595  25.627  0.00  0.00    +0.142 A 
ATOM     17  F   UNL     1       5.524  -6.767  26.077  0.00  0.00    -0.204 F 
ATOM     18  C   UNL     1       5.197  -4.746  24.867  0.00  0.00    +0.078 A 
ATOM     19 CL   UNL     1       3.585  -5.196  24.456  0.00  0.00    -0.081 Cl
ATOM     20  C   UNL     1       5.688  -3.501  24.456  0.00  0.00    +0.046 A 
ENDBRANCH   8  13
BRANCH   1  22
ATOM     21  C   UNL     1      11.643   3.997  23.359  0.00  0.00    +0.277 C 
ATOM     22  O   UNL     1      10.258   4.026  23.695  0.00  0.00    -0.491 OA
ENDBRANCH   1  22
BRANCH  12  23
ATOM     23  O   UNL     1       8.313   3.385  25.636  0.00  0.00    -0.488 OA
BRANCH  23  24
ATOM     24  C   UNL     1       7.108   3.185  26.372  0.00  0.00    +0.230 C 
BRANCH  24  25
ATOM     25  C   UNL     1       6.280   4.470  26.326  0.00  0.00    +0.056 C 
BRANCH  25  26
ATOM     26  C   UNL     1       6.948   5.644  25.589  0.00  0.00    +0.088 C 
BRANCH  26  27
ATOM     27  N   UNL     1       6.166   6.224  24.485  0.00  0.00    -0.298 NA
ATOM     28  C   UNL     1       5.551   5.162  23.647  0.00  0.00    +0.112 C 
ATOM     29  C   UNL     1       6.519   4.467  22.668  0.00  0.00    +0.175 C 
ATOM     30  O   UNL     1       7.220   5.412  21.850  0.00  0.00    -0.377 OA
ATOM     31  C   UNL     1       7.918   6.360  22.663  0.00  0.00    +0.175 C 
ATOM     32  C   UNL     1       6.943   7.107  23.587  0.00  0.00    +0.112 C 
ENDBRANCH  26  27
ENDBRANCH  25  26
ENDBRANCH  24  25
ENDBRANCH  23  24
ENDBRANCH  12  23
TORSDOF 7
ENDMDL
MODEL 7
REMARK VINA RESULT:      -6.6      4.499      7.984
REMARK  Name = 
REMARK  8 active torsions:
REMARK  status: ('A' for Active; 'I' for Inactive)
REMARK    1  A    between atoms: C_1  and  O_2
REMARK    2  A    between atoms: O_2  and  C_3
REMARK    3  A    between atoms: C_4  and  O_5
REMARK    4  A    between atoms: O_5  and  C_6
REMARK    5  A    between atoms: C_6  and  C_7
REMARK    6  A    between atoms: C_7  and  C_8
REMARK    7  A    between atoms: C_8  and  N_9
REMARK    8  A    between atoms: N_18  and  C_19
REMARK                            x       y       z     vdW  Elec       q    Type
REMARK                         _______ _______ _______ _____ _____    ______ ____
ROOT
ATOM      1  C   UNL     1       9.798   3.402  23.713  0.00  0.00    +0.164 A 
ATOM      2  C   UNL     1      10.190   2.402  22.820  0.00  0.00    +0.078 A 
ATOM      3  C   UNL     1       9.558   1.178  22.765  0.00  0.00    +0.080 A 
ATOM      4  C   UNL     1       8.523   0.896  23.675  0.00  0.00    +0.044 A 
ATOM      5  C   UNL     1       7.949  -0.392  23.542  0.00  0.00    +0.134 A 
ATOM      6  N   UNL     1       8.366  -1.247  22.592  0.00  0.00    -0.220 NA
ATOM      7  C   UNL     1       9.355  -0.857  21.792  0.00  0.00    +0.223 A 
ATOM      8  N   UNL     1       7.005  -0.854  24.494  0.00  0.00    -0.299 N 
ATOM      9  H   UNL     1       6.464  -0.120  24.924  0.00  0.00    +0.154 HD
ATOM     10  C   UNL     1       8.162   1.898  24.626  0.00  0.00    +0.062 A 
ATOM     11  N   UNL     1       9.983   0.319  21.840  0.00  0.00    -0.235 NA
ATOM     12  C   UNL     1       8.788   3.151  24.647  0.00  0.00    +0.163 A 
ENDROOT
BRANCH   8  13
ATOM     13  C   UNL     1       6.504  -2.149  24.751  0.00  0.00    +0.034 A 
ATOM     14  C   UNL     1       5.432  -2.727  24.053  0.00  0.00    +0.026 A 
ATOM     15  C   UNL     1       5.111  -4.081  24.184  0.00  0.00    +0.041 A 
ATOM     16  C   UNL     1       5.860  -4.882  25.028  0.00  0.00    +0.142 A 
ATOM     17  F   UNL     1       5.575  -6.190  25.100  0.00  0.00    -0.204 F 
ATOM     18  C   UNL     1       6.900  -4.331  25.771  0.00  0.00    +0.078 A 
ATOM     19 CL   UNL     1       7.833  -5.318  26.832  0.00  0.00    -0.081 Cl
ATOM     20  C   UNL     1       7.218  -2.975  25.638  0.00  0.00    +0.046 A 
ENDBRANCH   8  13
BRANCH   1  22
ATOM     21  C   UNL     1      11.897   4.390  23.332  0.00  0.00    +0.277 C 
ATOM     22  O   UNL     1      10.508   4.570  23.595  0.00  0.00    -0.491 OA
ENDBRANCH   1  22
BRANCH  12  23
ATOM     23  O   UNL     1       8.509   4.148  25.542  0.00  0.00    -0.488 OA
BRANCH  23  24
ATOM     24  C   UNL     1       7.151   4.370  25.913  0.00  0.00    +0.230 C 
BRANCH  24  25
ATOM     25  C   UNL     1       6.535   5.391  24.956  0.00  0.00    +0.056 C 
BRANCH  25  26
ATOM     26  C   UNL     1       5.191   4.967  24.336  0.00  0.00    +0.088 C 
BRANCH  26  27
ATOM     27  N   UNL     1       5.018   3.520  24.133  0.00  0.00    -0.298 NA
ATOM     28  C   UNL     1       4.783   3.205  22.699  0.00  0.00    +0.112 C 
ATOM     29  C   UNL     1       3.356   3.501  22.195  0.00  0.00    +0.175 C 
ATOM     30  O   UNL     1       2.360   2.881  23.018  0.00  0.00    -0.377 OA
ATOM     31  C   UNL     1       2.510   3.288  24.381  0.00  0.00    +0.175 C 
ATOM     32  C   UNL     1       3.907   2.926  24.908  0.00  0.00    +0.112 C 
ENDBRANCH  26  27
ENDBRANCH  25  26
ENDBRANCH  24  25
ENDBRANCH  23  24
ENDBRANCH  12  23
TORSDOF 7
ENDMDL
MODEL 8
REMARK VINA RESULT:      -6.5      3.815      6.031
REMARK  Name = 
REMARK  8 active torsions:
REMARK  status: ('A' for Active; 'I' for Inactive)
REMARK    1  A    between atoms: C_1  and  O_2
REMARK    2  A    between atoms: O_2  and  C_3
REMARK    3  A    between atoms: C_4  and  O_5
REMARK    4  A    between atoms: O_5  and  C_6
REMARK    5  A    between atoms: C_6  and  C_7
REMARK    6  A    between atoms: C_7  and  C_8
REMARK    7  A    between atoms: C_8  and  N_9
REMARK    8  A    between atoms: N_18  and  C_19
REMARK                            x       y       z     vdW  Elec       q    Type
REMARK                         _______ _______ _______ _____ _____    ______ ____
ROOT
ATOM      1  C   UNL     1       8.430  -3.423  24.029  0.00  0.00    +0.164 A 
ATOM      2  C   UNL     1       8.685  -2.575  25.109  0.00  0.00    +0.078 A 
ATOM      3  C   UNL     1       8.098  -1.332  25.221  0.00  0.00    +0.080 A 
ATOM      4  C   UNL     1       7.260  -0.871  24.190  0.00  0.00    +0.044 A 
ATOM      5  C   UNL     1       6.717   0.421  24.397  0.00  0.00    +0.134 A 
ATOM      6  N   UNL     1       6.981   1.117  25.517  0.00  0.00    -0.220 NA
ATOM      7  C   UNL     1       7.789   0.565  26.419  0.00  0.00    +0.223 A 
ATOM      8  N   UNL     1       5.983   1.060  23.366  0.00  0.00    -0.299 N 
ATOM      9  H   UNL     1       5.506   0.423  22.747  0.00  0.00    +0.154 HD
ATOM     10  C   UNL     1       7.047  -1.716  23.058  0.00  0.00    +0.062 A 
ATOM     11  N   UNL     1       8.373  -0.630  26.319  0.00  0.00    -0.235 NA
ATOM     12  C   UNL     1       7.621  -2.991  22.974  0.00  0.00    +0.163 A 
ENDROOT
BRANCH   8  13
ATOM     13  C   UNL     1       5.585   2.406  23.208  0.00  0.00    +0.034 A 
ATOM     14  C   UNL     1       4.401   2.940  23.741  0.00  0.00    +0.026 A 
ATOM     15  C   UNL     1       4.152   4.314  23.752  0.00  0.00    +0.041 A 
ATOM     16  C   UNL     1       5.088   5.183  23.219  0.00  0.00    +0.142 A 
ATOM     17  F   UNL     1       4.860   6.502  23.287  0.00  0.00    -0.204 F 
ATOM     18  C   UNL     1       6.252   4.684  22.641  0.00  0.00    +0.078 A 
ATOM     19 CL   UNL     1       7.420   5.756  21.966  0.00  0.00    -0.081 Cl
ATOM     20  C   UNL     1       6.497   3.306  22.631  0.00  0.00    +0.046 A 
ENDBRANCH   8  13
BRANCH   1  22
ATOM     21  C   UNL     1       8.964  -5.274  25.378  0.00  0.00    +0.277 C 
ATOM     22  O   UNL     1       9.065  -4.637  24.106  0.00  0.00    -0.491 OA
ENDBRANCH   1  22
BRANCH  12  23
ATOM     23  O   UNL     1       7.478  -3.842  21.912  0.00  0.00    -0.488 OA
BRANCH  23  24
ATOM     24  C   UNL     1       6.162  -4.165  21.470  0.00  0.00    +0.230 C 
BRANCH  24  25
ATOM     25  C   UNL     1       5.886  -5.640  21.768  0.00  0.00    +0.056 C 
BRANCH  25  26
ATOM     26  C   UNL     1       5.883  -6.008  23.262  0.00  0.00    +0.088 C 
BRANCH  26  27
ATOM     27  N   UNL     1       4.592  -5.845  23.950  0.00  0.00    -0.298 NA
ATOM     28  C   UNL     1       4.450  -4.473  24.505  0.00  0.00    +0.112 C 
ATOM     29  C   UNL     1       5.238  -4.216  25.807  0.00  0.00    +0.175 C 
ATOM     30  O   UNL     1       4.948  -5.198  26.808  0.00  0.00    -0.377 OA
ATOM     31  C   UNL     1       5.208  -6.515  26.312  0.00  0.00    +0.175 C 
ATOM     32  C   UNL     1       4.368  -6.800  25.057  0.00  0.00    +0.112 C 
ENDBRANCH  26  27
ENDBRANCH  25  26
ENDBRANCH  24  25
ENDBRANCH  23  24
ENDBRANCH  12  23
TORSDOF 7
ENDMDL
MODEL 9
REMARK VINA RESULT:      -6.4      2.120      4.810
REMARK  Name = 
REMARK  8 active torsions:
REMARK  status: ('A' for Active; 'I' for Inactive)
REMARK    1  A    between atoms: C_1  and  O_2
REMARK    2  A    between atoms: O_2  and  C_3
REMARK    3  A    between atoms: C_4  and  O_5
REMARK    4  A    between atoms: O_5  and  C_6
REMARK    5  A    between atoms: C_6  and  C_7
REMARK    6  A    between atoms: C_7  and  C_8
REMARK    7  A    between atoms: C_8  and  N_9
REMARK    8  A    between atoms: N_18  and  C_19
REMARK                            x       y       z     vdW  Elec       q    Type
REMARK                         _______ _______ _______ _____ _____    ______ ____
ROOT
ATOM      1  C   UNL     1       3.303  -3.390  26.923  0.00  0.00    +0.164 A 
ATOM      2  C   UNL     1       3.668  -2.203  27.563  0.00  0.00    +0.078 A 
ATOM      3  C   UNL     1       4.470  -1.259  26.958  0.00  0.00    +0.080 A 
ATOM      4  C   UNL     1       4.992  -1.518  25.677  0.00  0.00    +0.044 A 
ATOM      5  C   UNL     1       5.813  -0.491  25.151  0.00  0.00    +0.134 A 
ATOM      6  N   UNL     1       6.035   0.645  25.836  0.00  0.00    -0.220 NA
ATOM      7  C   UNL     1       5.480   0.767  27.039  0.00  0.00    +0.223 A 
ATOM      8  N   UNL     1       6.521  -0.694  23.940  0.00  0.00    -0.299 N 
ATOM      9  H   UNL     1       6.071  -1.334  23.304  0.00  0.00    +0.154 HD
ATOM     10  C   UNL     1       4.666  -2.758  25.049  0.00  0.00    +0.062 A 
ATOM     11  N   UNL     1       4.711  -0.142  27.641  0.00  0.00    -0.235 NA
ATOM     12  C   UNL     1       3.820  -3.692  25.660  0.00  0.00    +0.163 A 
ENDROOT
BRANCH   8  13
ATOM     13  C   UNL     1       7.587   0.026  23.355  0.00  0.00    +0.034 A 
ATOM     14  C   UNL     1       7.433   0.915  22.280  0.00  0.00    +0.026 A 
ATOM     15  C   UNL     1       8.464   1.769  21.877  0.00  0.00    +0.041 A 
ATOM     16  C   UNL     1       9.676   1.740  22.545  0.00  0.00    +0.142 A 
ATOM     17  F   UNL     1      10.635   2.603  22.182  0.00  0.00    -0.204 F 
ATOM     18  C   UNL     1       9.877   0.838  23.585  0.00  0.00    +0.078 A 
ATOM     19 CL   UNL     1      11.385   0.787  24.417  0.00  0.00    -0.081 Cl
ATOM     20  C   UNL     1       8.843  -0.016  23.985  0.00  0.00    +0.046 A 
ENDBRANCH   8  13
BRANCH   1  22
ATOM     21  C   UNL     1       3.105  -4.908  28.708  0.00  0.00    +0.277 C 
ATOM     22  O   UNL     1       2.464  -4.189  27.657  0.00  0.00    -0.491 OA
ENDBRANCH   1  22
BRANCH  12  23
ATOM     23  O   UNL     1       3.484  -4.907  25.127  0.00  0.00    -0.488 OA
BRANCH  23  24
ATOM     24  C   UNL     1       3.043  -4.958  23.772  0.00  0.00    +0.230 C 
BRANCH  24  25
ATOM     25  C   UNL     1       3.918  -5.949  23.002  0.00  0.00    +0.056 C 
BRANCH  25  26
ATOM     26  C   UNL     1       5.365  -6.066  23.513  0.00  0.00    +0.088 C 
BRANCH  26  27
ATOM     27  N   UNL     1       6.409  -5.971  22.480  0.00  0.00    -0.298 NA
ATOM     28  C   UNL     1       7.696  -5.506  23.061  0.00  0.00    +0.112 C 
ATOM     29  C   UNL     1       7.768  -3.992  23.349  0.00  0.00    +0.175 C 
ATOM     30  O   UNL     1       7.423  -3.213  22.198  0.00  0.00    -0.377 OA
ATOM     31  C   UNL     1       6.125  -3.575  21.716  0.00  0.00    +0.175 C 
ATOM     32  C   UNL     1       6.074  -5.068  21.357  0.00  0.00    +0.112 C 
ENDBRANCH  26  27
ENDBRANCH  25  26
ENDBRANCH  24  25
ENDBRANCH  23  24
ENDBRANCH  12  23
TORSDOF 7
ENDMDL
