MODEL 1
REMARK VINA RESULT:      -6.6      0.000      0.000
REMARK  Name = 
REMARK  9 active torsions:
REMARK  status: ('A' for Active; 'I' for Inactive)
REMARK    1  A    between atoms: CA_2  and  N_3
REMARK    2  A    between atoms: CA_2  and  C_12
REMARK    3  A    between atoms: CA_2  and  C_15
REMARK    4  A    between atoms: C_4  and  C_6
REMARK    5  A    between atoms: C_6  and  C_7
REMARK    6  A    between atoms: C_12  and  O_13
REMARK    7  A    between atoms: CA_18  and  C_19
REMARK    8  A    between atoms: C_19  and  O_20
REMARK    9  A    between atoms: C_22  and  C_23
REMARK                            x       y       z     vdW  Elec       q    Type
REMARK                         _______ _______ _______ _____ _____    ______ ____
ROOT
ATOM      1  CA  UNL     1       8.874  -3.670  25.051  0.00  0.00    +0.212 C 
ENDROOT
BRANCH   1   2
ATOM      2  C   UNL     1       7.349  -3.656  25.387  0.00  0.00    +0.160 C 
ATOM      3  S   UNL     1       7.083  -4.396  27.021  0.00  0.00    -0.132 S 
ATOM      4  C   UNL     1       5.939  -5.743  26.751  0.00  0.00    +0.103 C 
ATOM      5  C   UNL     1       5.348  -5.974  25.400  0.00  0.00    -0.035 C 
ATOM      6  C   UNL     1       4.403  -7.159  25.433  0.00  0.00    +0.042 C 
ATOM      7  CA  UNL     1       5.619  -5.216  24.322  0.00  0.00    +0.113 C 
ATOM      8  N   UNL     1       6.554  -4.192  24.298  0.00  0.00    -0.325 N 
ATOM      9  H   UNL     1       6.248  -3.424  23.685  0.00  0.00    +0.147 HD
BRANCH   7  10
ATOM     10  C   UNL     1       4.891  -5.451  23.002  0.00  0.00    +0.351 C 
ATOM     11  OXT UNL     1       3.852  -4.931  22.641  0.00  0.00    -0.244 OA
BRANCH  10  12
ATOM     12  O   UNL     1       5.614  -6.291  22.225  0.00  0.00    -0.476 OA
ATOM     13  H   UNL     1       6.480  -6.479  22.642  0.00  0.00    +0.295 HD
ENDBRANCH  10  12
ENDBRANCH   7  10
ENDBRANCH   1   2
BRANCH   1  14
ATOM     14  N   UNL     1       9.189  -2.966  23.792  0.00  0.00    -0.300 N 
ATOM     15  H   UNL     1       9.222  -3.513  22.936  0.00  0.00    +0.150 HD
ATOM     16  C   UNL     1       9.666  -1.681  23.753  0.00  0.00    +0.219 C 
ATOM     17  O   UNL     1      10.003  -1.106  24.786  0.00  0.00    -0.275 OA
BRANCH  16  18
ATOM     18  C   UNL     1       9.820  -1.105  22.358  0.00  0.00    +0.138 C 
BRANCH  18  19
ATOM     19  C   UNL     1       8.957   0.111  22.245  0.00  0.00    -0.001 A 
ATOM     20  S   UNL     1       7.345   0.085  22.829  0.00  0.00    -0.101 S 
ATOM     21  C   UNL     1       7.069   1.694  22.314  0.00  0.00    +0.045 A 
ATOM     22  C   UNL     1       8.182   2.247  21.734  0.00  0.00    +0.008 A 
ATOM     23  C   UNL     1       9.278   1.333  21.692  0.00  0.00    +0.011 A 
ENDBRANCH  18  19
ENDBRANCH  16  18
ENDBRANCH   1  14
BRANCH   1  24
ATOM     24  C   UNL     1       9.382  -5.112  24.926  0.00  0.00    +0.328 C 
ATOM     25  OXT UNL     1       8.992  -5.915  24.088  0.00  0.00    -0.249 OA
BRANCH  24  26
ATOM     26  O   UNL     1      10.275  -5.462  25.886  0.00  0.00    -0.479 OA
ATOM     27  H   UNL     1      10.248  -4.875  26.682  0.00  0.00    +0.295 HD
ENDBRANCH  24  26
ENDBRANCH   1  24
TORSDOF 8
ENDMDL
MODEL 2
REMARK VINA RESULT:      -6.4      1.788      2.326
REMARK  Name = 
REMARK  9 active torsions:
REMARK  status: ('A' for Active; 'I' for Inactive)
REMARK    1  A    between atoms: CA_2  and  N_3
REMARK    2  A    between atoms: CA_2  and  C_12
REMARK    3  A    between atoms: CA_2  and  C_15
REMARK    4  A    between atoms: C_4  and  C_6
REMARK    5  A    between atoms: C_6  and  C_7
REMARK    6  A    between atoms: C_12  and  O_13
REMARK    7  A    between atoms: CA_18  and  C_19
REMARK    8  A    between atoms: C_19  and  O_20
REMARK    9  A    between atoms: C_22  and  C_23
REMARK                            x       y       z     vdW  Elec       q    Type
REMARK                         _______ _______ _______ _____ _____    ______ ____
ROOT
ATOM      1  CA  UNL     1       8.534  -3.631  24.693  0.00  0.00    +0.212 C 
ENDROOT
BRANCH   1   2
ATOM      2  C   UNL     1       7.648  -4.395  23.656  0.00  0.00    +0.160 C 
ATOM      3  S   UNL     1       6.834  -3.201  22.560  0.00  0.00    -0.132 S 
ATOM      4  C   UNL     1       5.084  -3.529  22.719  0.00  0.00    +0.103 C 
ATOM      5  C   UNL     1       4.600  -4.673  23.548  0.00  0.00    -0.035 C 
ATOM      6  C   UNL     1       3.086  -4.749  23.511  0.00  0.00    +0.042 C 
ATOM      7  CA  UNL     1       5.412  -5.515  24.212  0.00  0.00    +0.113 C 
ATOM      8  N   UNL     1       6.789  -5.370  24.300  0.00  0.00    -0.325 N 
ATOM      9  H   UNL     1       7.258  -6.287  24.313  0.00  0.00    +0.147 HD
BRANCH   7  10
ATOM     10  C   UNL     1       4.846  -6.725  24.948  0.00  0.00    +0.351 C 
ATOM     11  OXT UNL     1       4.702  -6.844  26.151  0.00  0.00    -0.244 OA
BRANCH  10  12
ATOM     12  O   UNL     1       4.444  -7.657  24.053  0.00  0.00    -0.476 OA
ATOM     13  H   UNL     1       5.039  -7.660  23.276  0.00  0.00    +0.295 HD
ENDBRANCH  10  12
ENDBRANCH   7  10
ENDBRANCH   1   2
BRANCH   1  14
ATOM     14  N   UNL     1       9.484  -2.699  24.055  0.00  0.00    -0.300 N 
ATOM     15  H   UNL     1      10.186  -3.087  23.432  0.00  0.00    +0.150 HD
ATOM     16  C   UNL     1       9.618  -1.390  24.439  0.00  0.00    +0.219 C 
ATOM     17  O   UNL     1       9.054  -0.971  25.448  0.00  0.00    -0.275 OA
BRANCH  16  18
ATOM     18  C   UNL     1      10.570  -0.573  23.585  0.00  0.00    +0.138 C 
BRANCH  18  19
ATOM     19  C   UNL     1       9.792   0.501  22.896  0.00  0.00    -0.001 A 
ATOM     20  S   UNL     1       9.666   2.062  23.595  0.00  0.00    -0.101 S 
ATOM     21  C   UNL     1       8.662   2.616  22.324  0.00  0.00    +0.045 A 
ATOM     22  C   UNL     1       8.446   1.647  21.378  0.00  0.00    +0.008 A 
ATOM     23  C   UNL     1       9.099   0.420  21.706  0.00  0.00    +0.011 A 
ENDBRANCH  18  19
ENDBRANCH  16  18
ENDBRANCH   1  14
BRANCH   1  24
ATOM     24  C   UNL     1       9.339  -4.622  25.542  0.00  0.00    +0.328 C 
ATOM     25  OXT UNL     1       9.087  -4.902  26.707  0.00  0.00    -0.249 OA
BRANCH  24  26
ATOM     26  O   UNL     1      10.425  -5.130  24.906  0.00  0.00    -0.479 OA
ATOM     27  H   UNL     1      11.041  -5.618  25.507  0.00  0.00    +0.295 HD
ENDBRANCH  24  26
ENDBRANCH   1  24
TORSDOF 8
ENDMDL
MODEL 3
REMARK VINA RESULT:      -6.4      2.124      5.034
REMARK  Name = 
REMARK  9 active torsions:
REMARK  status: ('A' for Active; 'I' for Inactive)
REMARK    1  A    between atoms: CA_2  and  N_3
REMARK    2  A    between atoms: CA_2  and  C_12
REMARK    3  A    between atoms: CA_2  and  C_15
REMARK    4  A    between atoms: C_4  and  C_6
REMARK    5  A    between atoms: C_6  and  C_7
REMARK    6  A    between atoms: C_12  and  O_13
REMARK    7  A    between atoms: CA_18  and  C_19
REMARK    8  A    between atoms: C_19  and  O_20
REMARK    9  A    between atoms: C_22  and  C_23
REMARK                            x       y       z     vdW  Elec       q    Type
REMARK                         _______ _______ _______ _____ _____    ______ ____
ROOT
ATOM      1  CA  UNL     1       9.150  -2.663  23.688  0.00  0.00    +0.212 C 
ENDROOT
BRANCH   1   2
ATOM      2  C   UNL     1       7.861  -2.496  22.821  0.00  0.00    +0.160 C 
ATOM      3  S   UNL     1       6.569  -1.689  23.806  0.00  0.00    -0.132 S 
ATOM      4  C   UNL     1       5.178  -2.811  23.773  0.00  0.00    +0.103 C 
ATOM      5  C   UNL     1       5.228  -4.056  22.949  0.00  0.00    -0.035 C 
ATOM      6  C   UNL     1       3.929  -4.826  23.077  0.00  0.00    +0.042 C 
ATOM      7  CA  UNL     1       6.282  -4.415  22.195  0.00  0.00    +0.113 C 
ATOM      8  N   UNL     1       7.492  -3.736  22.165  0.00  0.00    -0.325 N 
ATOM      9  H   UNL     1       7.910  -3.766  21.224  0.00  0.00    +0.147 HD
BRANCH   7  10
ATOM     10  C   UNL     1       6.214  -5.645  21.297  0.00  0.00    +0.351 C 
ATOM     11  OXT UNL     1       5.954  -5.666  20.108  0.00  0.00    -0.244 OA
BRANCH  10  12
ATOM     12  O   UNL     1       6.563  -6.746  22.003  0.00  0.00    -0.476 OA
ATOM     13  H   UNL     1       6.502  -6.567  22.963  0.00  0.00    +0.295 HD
ENDBRANCH  10  12
ENDBRANCH   7  10
ENDBRANCH   1   2
BRANCH   1  14
ATOM     14  N   UNL     1       8.874  -3.251  25.014  0.00  0.00    -0.300 N 
ATOM     15  H   UNL     1       8.957  -2.648  25.828  0.00  0.00    +0.150 HD
ATOM     16  C   UNL     1       8.750  -4.600  25.221  0.00  0.00    +0.219 C 
ATOM     17  O   UNL     1       9.019  -5.400  24.328  0.00  0.00    -0.275 OA
BRANCH  16  18
ATOM     18  C   UNL     1       8.359  -4.989  26.635  0.00  0.00    +0.138 C 
BRANCH  18  19
ATOM     19  C   UNL     1       6.867  -5.014  26.728  0.00  0.00    -0.001 A 
ATOM     20  S   UNL     1       6.018  -3.684  27.398  0.00  0.00    -0.101 S 
ATOM     21  C   UNL     1       4.510  -4.467  27.199  0.00  0.00    +0.045 A 
ATOM     22  C   UNL     1       4.644  -5.702  26.616  0.00  0.00    +0.008 A 
ATOM     23  C   UNL     1       6.007  -6.022  26.342  0.00  0.00    +0.011 A 
ENDBRANCH  18  19
ENDBRANCH  16  18
ENDBRANCH   1  14
BRANCH   1  24
ATOM     24  C   UNL     1       9.829  -1.304  23.904  0.00  0.00    +0.328 C 
ATOM     25  OXT UNL     1       9.842  -0.696  24.966  0.00  0.00    -0.249 OA
BRANCH  24  26
ATOM     26  O   UNL     1      10.375  -0.781  22.776  0.00  0.00    -0.479 OA
ATOM     27  H   UNL     1      11.319  -1.042  22.639  0.00  0.00    +0.295 HD
ENDBRANCH  24  26
ENDBRANCH   1  24
TORSDOF 8
ENDMDL
MODEL 4
REMARK VINA RESULT:      -6.3      2.249      3.791
REMARK  Name = 
REMARK  9 active torsions:
REMARK  status: ('A' for Active; 'I' for Inactive)
REMARK    1  A    between atoms: CA_2  and  N_3
REMARK    2  A    between atoms: CA_2  and  C_12
REMARK    3  A    between atoms: CA_2  and  C_15
REMARK    4  A    between atoms: C_4  and  C_6
REMARK    5  A    between atoms: C_6  and  C_7
REMARK    6  A    between atoms: C_12  and  O_13
REMARK    7  A    between atoms: CA_18  and  C_19
REMARK    8  A    between atoms: C_19  and  O_20
REMARK    9  A    between atoms: C_22  and  C_23
REMARK                            x       y       z     vdW  Elec       q    Type
REMARK                         _______ _______ _______ _____ _____    ______ ____
ROOT
ATOM      1  CA  UNL     1       6.761  -4.520  22.204  0.00  0.00    +0.212 C 
ENDROOT
BRANCH   1   2
ATOM      2  C   UNL     1       6.143  -5.235  23.449  0.00  0.00    +0.160 C 
ATOM      3  S   UNL     1       4.470  -4.599  23.743  0.00  0.00    -0.132 S 
ATOM      4  C   UNL     1       4.486  -3.980  25.419  0.00  0.00    +0.103 C 
ATOM      5  C   UNL     1       5.696  -4.150  26.278  0.00  0.00    -0.035 C 
ATOM      6  C   UNL     1       5.456  -3.557  27.652  0.00  0.00    +0.042 C 
ATOM      7  CA  UNL     1       6.824  -4.760  25.873  0.00  0.00    +0.113 C 
ATOM      8  N   UNL     1       7.049  -5.216  24.581  0.00  0.00    -0.325 N 
ATOM      9  H   UNL     1       7.613  -6.077  24.586  0.00  0.00    +0.147 HD
BRANCH   7  10
ATOM     10  C   UNL     1       7.977  -4.991  26.844  0.00  0.00    +0.351 C 
ATOM     11  OXT UNL     1       8.989  -4.323  26.944  0.00  0.00    -0.244 OA
BRANCH  10  12
ATOM     12  O   UNL     1       7.687  -6.032  27.659  0.00  0.00    -0.476 OA
ATOM     13  H   UNL     1       7.237  -6.741  27.156  0.00  0.00    +0.295 HD
ENDBRANCH  10  12
ENDBRANCH   7  10
ENDBRANCH   1   2
BRANCH   1  14
ATOM     14  N   UNL     1       6.575  -3.056  22.236  0.00  0.00    -0.300 N 
ATOM     15  H   UNL     1       5.911  -2.646  21.585  0.00  0.00    +0.150 HD
ATOM     16  C   UNL     1       7.412  -2.211  22.918  0.00  0.00    +0.219 C 
ATOM     17  O   UNL     1       8.457  -2.628  23.413  0.00  0.00    -0.275 OA
BRANCH  16  18
ATOM     18  C   UNL     1       6.984  -0.755  22.914  0.00  0.00    +0.138 C 
BRANCH  18  19
ATOM     19  C   UNL     1       8.205   0.101  22.820  0.00  0.00    -0.001 A 
ATOM     20  S   UNL     1       8.857   0.837  24.224  0.00  0.00    -0.101 S 
ATOM     21  C   UNL     1      10.089   1.609  23.322  0.00  0.00    +0.045 A 
ATOM     22  C   UNL     1      10.022   1.298  21.988  0.00  0.00    +0.008 A 
ATOM     23  C   UNL     1       8.932   0.425  21.693  0.00  0.00    +0.011 A 
ENDBRANCH  18  19
ENDBRANCH  16  18
ENDBRANCH   1  14
BRANCH   1  24
ATOM     24  C   UNL     1       6.126  -5.050  20.912  0.00  0.00    +0.328 C 
ATOM     25  OXT UNL     1       5.814  -4.353  19.955  0.00  0.00    -0.249 OA
BRANCH  24  26
ATOM     26  O   UNL     1       5.867  -6.383  20.938  0.00  0.00    -0.479 OA
ATOM     27  H   UNL     1       5.561  -6.741  20.068  0.00  0.00    +0.295 HD
ENDBRANCH  24  26
ENDBRANCH   1  24
TORSDOF 8
ENDMDL
MODEL 5
REMARK VINA RESULT:      -6.3      2.041      2.239
REMARK  Name = 
REMARK  9 active torsions:
REMARK  status: ('A' for Active; 'I' for Inactive)
REMARK    1  A    between atoms: CA_2  and  N_3
REMARK    2  A    between atoms: CA_2  and  C_12
REMARK    3  A    between atoms: CA_2  and  C_15
REMARK    4  A    between atoms: C_4  and  C_6
REMARK    5  A    between atoms: C_6  and  C_7
REMARK    6  A    between atoms: C_12  and  O_13
REMARK    7  A    between atoms: CA_18  and  C_19
REMARK    8  A    between atoms: C_19  and  O_20
REMARK    9  A    between atoms: C_22  and  C_23
REMARK                            x       y       z     vdW  Elec       q    Type
REMARK                         _______ _______ _______ _____ _____    ______ ____
ROOT
ATOM      1  CA  UNL     1       8.018  -2.588  24.952  0.00  0.00    +0.212 C 
ENDROOT
BRANCH   1   2
ATOM      2  C   UNL     1       6.821  -2.552  23.949  0.00  0.00    +0.160 C 
ATOM      3  S   UNL     1       5.265  -2.393  24.869  0.00  0.00    -0.132 S 
ATOM      4  C   UNL     1       4.275  -3.795  24.371  0.00  0.00    +0.103 C 
ATOM      5  C   UNL     1       4.763  -4.729  23.313  0.00  0.00    -0.035 C 
ATOM      6  C   UNL     1       3.741  -5.821  23.061  0.00  0.00    +0.042 C 
ATOM      7  CA  UNL     1       5.939  -4.593  22.675  0.00  0.00    +0.113 C 
ATOM      8  N   UNL     1       6.894  -3.635  22.987  0.00  0.00    -0.325 N 
ATOM      9  H   UNL     1       7.384  -3.312  22.142  0.00  0.00    +0.147 HD
BRANCH   7  10
ATOM     10  C   UNL     1       6.317  -5.526  21.530  0.00  0.00    +0.351 C 
ATOM     11  OXT UNL     1       5.931  -5.459  20.378  0.00  0.00    -0.244 OA
BRANCH  10  12
ATOM     12  O   UNL     1       7.227  -6.431  21.960  0.00  0.00    -0.476 OA
ATOM     13  H   UNL     1       7.887  -6.000  22.540  0.00  0.00    +0.295 HD
ENDBRANCH  10  12
ENDBRANCH   7  10
ENDBRANCH   1   2
BRANCH   1  14
ATOM     14  N   UNL     1       9.076  -1.616  24.614  0.00  0.00    -0.300 N 
ATOM     15  H   UNL     1       9.636  -1.792  23.784  0.00  0.00    +0.150 HD
ATOM     16  C   UNL     1       9.494  -0.636  25.476  0.00  0.00    +0.219 C 
ATOM     17  O   UNL     1       9.107  -0.620  26.643  0.00  0.00    -0.275 OA
BRANCH  16  18
ATOM     18  C   UNL     1      10.514   0.326  24.895  0.00  0.00    +0.138 C 
BRANCH  18  19
ATOM     19  C   UNL     1       9.872   1.086  23.779  0.00  0.00    -0.001 A 
ATOM     20  S   UNL     1       8.717   2.307  24.114  0.00  0.00    -0.101 S 
ATOM     21  C   UNL     1       8.464   2.609  22.449  0.00  0.00    +0.045 A 
ATOM     22  C   UNL     1       9.254   1.818  21.656  0.00  0.00    +0.008 A 
ATOM     23  C   UNL     1      10.072   0.934  22.422  0.00  0.00    +0.011 A 
ENDBRANCH  18  19
ENDBRANCH  16  18
ENDBRANCH   1  14
BRANCH   1  24
ATOM     24  C   UNL     1       8.650  -3.986  24.982  0.00  0.00    +0.328 C 
ATOM     25  OXT UNL     1       9.732  -4.269  24.483  0.00  0.00    -0.249 OA
BRANCH  24  26
ATOM     26  O   UNL     1       7.865  -4.928  25.563  0.00  0.00    -0.479 OA
ATOM     27  H   UNL     1       7.182  -5.303  24.953  0.00  0.00    +0.295 HD
ENDBRANCH  24  26
ENDBRANCH   1  24
TORSDOF 8
ENDMDL
MODEL 6
REMARK VINA RESULT:      -6.3      2.436      3.448
REMARK  Name = 
REMARK  9 active torsions:
REMARK  status: ('A' for Active; 'I' for Inactive)
REMARK    1  A    between atoms: CA_2  and  N_3
REMARK    2  A    between atoms: CA_2  and  C_12
REMARK    3  A    between atoms: CA_2  and  C_15
REMARK    4  A    between atoms: C_4  and  C_6
REMARK    5  A    between atoms: C_6  and  C_7
REMARK    6  A    between atoms: C_12  and  O_13
REMARK    7  A    between atoms: CA_18  and  C_19
REMARK    8  A    between atoms: C_19  and  O_20
REMARK    9  A    between atoms: C_22  and  C_23
REMARK                            x       y       z     vdW  Elec       q    Type
REMARK                         _______ _______ _______ _____ _____    ______ ____
ROOT
ATOM      1  CA  UNL     1       7.457  -3.474  22.754  0.00  0.00    +0.212 C 
ENDROOT
BRANCH   1   2
ATOM      2  C   UNL     1       7.435  -4.899  23.395  0.00  0.00    +0.160 C 
ATOM      3  S   UNL     1       6.118  -5.886  22.631  0.00  0.00    -0.132 S 
ATOM      4  C   UNL     1       5.072  -6.408  23.983  0.00  0.00    +0.103 C 
ATOM      5  C   UNL     1       5.443  -6.090  25.394  0.00  0.00    -0.035 C 
ATOM      6  C   UNL     1       4.409  -6.651  26.351  0.00  0.00    +0.042 C 
ATOM      7  CA  UNL     1       6.551  -5.413  25.744  0.00  0.00    +0.113 C 
ATOM      8  N   UNL     1       7.435  -4.835  24.844  0.00  0.00    -0.325 N 
ATOM      9  H   UNL     1       8.402  -4.885  25.191  0.00  0.00    +0.147 HD
BRANCH   7  10
ATOM     10  C   UNL     1       6.915  -5.222  27.213  0.00  0.00    +0.351 C 
ATOM     11  OXT UNL     1       6.411  -4.435  27.992  0.00  0.00    -0.244 OA
BRANCH  10  12
ATOM     12  O   UNL     1       7.860  -6.124  27.570  0.00  0.00    -0.476 OA
ATOM     13  H   UNL     1       8.000  -6.104  28.538  0.00  0.00    +0.295 HD
ENDBRANCH  10  12
ENDBRANCH   7  10
ENDBRANCH   1   2
BRANCH   1  14
ATOM     14  N   UNL     1       8.467  -2.588  23.366  0.00  0.00    -0.300 N 
ATOM     15  H   UNL     1       8.458  -2.483  24.376  0.00  0.00    +0.150 HD
ATOM     16  C   UNL     1       9.248  -1.730  22.636  0.00  0.00    +0.219 C 
ATOM     17  O   UNL     1       9.031  -1.547  21.440  0.00  0.00    -0.275 OA
BRANCH  16  18
ATOM     18  C   UNL     1      10.298  -0.988  23.443  0.00  0.00    +0.138 C 
BRANCH  18  19
ATOM     19  C   UNL     1       9.858   0.430  23.610  0.00  0.00    -0.001 A 
ATOM     20  S   UNL     1       8.796   0.863  24.885  0.00  0.00    -0.101 S 
ATOM     21  C   UNL     1       8.755   2.497  24.378  0.00  0.00    +0.045 A 
ATOM     22  C   UNL     1       9.548   2.715  23.280  0.00  0.00    +0.008 A 
ATOM     23  C   UNL     1      10.188   1.521  22.832  0.00  0.00    +0.011 A 
ENDBRANCH  18  19
ENDBRANCH  16  18
ENDBRANCH   1  14
BRANCH   1  24
ATOM     24  C   UNL     1       6.087  -2.801  22.897  0.00  0.00    +0.328 C 
ATOM     25  OXT UNL     1       5.625  -2.383  23.952  0.00  0.00    -0.249 OA
BRANCH  24  26
ATOM     26  O   UNL     1       5.374  -2.761  21.742  0.00  0.00    -0.479 OA
ATOM     27  H   UNL     1       5.366  -1.868  21.316  0.00  0.00    +0.295 HD
ENDBRANCH  24  26
ENDBRANCH   1  24
TORSDOF 8
ENDMDL
MODEL 7
REMARK VINA RESULT:      -6.3      2.685      7.328
REMARK  Name = 
REMARK  9 active torsions:
REMARK  status: ('A' for Active; 'I' for Inactive)
REMARK    1  A    between atoms: CA_2  and  N_3
REMARK    2  A    between atoms: CA_2  and  C_12
REMARK    3  A    between atoms: CA_2  and  C_15
REMARK    4  A    between atoms: C_4  and  C_6
REMARK    5  A    between atoms: C_6  and  C_7
REMARK    6  A    between atoms: C_12  and  O_13
REMARK    7  A    between atoms: CA_18  and  C_19
REMARK    8  A    between atoms: C_19  and  O_20
REMARK    9  A    between atoms: C_22  and  C_23
REMARK                            x       y       z     vdW  Elec       q    Type
REMARK                         _______ _______ _______ _____ _____    ______ ____
ROOT
ATOM      1  CA  UNL     1       8.990  -1.578  23.605  0.00  0.00    +0.212 C 
ENDROOT
BRANCH   1   2
ATOM      2  C   UNL     1       9.463  -0.463  24.591  0.00  0.00    +0.160 C 
ATOM      3  S   UNL     1       8.109  -0.042  25.723  0.00  0.00    -0.132 S 
ATOM      4  C   UNL     1       7.850   1.714  25.519  0.00  0.00    +0.103 C 
ATOM      5  C   UNL     1       8.748   2.515  24.634  0.00  0.00    -0.035 C 
ATOM      6  C   UNL     1       8.333   3.973  24.640  0.00  0.00    +0.042 C 
ATOM      7  CA  UNL     1       9.782   1.996  23.948  0.00  0.00    +0.113 C 
ATOM      8  N   UNL     1      10.087   0.644  23.891  0.00  0.00    -0.325 N 
ATOM      9  H   UNL     1      11.104   0.494  23.848  0.00  0.00    +0.147 HD
BRANCH   7  10
ATOM     10  C   UNL     1      10.719   2.898  23.151  0.00  0.00    +0.351 C 
ATOM     11  OXT UNL     1      11.507   3.709  23.601  0.00  0.00    -0.244 OA
BRANCH  10  12
ATOM     12  O   UNL     1      10.606   2.620  21.831  0.00  0.00    -0.476 OA
ATOM     13  H   UNL     1      11.491   2.590  21.414  0.00  0.00    +0.295 HD
ENDBRANCH  10  12
ENDBRANCH   7  10
ENDBRANCH   1   2
BRANCH   1  14
ATOM     14  N   UNL     1       9.070  -2.931  24.190  0.00  0.00    -0.300 N 
ATOM     15  H   UNL     1       9.872  -3.149  24.775  0.00  0.00    +0.150 HD
ATOM     16  C   UNL     1       8.259  -3.964  23.799  0.00  0.00    +0.219 C 
ATOM     17  O   UNL     1       7.523  -3.848  22.821  0.00  0.00    -0.275 OA
BRANCH  16  18
ATOM     18  C   UNL     1       8.428  -5.241  24.601  0.00  0.00    +0.138 C 
BRANCH  18  19
ATOM     19  C   UNL     1       7.401  -5.264  25.686  0.00  0.00    -0.001 A 
ATOM     20  S   UNL     1       5.760  -5.601  25.319  0.00  0.00    -0.101 S 
ATOM     21  C   UNL     1       5.289  -5.397  26.951  0.00  0.00    +0.045 A 
ATOM     22  C   UNL     1       6.356  -5.102  27.762  0.00  0.00    +0.008 A 
ATOM     23  C   UNL     1       7.580  -5.024  27.033  0.00  0.00    +0.011 A 
ENDBRANCH  18  19
ENDBRANCH  16  18
ENDBRANCH   1  14
BRANCH   1  24
ATOM     24  C   UNL     1       9.842  -1.562  22.329  0.00  0.00    +0.328 C 
ATOM     25  OXT UNL     1      11.010  -1.925  22.271  0.00  0.00    -0.249 OA
BRANCH  24  26
ATOM     26  O   UNL     1       9.204  -1.037  21.252  0.00  0.00    -0.479 OA
ATOM     27  H   UNL     1       8.531  -0.353  21.489  0.00  0.00    +0.295 HD
ENDBRANCH  24  26
ENDBRANCH   1  24
TORSDOF 8
ENDMDL
MODEL 8
REMARK VINA RESULT:      -6.2      2.061      2.522
REMARK  Name = 
REMARK  9 active torsions:
REMARK  status: ('A' for Active; 'I' for Inactive)
REMARK    1  A    between atoms: CA_2  and  N_3
REMARK    2  A    between atoms: CA_2  and  C_12
REMARK    3  A    between atoms: CA_2  and  C_15
REMARK    4  A    between atoms: C_4  and  C_6
REMARK    5  A    between atoms: C_6  and  C_7
REMARK    6  A    between atoms: C_12  and  O_13
REMARK    7  A    between atoms: CA_18  and  C_19
REMARK    8  A    between atoms: C_19  and  O_20
REMARK    9  A    between atoms: C_22  and  C_23
REMARK                            x       y       z     vdW  Elec       q    Type
REMARK                         _______ _______ _______ _____ _____    ______ ____
ROOT
ATOM      1  CA  UNL     1       7.549  -3.852  22.931  0.00  0.00    +0.212 C 
ENDROOT
BRANCH   1   2
ATOM      2  C   UNL     1       6.543  -3.646  24.109  0.00  0.00    +0.160 C 
ATOM      3  S   UNL     1       7.463  -3.373  25.649  0.00  0.00    -0.132 S 
ATOM      4  C   UNL     1       6.893  -4.642  26.772  0.00  0.00    +0.103 C 
ATOM      5  C   UNL     1       5.793  -5.569  26.371  0.00  0.00    -0.035 C 
ATOM      6  C   UNL     1       5.483  -6.538  27.496  0.00  0.00    +0.042 C 
ATOM      7  CA  UNL     1       5.168  -5.523  25.181  0.00  0.00    +0.113 C 
ATOM      8  N   UNL     1       5.530  -4.683  24.137  0.00  0.00    -0.325 N 
ATOM      9  H   UNL     1       4.704  -4.372  23.608  0.00  0.00    +0.147 HD
BRANCH   7  10
ATOM     10  C   UNL     1       3.980  -6.434  24.889  0.00  0.00    +0.351 C 
ATOM     11  OXT UNL     1       2.828  -6.262  25.238  0.00  0.00    -0.244 OA
BRANCH  10  12
ATOM     12  O   UNL     1       4.376  -7.461  24.101  0.00  0.00    -0.476 OA
ATOM     13  H   UNL     1       5.298  -7.714  24.310  0.00  0.00    +0.295 HD
ENDBRANCH  10  12
ENDBRANCH   7  10
ENDBRANCH   1   2
BRANCH   1  14
ATOM     14  N   UNL     1       7.839  -2.601  22.203  0.00  0.00    -0.300 N 
ATOM     15  H   UNL     1       7.178  -2.300  21.492  0.00  0.00    +0.150 HD
ATOM     16  C   UNL     1       9.052  -1.964  22.265  0.00  0.00    +0.219 C 
ATOM     17  O   UNL     1      10.012  -2.497  22.816  0.00  0.00    -0.275 OA
BRANCH  16  18
ATOM     18  C   UNL     1       9.108  -0.637  21.531  0.00  0.00    +0.138 C 
BRANCH  18  19
ATOM     19  C   UNL     1       9.399   0.445  22.521  0.00  0.00    -0.001 A 
ATOM     20  S   UNL     1       8.630   0.446  24.053  0.00  0.00    -0.101 S 
ATOM     21  C   UNL     1       9.398   1.906  24.506  0.00  0.00    +0.045 A 
ATOM     22  C   UNL     1      10.238   2.371  23.526  0.00  0.00    +0.008 A 
ATOM     23  C   UNL     1      10.242   1.527  22.375  0.00  0.00    +0.011 A 
ENDBRANCH  18  19
ENDBRANCH  16  18
ENDBRANCH   1  14
BRANCH   1  24
ATOM     24  C   UNL     1       6.995  -4.869  21.926  0.00  0.00    +0.328 C 
ATOM     25  OXT UNL     1       7.411  -6.013  21.796  0.00  0.00    -0.249 OA
BRANCH  24  26
ATOM     26  O   UNL     1       6.024  -4.368  21.120  0.00  0.00    -0.479 OA
ATOM     27  H   UNL     1       6.007  -4.780  20.221  0.00  0.00    +0.295 HD
ENDBRANCH  24  26
ENDBRANCH   1  24
TORSDOF 8
ENDMDL
MODEL 9
REMARK VINA RESULT:      -6.2      2.359      3.268
REMARK  Name = 
REMARK  9 active torsions:
REMARK  status: ('A' for Active; 'I' for Inactive)
REMARK    1  A    between atoms: CA_2  and  N_3
REMARK    2  A    between atoms: CA_2  and  C_12
REMARK    3  A    between atoms: CA_2  and  C_15
REMARK    4  A    between atoms: C_4  and  C_6
REMARK    5  A    between atoms: C_6  and  C_7
REMARK    6  A    between atoms: C_12  and  O_13
REMARK    7  A    between atoms: CA_18  and  C_19
REMARK    8  A    between atoms: C_19  and  O_20
REMARK    9  A    between atoms: C_22  and  C_23
REMARK                            x       y       z     vdW  Elec       q    Type
REMARK                         _______ _______ _______ _____ _____    ______ ____
ROOT
ATOM      1  CA  UNL     1       8.762  -1.052  23.600  0.00  0.00    +0.212 C 
ENDROOT
BRANCH   1   2
ATOM      2  C   UNL     1       7.339  -1.455  23.095  0.00  0.00    +0.160 C 
ATOM      3  S   UNL     1       6.131  -1.199  24.423  0.00  0.00    -0.132 S 
ATOM      4  C   UNL     1       5.347  -2.787  24.663  0.00  0.00    +0.103 C 
ATOM      5  C   UNL     1       5.678  -3.938  23.770  0.00  0.00    -0.035 C 
ATOM      6  C   UNL     1       4.875  -5.161  24.166  0.00  0.00    +0.042 C 
ATOM      7  CA  UNL     1       6.557  -3.871  22.755  0.00  0.00    +0.113 C 
ATOM      8  N   UNL     1       7.343  -2.764  22.469  0.00  0.00    -0.325 N 
ATOM      9  H   UNL     1       7.482  -2.660  21.455  0.00  0.00    +0.147 HD
BRANCH   7  10
ATOM     10  C   UNL     1       6.760  -5.059  21.820  0.00  0.00    +0.351 C 
ATOM     11  OXT UNL     1       7.487  -6.017  22.008  0.00  0.00    -0.244 OA
BRANCH  10  12
ATOM     12  O   UNL     1       5.944  -4.941  20.747  0.00  0.00    -0.476 OA
ATOM     13  H   UNL     1       5.280  -4.238  20.901  0.00  0.00    +0.295 HD
ENDBRANCH  10  12
ENDBRANCH   7  10
ENDBRANCH   1   2
BRANCH   1  14
ATOM     14  N   UNL     1       9.166   0.296  23.153  0.00  0.00    -0.300 N 
ATOM     15  H   UNL     1       8.997   0.546  22.182  0.00  0.00    +0.150 HD
ATOM     16  C   UNL     1       9.960   1.125  23.902  0.00  0.00    +0.219 C 
ATOM     17  O   UNL     1      10.503   0.716  24.926  0.00  0.00    -0.275 OA
BRANCH  16  18
ATOM     18  C   UNL     1      10.168   2.507  23.312  0.00  0.00    +0.138 C 
BRANCH  18  19
ATOM     19  C   UNL     1       8.890   3.274  23.429  0.00  0.00    -0.001 A 
ATOM     20  S   UNL     1       8.384   3.888  24.947  0.00  0.00    -0.101 S 
ATOM     21  C   UNL     1       6.943   4.524  24.279  0.00  0.00    +0.045 A 
ATOM     22  C   UNL     1       6.857   4.297  22.929  0.00  0.00    +0.008 A 
ATOM     23  C   UNL     1       7.983   3.573  22.433  0.00  0.00    +0.011 A 
ENDBRANCH  18  19
ENDBRANCH  16  18
ENDBRANCH   1  14
BRANCH   1  24
ATOM     24  C   UNL     1       9.811  -2.052  23.099  0.00  0.00    +0.328 C 
ATOM     25  OXT UNL     1      10.216  -3.013  23.741  0.00  0.00    -0.249 OA
BRANCH  24  26
ATOM     26  O   UNL     1      10.321  -1.744  21.879  0.00  0.00    -0.479 OA
ATOM     27  H   UNL     1       9.628  -1.560  21.198  0.00  0.00    +0.295 HD
ENDBRANCH  24  26
ENDBRANCH   1  24
TORSDOF 8
ENDMDL
