MODEL 1
REMARK VINA RESULT:      -6.7      0.000      0.000
REMARK  Name = 
REMARK  8 active torsions:
REMARK  status: ('A' for Active; 'I' for Inactive)
REMARK    1  A    between atoms: C_2  and  C_3
REMARK    2  A    between atoms: C_2  and  N_14
REMARK    3  A    between atoms: C_2  and  C_26
REMARK    4  A    between atoms: C_3  and  C_4
REMARK    5  A    between atoms: C_7  and  N_8
REMARK    6  A    between atoms: C_15  and  C_17
REMARK    7  A    between atoms: C_17  and  S_18
REMARK    8  A    between atoms: S_18  and  C_19
REMARK                            x       y       z     vdW  Elec       q    Type
REMARK                         _______ _______ _______ _____ _____    ______ ____
ROOT
ATOM      1  C   UNL     1       8.759  -2.333  23.166  0.00  0.00    +0.163 C 
ENDROOT
BRANCH   1   2
ATOM      2  C   UNL     1       8.771  -3.727  23.819  0.00  0.00    +0.231 C 
ATOM      3  O   UNL     1       9.582  -4.086  24.669  0.00  0.00    -0.274 OA
ATOM      4  N   UNL     1       7.707  -4.522  23.488  0.00  0.00    -0.328 N 
ATOM      5  H   UNL     1       7.607  -5.394  23.992  0.00  0.00    +0.145 HD
ATOM      6  H   UNL     1       6.867  -4.102  23.101  0.00  0.00    +0.145 HD
ENDBRANCH   1   2
BRANCH   1   7
ATOM      7  N   UNL     1       7.912  -1.468  23.992  0.00  0.00    -0.303 N 
ATOM      8  H   UNL     1       8.318  -1.048  24.821  0.00  0.00    +0.149 HD
ATOM      9  C   UNL     1       6.548  -1.387  23.819  0.00  0.00    +0.224 C 
ATOM     10  O   UNL     1       5.956  -2.048  22.966  0.00  0.00    -0.275 OA
BRANCH   9  11
ATOM     11  C   UNL     1       5.819  -0.491  24.817  0.00  0.00    +0.170 C 
BRANCH  11  12
ATOM     12  S   UNL     1       6.995   0.684  25.575  0.00  0.00    -0.116 S 
BRANCH  12  13
ATOM     13  C   UNL     1       7.002   2.090  24.468  0.00  0.00    +0.008 A 
ATOM     14  C   UNL     1       7.433   3.307  25.023  0.00  0.00    +0.016 A 
ATOM     15  C   UNL     1       7.485   4.475  24.259  0.00  0.00    +0.021 A 
ATOM     16  C   UNL     1       7.106   4.438  22.923  0.00  0.00    +0.041 A 
ATOM     17 CL   UNL     1       7.172   5.870  21.973  0.00  0.00    -0.084 Cl
ATOM     18  C   UNL     1       6.670   3.243  22.354  0.00  0.00    +0.021 A 
ATOM     19  C   UNL     1       6.621   2.071  23.124  0.00  0.00    +0.016 A 
ENDBRANCH  12  13
ENDBRANCH  11  12
ENDBRANCH   9  11
ENDBRANCH   1   7
BRANCH   1  20
ATOM     20  C   UNL     1      10.181  -1.753  23.066  0.00  0.00    +0.067 C 
BRANCH  20  21
ATOM     21  C   UNL     1      10.221  -0.243  23.044  0.00  0.00    -0.045 A 
ATOM     22  C   UNL     1      10.630   0.463  24.180  0.00  0.00    +0.007 A 
ATOM     23  C   UNL     1      10.755   1.857  24.147  0.00  0.00    +0.042 A 
ATOM     24  C   UNL     1      10.479   2.578  22.980  0.00  0.00    +0.100 A 
ATOM     25  C   UNL     1      10.000   1.873  21.871  0.00  0.00    +0.042 A 
ATOM     26  C   UNL     1       9.875   0.479  21.896  0.00  0.00    +0.007 A 
BRANCH  24  27
ATOM     27  N   UNL     1      10.649   3.972  22.988  0.00  0.00    -0.244 N 
ATOM     28  H   UNL     1       9.805   4.500  22.818  0.00  0.00    +0.265 HD
ATOM     29  C   UNL     1      11.704   4.682  23.449  0.00  0.00    +0.381 C 
ATOM     30  N   UNL     1      12.951   4.385  23.366  0.00  0.00    -0.129 NA
ATOM     31  H   UNL     1      13.020   3.503  22.845  0.00  0.00    +0.306 HD
ATOM     32  N   UNL     1      11.355   5.858  24.015  0.00  0.00    -0.289 N 
ATOM     33  H   UNL     1      12.199   6.307  24.371  0.00  0.00    +0.255 HD
ATOM     34  H   UNL     1      10.693   5.745  24.773  0.00  0.00    +0.255 HD
ENDBRANCH  24  27
ENDBRANCH  20  21
ENDBRANCH   1  20
TORSDOF 8
ENDMDL
MODEL 2
REMARK VINA RESULT:      -6.4      3.581      5.758
REMARK  Name = 
REMARK  8 active torsions:
REMARK  status: ('A' for Active; 'I' for Inactive)
REMARK    1  A    between atoms: C_2  and  C_3
REMARK    2  A    between atoms: C_2  and  N_14
REMARK    3  A    between atoms: C_2  and  C_26
REMARK    4  A    between atoms: C_3  and  C_4
REMARK    5  A    between atoms: C_7  and  N_8
REMARK    6  A    between atoms: C_15  and  C_17
REMARK    7  A    between atoms: C_17  and  S_18
REMARK    8  A    between atoms: S_18  and  C_19
REMARK                            x       y       z     vdW  Elec       q    Type
REMARK                         _______ _______ _______ _____ _____    ______ ____
ROOT
ATOM      1  C   UNL     1       9.140  -1.261  24.284  0.00  0.00    +0.163 C 
ENDROOT
BRANCH   1   2
ATOM      2  C   UNL     1       9.630  -1.620  22.870  0.00  0.00    +0.231 C 
ATOM      3  O   UNL     1      10.787  -1.934  22.598  0.00  0.00    -0.274 OA
ATOM      4  N   UNL     1       8.642  -1.705  21.927  0.00  0.00    -0.328 N 
ATOM      5  H   UNL     1       8.902  -2.062  21.016  0.00  0.00    +0.145 HD
ATOM      6  H   UNL     1       7.676  -1.817  22.220  0.00  0.00    +0.145 HD
ENDBRANCH   1   2
BRANCH   1   7
ATOM      7  N   UNL     1       9.212  -2.479  25.096  0.00  0.00    -0.303 N 
ATOM      8  H   UNL     1       9.877  -3.196  24.829  0.00  0.00    +0.149 HD
ATOM      9  C   UNL     1       8.271  -2.783  26.055  0.00  0.00    +0.224 C 
ATOM     10  O   UNL     1       7.305  -2.055  26.279  0.00  0.00    -0.275 OA
BRANCH   9  11
ATOM     11  C   UNL     1       8.467  -4.127  26.752  0.00  0.00    +0.170 C 
BRANCH  11  12
ATOM     12  S   UNL     1       6.974  -5.160  26.545  0.00  0.00    -0.116 S 
BRANCH  12  13
ATOM     13  C   UNL     1       6.816  -5.373  24.776  0.00  0.00    +0.008 A 
ATOM     14  C   UNL     1       5.510  -5.572  24.295  0.00  0.00    +0.016 A 
ATOM     15  C   UNL     1       5.258  -5.749  22.932  0.00  0.00    +0.021 A 
ATOM     16  C   UNL     1       6.315  -5.727  22.030  0.00  0.00    +0.041 A 
ATOM     17 CL   UNL     1       6.014  -5.937  20.351  0.00  0.00    -0.084 Cl
ATOM     18  C   UNL     1       7.618  -5.537  22.487  0.00  0.00    +0.021 A 
ATOM     19  C   UNL     1       7.867  -5.357  23.856  0.00  0.00    +0.016 A 
ENDBRANCH  12  13
ENDBRANCH  11  12
ENDBRANCH   9  11
ENDBRANCH   1   7
BRANCH   1  20
ATOM     20  C   UNL     1      10.002  -0.149  24.907  0.00  0.00    +0.067 C 
BRANCH  20  21
ATOM     21  C   UNL     1       9.584   1.245  24.503  0.00  0.00    -0.045 A 
ATOM     22  C   UNL     1      10.312   1.940  23.531  0.00  0.00    +0.007 A 
ATOM     23  C   UNL     1       9.886   3.196  23.084  0.00  0.00    +0.042 A 
ATOM     24  C   UNL     1       8.724   3.787  23.593  0.00  0.00    +0.100 A 
ATOM     25  C   UNL     1       8.043   3.120  24.617  0.00  0.00    +0.042 A 
ATOM     26  C   UNL     1       8.462   1.862  25.066  0.00  0.00    +0.007 A 
BRANCH  24  27
ATOM     27  N   UNL     1       8.322   5.035  23.091  0.00  0.00    -0.244 N 
ATOM     28  H   UNL     1       8.990   5.780  23.227  0.00  0.00    +0.265 HD
ATOM     29  C   UNL     1       7.311   5.303  22.233  0.00  0.00    +0.381 C 
ATOM     30  N   UNL     1       6.154   4.746  22.179  0.00  0.00    -0.129 NA
ATOM     31  H   UNL     1       6.111   4.061  22.942  0.00  0.00    +0.306 HD
ATOM     32  N   UNL     1       7.580   6.318  21.383  0.00  0.00    -0.289 N 
ATOM     33  H   UNL     1       6.789   6.425  20.749  0.00  0.00    +0.255 HD
ATOM     34  H   UNL     1       8.422   6.160  20.842  0.00  0.00    +0.255 HD
ENDBRANCH  24  27
ENDBRANCH  20  21
ENDBRANCH   1  20
TORSDOF 8
ENDMDL
MODEL 3
REMARK VINA RESULT:      -6.4      3.622      5.532
REMARK  Name = 
REMARK  8 active torsions:
REMARK  status: ('A' for Active; 'I' for Inactive)
REMARK    1  A    between atoms: C_2  and  C_3
REMARK    2  A    between atoms: C_2  and  N_14
REMARK    3  A    between atoms: C_2  and  C_26
REMARK    4  A    between atoms: C_3  and  C_4
REMARK    5  A    between atoms: C_7  and  N_8
REMARK    6  A    between atoms: C_15  and  C_17
REMARK    7  A    between atoms: C_17  and  S_18
REMARK    8  A    between atoms: S_18  and  C_19
REMARK                            x       y       z     vdW  Elec       q    Type
REMARK                         _______ _______ _______ _____ _____    ______ ____
ROOT
ATOM      1  C   UNL     1       6.357  -4.487  22.745  0.00  0.00    +0.163 C 
ENDROOT
BRANCH   1   2
ATOM      2  C   UNL     1       5.981  -4.903  21.311  0.00  0.00    +0.231 C 
ATOM      3  O   UNL     1       5.766  -4.112  20.396  0.00  0.00    -0.274 OA
ATOM      4  N   UNL     1       6.036  -6.250  21.074  0.00  0.00    -0.328 N 
ATOM      5  H   UNL     1       5.921  -6.555  20.116  0.00  0.00    +0.145 HD
ATOM      6  H   UNL     1       6.564  -6.849  21.700  0.00  0.00    +0.145 HD
ENDBRANCH   1   2
BRANCH   1   7
ATOM      7  N   UNL     1       5.978  -5.589  23.634  0.00  0.00    -0.303 N 
ATOM      8  H   UNL     1       6.593  -6.392  23.695  0.00  0.00    +0.149 HD
ATOM      9  C   UNL     1       4.728  -5.679  24.207  0.00  0.00    +0.224 C 
ATOM     10  O   UNL     1       3.849  -4.844  23.995  0.00  0.00    -0.275 OA
BRANCH   9  11
ATOM     11  C   UNL     1       4.487  -6.931  25.046  0.00  0.00    +0.170 C 
BRANCH  11  12
ATOM     12  S   UNL     1       4.834  -6.579  26.805  0.00  0.00    -0.116 S 
BRANCH  12  13
ATOM     13  C   UNL     1       5.992  -5.215  26.771  0.00  0.00    +0.008 A 
ATOM     14  C   UNL     1       5.433  -3.930  26.876  0.00  0.00    +0.016 A 
ATOM     15  C   UNL     1       6.235  -2.786  26.863  0.00  0.00    +0.021 A 
ATOM     16  C   UNL     1       7.613  -2.916  26.746  0.00  0.00    +0.041 A 
ATOM     17 CL   UNL     1       8.608  -1.514  26.736  0.00  0.00    -0.084 Cl
ATOM     18  C   UNL     1       8.188  -4.180  26.635  0.00  0.00    +0.021 A 
ATOM     19  C   UNL     1       7.380  -5.328  26.651  0.00  0.00    +0.016 A 
ENDBRANCH  12  13
ENDBRANCH  11  12
ENDBRANCH   9  11
ENDBRANCH   1   7
BRANCH   1  20
ATOM     20  C   UNL     1       7.863  -4.196  22.864  0.00  0.00    +0.067 C 
BRANCH  20  21
ATOM     21  C   UNL     1       8.182  -2.746  23.144  0.00  0.00    -0.045 A 
ATOM     22  C   UNL     1       9.508  -2.345  23.336  0.00  0.00    +0.007 A 
ATOM     23  C   UNL     1       9.826  -0.993  23.510  0.00  0.00    +0.042 A 
ATOM     24  C   UNL     1       8.832  -0.010  23.494  0.00  0.00    +0.100 A 
ATOM     25  C   UNL     1       7.501  -0.425  23.376  0.00  0.00    +0.042 A 
ATOM     26  C   UNL     1       7.175  -1.776  23.199  0.00  0.00    +0.007 A 
BRANCH  24  27
ATOM     27  N   UNL     1       9.205   1.335  23.642  0.00  0.00    -0.244 N 
ATOM     28  H   UNL     1       9.084   1.706  24.574  0.00  0.00    +0.265 HD
ATOM     29  C   UNL     1       9.937   2.096  22.797  0.00  0.00    +0.381 C 
ATOM     30  N   UNL     1       9.915   2.094  21.513  0.00  0.00    -0.129 NA
ATOM     31  H   UNL     1       9.200   1.416  21.223  0.00  0.00    +0.306 HD
ATOM     32  N   UNL     1      10.739   2.983  23.429  0.00  0.00    -0.289 N 
ATOM     33  H   UNL     1      11.282   3.483  22.726  0.00  0.00    +0.255 HD
ATOM     34  H   UNL     1      11.370   2.539  24.085  0.00  0.00    +0.255 HD
ENDBRANCH  24  27
ENDBRANCH  20  21
ENDBRANCH   1  20
TORSDOF 8
ENDMDL
MODEL 4
REMARK VINA RESULT:      -6.3      3.027      4.467
REMARK  Name = 
REMARK  8 active torsions:
REMARK  status: ('A' for Active; 'I' for Inactive)
REMARK    1  A    between atoms: C_2  and  C_3
REMARK    2  A    between atoms: C_2  and  N_14
REMARK    3  A    between atoms: C_2  and  C_26
REMARK    4  A    between atoms: C_3  and  C_4
REMARK    5  A    between atoms: C_7  and  N_8
REMARK    6  A    between atoms: C_15  and  C_17
REMARK    7  A    between atoms: C_17  and  S_18
REMARK    8  A    between atoms: S_18  and  C_19
REMARK                            x       y       z     vdW  Elec       q    Type
REMARK                         _______ _______ _______ _____ _____    ______ ____
ROOT
ATOM      1  C   UNL     1       6.383  -3.988  22.512  0.00  0.00    +0.163 C 
ENDROOT
BRANCH   1   2
ATOM      2  C   UNL     1       6.070  -5.068  21.461  0.00  0.00    +0.231 C 
ATOM      3  O   UNL     1       5.924  -4.845  20.262  0.00  0.00    -0.274 OA
ATOM      4  N   UNL     1       6.098  -6.352  21.936  0.00  0.00    -0.328 N 
ATOM      5  H   UNL     1       6.024  -7.097  21.256  0.00  0.00    +0.145 HD
ATOM      6  H   UNL     1       6.576  -6.554  22.808  0.00  0.00    +0.145 HD
ENDBRANCH   1   2
BRANCH   1   7
ATOM      7  N   UNL     1       6.077  -4.555  23.828  0.00  0.00    -0.303 N 
ATOM      8  H   UNL     1       6.470  -5.458  24.066  0.00  0.00    +0.149 HD
ATOM      9  C   UNL     1       5.108  -4.025  24.654  0.00  0.00    +0.224 C 
ATOM     10  O   UNL     1       4.433  -3.050  24.328  0.00  0.00    -0.275 OA
BRANCH   9  11
ATOM     11  C   UNL     1       4.877  -4.789  25.955  0.00  0.00    +0.170 C 
BRANCH  11  12
ATOM     12  S   UNL     1       5.352  -3.750  27.381  0.00  0.00    -0.116 S 
BRANCH  12  13
ATOM     13  C   UNL     1       6.731  -2.776  26.788  0.00  0.00    +0.008 A 
ATOM     14  C   UNL     1       6.524  -1.387  26.732  0.00  0.00    +0.016 A 
ATOM     15  C   UNL     1       7.527  -0.521  26.288  0.00  0.00    +0.021 A 
ATOM     16  C   UNL     1       8.755  -1.038  25.895  0.00  0.00    +0.041 A 
ATOM     17 CL   UNL     1       9.996   0.020  25.353  0.00  0.00    -0.084 Cl
ATOM     18  C   UNL     1       8.979  -2.413  25.937  0.00  0.00    +0.021 A 
ATOM     19  C   UNL     1       7.971  -3.280  26.386  0.00  0.00    +0.016 A 
ENDBRANCH  12  13
ENDBRANCH  11  12
ENDBRANCH   9  11
ENDBRANCH   1   7
BRANCH   1  20
ATOM     20  C   UNL     1       7.857  -3.555  22.444  0.00  0.00    +0.067 C 
BRANCH  20  21
ATOM     21  C   UNL     1       8.049  -2.059  22.355  0.00  0.00    -0.045 A 
ATOM     22  C   UNL     1       9.238  -1.535  21.836  0.00  0.00    +0.007 A 
ATOM     23  C   UNL     1       9.394  -0.154  21.667  0.00  0.00    +0.042 A 
ATOM     24  C   UNL     1       8.370   0.735  22.008  0.00  0.00    +0.100 A 
ATOM     25  C   UNL     1       7.214   0.210  22.595  0.00  0.00    +0.042 A 
ATOM     26  C   UNL     1       7.049  -1.170  22.764  0.00  0.00    +0.007 A 
BRANCH  24  27
ATOM     27  N   UNL     1       8.564   2.109  21.791  0.00  0.00    -0.244 N 
ATOM     28  H   UNL     1       8.510   2.394  20.823  0.00  0.00    +0.265 HD
ATOM     29  C   UNL     1       8.541   3.109  22.700  0.00  0.00    +0.381 C 
ATOM     30  N   UNL     1       8.986   3.090  23.905  0.00  0.00    -0.129 NA
ATOM     31  H   UNL     1       9.406   2.166  24.059  0.00  0.00    +0.306 HD
ATOM     32  N   UNL     1       8.020   4.261  22.222  0.00  0.00    -0.289 N 
ATOM     33  H   UNL     1       8.001   4.944  22.978  0.00  0.00    +0.255 HD
ATOM     34  H   UNL     1       7.083   4.143  21.856  0.00  0.00    +0.255 HD
ENDBRANCH  24  27
ENDBRANCH  20  21
ENDBRANCH   1  20
TORSDOF 8
ENDMDL
MODEL 5
REMARK VINA RESULT:      -6.3      3.469      6.721
REMARK  Name = 
REMARK  8 active torsions:
REMARK  status: ('A' for Active; 'I' for Inactive)
REMARK    1  A    between atoms: C_2  and  C_3
REMARK    2  A    between atoms: C_2  and  N_14
REMARK    3  A    between atoms: C_2  and  C_26
REMARK    4  A    between atoms: C_3  and  C_4
REMARK    5  A    between atoms: C_7  and  N_8
REMARK    6  A    between atoms: C_15  and  C_17
REMARK    7  A    between atoms: C_17  and  S_18
REMARK    8  A    between atoms: S_18  and  C_19
REMARK                            x       y       z     vdW  Elec       q    Type
REMARK                         _______ _______ _______ _____ _____    ______ ____
ROOT
ATOM      1  C   UNL     1       9.918   1.868  24.283  0.00  0.00    +0.163 C 
ENDROOT
BRANCH   1   2
ATOM      2  C   UNL     1      10.310   2.759  23.091  0.00  0.00    +0.231 C 
ATOM      3  O   UNL     1      10.893   3.837  23.195  0.00  0.00    -0.274 OA
ATOM      4  N   UNL     1      10.088   2.201  21.862  0.00  0.00    -0.328 N 
ATOM      5  H   UNL     1      10.447   2.697  21.056  0.00  0.00    +0.145 HD
ATOM      6  H   UNL     1       9.966   1.196  21.782  0.00  0.00    +0.145 HD
ENDBRANCH   1   2
BRANCH   1   7
ATOM      7  N   UNL     1       8.519   1.474  24.093  0.00  0.00    -0.303 N 
ATOM      8  H   UNL     1       8.316   0.714  23.454  0.00  0.00    +0.149 HD
ATOM      9  C   UNL     1       7.468   2.230  24.566  0.00  0.00    +0.224 C 
ATOM     10  O   UNL     1       7.642   3.290  25.165  0.00  0.00    -0.275 OA
BRANCH   9  11
ATOM     11  C   UNL     1       6.080   1.703  24.213  0.00  0.00    +0.170 C 
BRANCH  11  12
ATOM     12  S   UNL     1       5.642   0.313  25.316  0.00  0.00    -0.116 S 
BRANCH  12  13
ATOM     13  C   UNL     1       5.810  -1.144  24.291  0.00  0.00    +0.008 A 
ATOM     14  C   UNL     1       5.167  -2.303  24.760  0.00  0.00    +0.016 A 
ATOM     15  C   UNL     1       5.224  -3.503  24.047  0.00  0.00    +0.021 A 
ATOM     16  C   UNL     1       5.927  -3.557  22.850  0.00  0.00    +0.041 A 
ATOM     17 CL   UNL     1       5.997  -5.028  21.963  0.00  0.00    -0.084 Cl
ATOM     18  C   UNL     1       6.577  -2.422  22.371  0.00  0.00    +0.021 A 
ATOM     19  C   UNL     1       6.516  -1.217  23.088  0.00  0.00    +0.016 A 
ENDBRANCH  12  13
ENDBRANCH  11  12
ENDBRANCH   9  11
ENDBRANCH   1   7
BRANCH   1  20
ATOM     20  C   UNL     1      10.818   0.624  24.369  0.00  0.00    +0.067 C 
BRANCH  20  21
ATOM     21  C   UNL     1      10.072  -0.645  24.709  0.00  0.00    -0.045 A 
ATOM     22  C   UNL     1      10.115  -1.738  23.837  0.00  0.00    +0.007 A 
ATOM     23  C   UNL     1       9.500  -2.948  24.180  0.00  0.00    +0.042 A 
ATOM     24  C   UNL     1       8.832  -3.098  25.399  0.00  0.00    +0.100 A 
ATOM     25  C   UNL     1       8.729  -1.978  26.233  0.00  0.00    +0.042 A 
ATOM     26  C   UNL     1       9.344  -0.766  25.898  0.00  0.00    +0.007 A 
BRANCH  24  27
ATOM     27  N   UNL     1       8.258  -4.340  25.711  0.00  0.00    -0.244 N 
ATOM     28  H   UNL     1       8.586  -5.110  25.144  0.00  0.00    +0.265 HD
ATOM     29  C   UNL     1       7.552  -4.682  26.812  0.00  0.00    +0.381 C 
ATOM     30  N   UNL     1       6.703  -3.966  27.459  0.00  0.00    -0.129 NA
ATOM     31  H   UNL     1       6.623  -3.070  26.964  0.00  0.00    +0.306 HD
ATOM     32  N   UNL     1       7.765  -5.954  27.216  0.00  0.00    -0.289 N 
ATOM     33  H   UNL     1       7.231  -6.114  28.070  0.00  0.00    +0.255 HD
ATOM     34  H   UNL     1       8.743  -6.149  27.392  0.00  0.00    +0.255 HD
ENDBRANCH  24  27
ENDBRANCH  20  21
ENDBRANCH   1  20
TORSDOF 8
ENDMDL
MODEL 6
REMARK VINA RESULT:      -6.3      3.173      6.775
REMARK  Name = 
REMARK  8 active torsions:
REMARK  status: ('A' for Active; 'I' for Inactive)
REMARK    1  A    between atoms: C_2  and  C_3
REMARK    2  A    between atoms: C_2  and  N_14
REMARK    3  A    between atoms: C_2  and  C_26
REMARK    4  A    between atoms: C_3  and  C_4
REMARK    5  A    between atoms: C_7  and  N_8
REMARK    6  A    between atoms: C_15  and  C_17
REMARK    7  A    between atoms: C_17  and  S_18
REMARK    8  A    between atoms: S_18  and  C_19
REMARK                            x       y       z     vdW  Elec       q    Type
REMARK                         _______ _______ _______ _____ _____    ______ ____
ROOT
ATOM      1  C   UNL     1       8.397  -1.462  23.195  0.00  0.00    +0.163 C 
ENDROOT
BRANCH   1   2
ATOM      2  C   UNL     1       9.678  -1.579  22.350  0.00  0.00    +0.231 C 
ATOM      3  O   UNL     1      10.636  -2.293  22.641  0.00  0.00    -0.274 OA
ATOM      4  N   UNL     1       9.632  -0.926  21.148  0.00  0.00    -0.328 N 
ATOM      5  H   UNL     1      10.400  -1.082  20.508  0.00  0.00    +0.145 HD
ATOM      6  H   UNL     1       8.734  -0.664  20.753  0.00  0.00    +0.145 HD
ENDBRANCH   1   2
BRANCH   1   7
ATOM      7  N   UNL     1       7.813  -0.145  22.926  0.00  0.00    -0.303 N 
ATOM      8  H   UNL     1       7.852   0.214  21.978  0.00  0.00    +0.149 HD
ATOM      9  C   UNL     1       7.426   0.711  23.934  0.00  0.00    +0.224 C 
ATOM     10  O   UNL     1       7.559   0.425  25.123  0.00  0.00    -0.275 OA
BRANCH   9  11
ATOM     11  C   UNL     1       6.906   2.069  23.468  0.00  0.00    +0.170 C 
BRANCH  11  12
ATOM     12  S   UNL     1       7.413   3.369  24.648  0.00  0.00    -0.116 S 
BRANCH  12  13
ATOM     13  C   UNL     1       9.068   3.819  24.137  0.00  0.00    +0.008 A 
ATOM     14  C   UNL     1       9.386   5.186  24.220  0.00  0.00    +0.016 A 
ATOM     15  C   UNL     1      10.648   5.661  23.852  0.00  0.00    +0.021 A 
ATOM     16  C   UNL     1      11.610   4.769  23.395  0.00  0.00    +0.041 A 
ATOM     17 CL   UNL     1      13.166   5.343  22.945  0.00  0.00    -0.084 Cl
ATOM     18  C   UNL     1      11.313   3.411  23.299  0.00  0.00    +0.021 A 
ATOM     19  C   UNL     1      10.046   2.936  23.672  0.00  0.00    +0.016 A 
ENDBRANCH  12  13
ENDBRANCH  11  12
ENDBRANCH   9  11
ENDBRANCH   1   7
BRANCH   1  20
ATOM     20  C   UNL     1       7.394  -2.574  22.844  0.00  0.00    +0.067 C 
BRANCH  20  21
ATOM     21  C   UNL     1       7.070  -3.489  24.002  0.00  0.00    -0.045 A 
ATOM     22  C   UNL     1       5.803  -4.072  24.101  0.00  0.00    +0.007 A 
ATOM     23  C   UNL     1       5.517  -4.989  25.119  0.00  0.00    +0.042 A 
ATOM     24  C   UNL     1       6.487  -5.347  26.060  0.00  0.00    +0.100 A 
ATOM     25  C   UNL     1       7.729  -4.704  26.000  0.00  0.00    +0.042 A 
ATOM     26  C   UNL     1       8.022  -3.789  24.982  0.00  0.00    +0.007 A 
BRANCH  24  27
ATOM     27  N   UNL     1       6.162  -6.294  27.044  0.00  0.00    -0.244 N 
ATOM     28  H   UNL     1       6.099  -7.245  26.710  0.00  0.00    +0.265 HD
ATOM     29  C   UNL     1       6.189  -6.145  28.388  0.00  0.00    +0.381 C 
ATOM     30  N   UNL     1       5.865  -5.108  29.074  0.00  0.00    -0.129 NA
ATOM     31  H   UNL     1       5.539  -4.395  28.410  0.00  0.00    +0.306 HD
ATOM     32  N   UNL     1       6.565  -7.264  29.047  0.00  0.00    -0.289 N 
ATOM     33  H   UNL     1       6.600  -7.054  30.044  0.00  0.00    +0.255 HD
ATOM     34  H   UNL     1       7.469  -7.608  28.747  0.00  0.00    +0.255 HD
ENDBRANCH  24  27
ENDBRANCH  20  21
ENDBRANCH   1  20
TORSDOF 8
ENDMDL
MODEL 7
REMARK VINA RESULT:      -6.2      3.426      6.608
REMARK  Name = 
REMARK  8 active torsions:
REMARK  status: ('A' for Active; 'I' for Inactive)
REMARK    1  A    between atoms: C_2  and  C_3
REMARK    2  A    between atoms: C_2  and  N_14
REMARK    3  A    between atoms: C_2  and  C_26
REMARK    4  A    between atoms: C_3  and  C_4
REMARK    5  A    between atoms: C_7  and  N_8
REMARK    6  A    between atoms: C_15  and  C_17
REMARK    7  A    between atoms: C_17  and  S_18
REMARK    8  A    between atoms: S_18  and  C_19
REMARK                            x       y       z     vdW  Elec       q    Type
REMARK                         _______ _______ _______ _____ _____    ______ ____
ROOT
ATOM      1  C   UNL     1       7.219   0.715  26.610  0.00  0.00    +0.163 C 
ENDROOT
BRANCH   1   2
ATOM      2  C   UNL     1       6.727   0.731  28.068  0.00  0.00    +0.231 C 
ATOM      3  O   UNL     1       5.628   0.317  28.433  0.00  0.00    -0.274 OA
ATOM      4  N   UNL     1       7.667   1.119  28.985  0.00  0.00    -0.328 N 
ATOM      5  H   UNL     1       7.427   1.022  29.963  0.00  0.00    +0.145 HD
ATOM      6  H   UNL     1       8.651   1.094  28.735  0.00  0.00    +0.145 HD
ENDBRANCH   1   2
BRANCH   1   7
ATOM      7  N   UNL     1       7.861   2.007  26.350  0.00  0.00    -0.303 N 
ATOM      8  H   UNL     1       8.602   2.309  26.972  0.00  0.00    +0.149 HD
ATOM      9  C   UNL     1       7.353   2.915  25.447  0.00  0.00    +0.224 C 
ATOM     10  O   UNL     1       6.321   2.701  24.813  0.00  0.00    -0.275 OA
BRANCH   9  11
ATOM     11  C   UNL     1       8.113   4.236  25.359  0.00  0.00    +0.170 C 
BRANCH  11  12
ATOM     12  S   UNL     1       8.987   4.348  23.759  0.00  0.00    -0.116 S 
BRANCH  12  13
ATOM     13  C   UNL     1       9.463   2.663  23.388  0.00  0.00    +0.008 A 
ATOM     14  C   UNL     1       8.839   2.080  22.271  0.00  0.00    +0.016 A 
ATOM     15  C   UNL     1       9.129   0.770  21.880  0.00  0.00    +0.021 A 
ATOM     16  C   UNL     1      10.052   0.027  22.604  0.00  0.00    +0.041 A 
ATOM     17 CL   UNL     1      10.419  -1.583  22.126  0.00  0.00    -0.084 Cl
ATOM     18  C   UNL     1      10.677   0.583  23.718  0.00  0.00    +0.021 A 
ATOM     19  C   UNL     1      10.385   1.900  24.107  0.00  0.00    +0.016 A 
ENDBRANCH  12  13
ENDBRANCH  11  12
ENDBRANCH   9  11
ENDBRANCH   1   7
BRANCH   1  20
ATOM     20  C   UNL     1       8.212  -0.435  26.369  0.00  0.00    +0.067 C 
BRANCH  20  21
ATOM     21  C   UNL     1       7.837  -1.330  25.211  0.00  0.00    -0.045 A 
ATOM     22  C   UNL     1       8.444  -2.582  25.068  0.00  0.00    +0.007 A 
ATOM     23  C   UNL     1       8.044  -3.456  24.050  0.00  0.00    +0.042 A 
ATOM     24  C   UNL     1       7.029  -3.104  23.154  0.00  0.00    +0.100 A 
ATOM     25  C   UNL     1       6.479  -1.822  23.257  0.00  0.00    +0.042 A 
ATOM     26  C   UNL     1       6.872  -0.944  24.274  0.00  0.00    +0.007 A 
BRANCH  24  27
ATOM     27  N   UNL     1       6.643  -4.027  22.170  0.00  0.00    -0.244 N 
ATOM     28  H   UNL     1       7.336  -4.194  21.454  0.00  0.00    +0.265 HD
ATOM     29  C   UNL     1       5.610  -4.900  22.203  0.00  0.00    +0.381 C 
ATOM     30  N   UNL     1       4.438  -4.716  22.695  0.00  0.00    -0.129 NA
ATOM     31  H   UNL     1       4.403  -3.751  23.045  0.00  0.00    +0.306 HD
ATOM     32  N   UNL     1       5.877  -6.074  21.590  0.00  0.00    -0.289 N 
ATOM     33  H   UNL     1       5.068  -6.685  21.696  0.00  0.00    +0.255 HD
ATOM     34  H   UNL     1       6.695  -6.536  21.970  0.00  0.00    +0.255 HD
ENDBRANCH  24  27
ENDBRANCH  20  21
ENDBRANCH   1  20
TORSDOF 8
ENDMDL
MODEL 8
REMARK VINA RESULT:      -6.1      2.274      3.449
REMARK  Name = 
REMARK  8 active torsions:
REMARK  status: ('A' for Active; 'I' for Inactive)
REMARK    1  A    between atoms: C_2  and  C_3
REMARK    2  A    between atoms: C_2  and  N_14
REMARK    3  A    between atoms: C_2  and  C_26
REMARK    4  A    between atoms: C_3  and  C_4
REMARK    5  A    between atoms: C_7  and  N_8
REMARK    6  A    between atoms: C_15  and  C_17
REMARK    7  A    between atoms: C_17  and  S_18
REMARK    8  A    between atoms: S_18  and  C_19
REMARK                            x       y       z     vdW  Elec       q    Type
REMARK                         _______ _______ _______ _____ _____    ______ ____
ROOT
ATOM      1  C   UNL     1       6.600  -4.582  25.219  0.00  0.00    +0.163 C 
ENDROOT
BRANCH   1   2
ATOM      2  C   UNL     1       6.210  -5.714  26.185  0.00  0.00    +0.231 C 
ATOM      3  O   UNL     1       6.917  -6.108  27.110  0.00  0.00    -0.274 OA
ATOM      4  N   UNL     1       4.931  -6.178  26.035  0.00  0.00    -0.328 N 
ATOM      5  H   UNL     1       4.592  -6.830  26.731  0.00  0.00    +0.145 HD
ATOM      6  H   UNL     1       4.246  -5.612  25.545  0.00  0.00    +0.145 HD
ENDBRANCH   1   2
BRANCH   1   7
ATOM      7  N   UNL     1       6.692  -3.347  26.003  0.00  0.00    -0.303 N 
ATOM      8  H   UNL     1       7.396  -3.290  26.730  0.00  0.00    +0.149 HD
ATOM      9  C   UNL     1       5.727  -2.364  25.948  0.00  0.00    +0.224 C 
ATOM     10  O   UNL     1       4.723  -2.471  25.244  0.00  0.00    -0.275 OA
BRANCH   9  11
ATOM     11  C   UNL     1       5.951  -1.182  26.886  0.00  0.00    +0.170 C 
BRANCH  11  12
ATOM     12  S   UNL     1       7.588  -0.435  26.568  0.00  0.00    -0.116 S 
BRANCH  12  13
ATOM     13  C   UNL     1       7.284   0.795  25.305  0.00  0.00    +0.008 A 
ATOM     14  C   UNL     1       7.675   2.108  25.618  0.00  0.00    +0.016 A 
ATOM     15  C   UNL     1       7.490   3.156  24.712  0.00  0.00    +0.021 A 
ATOM     16  C   UNL     1       6.912   2.900  23.476  0.00  0.00    +0.041 A 
ATOM     17 CL   UNL     1       6.687   4.181  22.352  0.00  0.00    -0.084 Cl
ATOM     18  C   UNL     1       6.512   1.606  23.147  0.00  0.00    +0.021 A 
ATOM     19  C   UNL     1       6.700   0.555  24.058  0.00  0.00    +0.016 A 
ENDBRANCH  12  13
ENDBRANCH  11  12
ENDBRANCH   9  11
ENDBRANCH   1   7
BRANCH   1  20
ATOM     20  C   UNL     1       7.942  -4.877  24.527  0.00  0.00    +0.067 C 
BRANCH  20  21
ATOM     21  C   UNL     1       8.519  -3.694  23.786  0.00  0.00    -0.045 A 
ATOM     22  C   UNL     1       7.853  -3.173  22.672  0.00  0.00    +0.007 A 
ATOM     23  C   UNL     1       8.330  -2.024  22.029  0.00  0.00    +0.042 A 
ATOM     24  C   UNL     1       9.478  -1.367  22.483  0.00  0.00    +0.100 A 
ATOM     25  C   UNL     1      10.180  -1.936  23.551  0.00  0.00    +0.042 A 
ATOM     26  C   UNL     1       9.707  -3.083  24.201  0.00  0.00    +0.007 A 
BRANCH  24  27
ATOM     27  N   UNL     1       9.898  -0.202  21.823  0.00  0.00    -0.244 N 
ATOM     28  H   UNL     1       9.900  -0.265  20.815  0.00  0.00    +0.265 HD
ATOM     29  C   UNL     1      10.035   1.043  22.333  0.00  0.00    +0.381 C 
ATOM     30  N   UNL     1      10.461   1.376  23.498  0.00  0.00    -0.129 NA
ATOM     31  H   UNL     1      10.721   0.510  23.985  0.00  0.00    +0.306 HD
ATOM     32  N   UNL     1       9.716   2.022  21.457  0.00  0.00    -0.289 N 
ATOM     33  H   UNL     1       9.805   2.920  21.932  0.00  0.00    +0.255 HD
ATOM     34  H   UNL     1       8.775   1.929  21.094  0.00  0.00    +0.255 HD
ENDBRANCH  24  27
ENDBRANCH  20  21
ENDBRANCH   1  20
TORSDOF 8
ENDMDL
MODEL 9
REMARK VINA RESULT:      -6.0      3.796      5.764
REMARK  Name = 
REMARK  8 active torsions:
REMARK  status: ('A' for Active; 'I' for Inactive)
REMARK    1  A    between atoms: C_2  and  C_3
REMARK    2  A    between atoms: C_2  and  N_14
REMARK    3  A    between atoms: C_2  and  C_26
REMARK    4  A    between atoms: C_3  and  C_4
REMARK    5  A    between atoms: C_7  and  N_8
REMARK    6  A    between atoms: C_15  and  C_17
REMARK    7  A    between atoms: C_17  and  S_18
REMARK    8  A    between atoms: S_18  and  C_19
REMARK                            x       y       z     vdW  Elec       q    Type
REMARK                         _______ _______ _______ _____ _____    ______ ____
ROOT
ATOM      1  C   UNL     1       9.117  -1.290  24.178  0.00  0.00    +0.163 C 
ENDROOT
BRANCH   1   2
ATOM      2  C   UNL     1       9.441  -1.746  22.745  0.00  0.00    +0.231 C 
ATOM      3  O   UNL     1      10.548  -1.649  22.221  0.00  0.00    -0.274 OA
ATOM      4  N   UNL     1       8.425  -2.412  22.114  0.00  0.00    -0.328 N 
ATOM      5  H   UNL     1       8.636  -2.840  21.221  0.00  0.00    +0.145 HD
ATOM      6  H   UNL     1       7.671  -2.814  22.663  0.00  0.00    +0.145 HD
ENDBRANCH   1   2
BRANCH   1   7
ATOM      7  N   UNL     1       9.226  -2.466  25.047  0.00  0.00    -0.303 N 
ATOM      8  H   UNL     1       9.913  -3.174  24.815  0.00  0.00    +0.149 HD
ATOM      9  C   UNL     1       8.293  -2.753  26.020  0.00  0.00    +0.224 C 
ATOM     10  O   UNL     1       7.304  -2.046  26.209  0.00  0.00    -0.275 OA
BRANCH   9  11
ATOM     11  C   UNL     1       8.529  -4.056  26.780  0.00  0.00    +0.170 C 
BRANCH  11  12
ATOM     12  S   UNL     1       8.376  -5.478  25.642  0.00  0.00    -0.116 S 
BRANCH  12  13
ATOM     13  C   UNL     1       6.680  -5.421  25.076  0.00  0.00    +0.008 A 
ATOM     14  C   UNL     1       6.497  -5.128  23.713  0.00  0.00    +0.016 A 
ATOM     15  C   UNL     1       5.220  -5.057  23.151  0.00  0.00    +0.021 A 
ATOM     16  C   UNL     1       4.106  -5.281  23.950  0.00  0.00    +0.041 A 
ATOM     17 CL   UNL     1       2.530  -5.201  23.267  0.00  0.00    -0.084 Cl
ATOM     18  C   UNL     1       4.264  -5.567  25.305  0.00  0.00    +0.021 A 
ATOM     19  C   UNL     1       5.549  -5.639  25.866  0.00  0.00    +0.016 A 
ENDBRANCH  12  13
ENDBRANCH  11  12
ENDBRANCH   9  11
ENDBRANCH   1   7
BRANCH   1  20
ATOM     20  C   UNL     1      10.085  -0.188  24.645  0.00  0.00    +0.067 C 
BRANCH  20  21
ATOM     21  C   UNL     1       9.625   1.210  24.302  0.00  0.00    -0.045 A 
ATOM     22  C   UNL     1      10.459   2.061  23.570  0.00  0.00    +0.007 A 
ATOM     23  C   UNL     1      10.013   3.327  23.172  0.00  0.00    +0.042 A 
ATOM     24  C   UNL     1       8.726   3.771  23.491  0.00  0.00    +0.100 A 
ATOM     25  C   UNL     1       7.925   2.945  24.287  0.00  0.00    +0.042 A 
ATOM     26  C   UNL     1       8.363   1.677  24.686  0.00  0.00    +0.007 A 
BRANCH  24  27
ATOM     27  N   UNL     1       8.315   5.036  23.042  0.00  0.00    -0.244 N 
ATOM     28  H   UNL     1       8.998   5.770  23.166  0.00  0.00    +0.265 HD
ATOM     29  C   UNL     1       7.266   5.339  22.243  0.00  0.00    +0.381 C 
ATOM     30  N   UNL     1       6.102   4.796  22.230  0.00  0.00    -0.129 NA
ATOM     31  H   UNL     1       6.088   4.090  22.976  0.00  0.00    +0.306 HD
ATOM     32  N   UNL     1       7.507   6.373  21.407  0.00  0.00    -0.289 N 
ATOM     33  H   UNL     1       6.687   6.506  20.816  0.00  0.00    +0.255 HD
ATOM     34  H   UNL     1       8.319   6.221  20.822  0.00  0.00    +0.255 HD
ENDBRANCH  24  27
ENDBRANCH  20  21
ENDBRANCH   1  20
TORSDOF 8
ENDMDL
