MODEL 1
REMARK VINA RESULT:      -7.1      0.000      0.000
REMARK  Name = 
REMARK  5 active torsions:
REMARK  status: ('A' for Active; 'I' for Inactive)
REMARK    1  A    between atoms: N_1  and  C_2
REMARK    2  A    between atoms: C_6  and  S_10
REMARK    3  A    between atoms: S_10  and  N_13
REMARK    4  A    between atoms: C_17  and  S_19
REMARK    5  A    between atoms: S_19  and  N_20
REMARK                            x       y       z     vdW  Elec       q    Type
REMARK                         _______ _______ _______ _____ _____    ______ ____
ROOT
ATOM      1  S   UNL     1       8.850  -4.011  25.437  0.00  0.00    +0.074 S 
ATOM      2  O   UNL     1       9.852  -3.837  24.406  0.00  0.00    -0.150 OA
ATOM      3  O   UNL     1       9.163  -4.696  26.670  0.00  0.00    -0.150 OA
ENDROOT
BRANCH   1   8
ATOM      4  C   UNL     1       5.276  -6.088  23.479  0.00  0.00    +0.079 A 
ATOM      5  C   UNL     1       6.325  -5.570  22.699  0.00  0.00    +0.066 A 
ATOM      6 CL   UNL     1       6.300  -5.726  20.976  0.00  0.00    -0.081 Cl
ATOM      7  C   UNL     1       7.425  -4.944  23.288  0.00  0.00    +0.050 A 
ATOM      8  C   UNL     1       7.465  -4.797  24.678  0.00  0.00    +0.113 A 
ATOM      9  C   UNL     1       6.411  -5.242  25.473  0.00  0.00    +0.069 A 
ATOM     10  C   UNL     1       5.329  -5.868  24.865  0.00  0.00    +0.147 A 
ATOM     11  F   UNL     1       4.318  -6.293  25.639  0.00  0.00    -0.203 F 
BRANCH   4  12
ATOM     12  N   UNL     1       4.100  -6.606  22.898  0.00  0.00    -0.355 N 
ATOM     13  H   UNL     1       3.666  -5.972  22.231  0.00  0.00    +0.142 HD
ATOM     14  H   UNL     1       4.209  -7.555  22.547  0.00  0.00    +0.142 HD
ENDBRANCH   4  12
ENDBRANCH   1   8
BRANCH   1  15
ATOM     15  N   UNL     1       8.275  -2.457  25.766  0.00  0.00    -0.192 N 
ATOM     16  H   UNL     1       7.260  -2.536  25.797  0.00  0.00    +0.176 HD
ATOM     17  C   UNL     1       8.729  -1.506  24.824  0.00  0.00    +0.202 A 
ATOM     18  S   UNL     1       7.777  -0.990  23.505  0.00  0.00    -0.009 S 
ATOM     19  C   UNL     1       9.017   0.135  23.179  0.00  0.00    +0.256 A 
ATOM     20  N   UNL     1      10.031   0.127  24.023  0.00  0.00    -0.119 NA
ATOM     21  N   UNL     1       9.861  -0.857  24.988  0.00  0.00    -0.123 NA
BRANCH  19  22
ATOM     22  S   UNL     1       8.828   1.219  21.803  0.00  0.00    +0.081 S 
ATOM     23  O   UNL     1       7.675   2.035  22.103  0.00  0.00    -0.151 OA
ATOM     24  O   UNL     1       8.914   0.379  20.630  0.00  0.00    -0.151 OA
BRANCH  22  25
ATOM     25  N   UNL     1      10.152   2.263  21.749  0.00  0.00    -0.202 NA
ATOM     26  H   UNL     1      10.930   1.881  21.214  0.00  0.00    +0.144 HD
ATOM     27  H   UNL     1       9.884   3.213  21.497  0.00  0.00    +0.144 HD
ENDBRANCH  22  25
ENDBRANCH  19  22
ENDBRANCH   1  15
TORSDOF 5
ENDMDL
MODEL 2
REMARK VINA RESULT:      -7.0      4.071      7.069
REMARK  Name = 
REMARK  5 active torsions:
REMARK  status: ('A' for Active; 'I' for Inactive)
REMARK    1  A    between atoms: N_1  and  C_2
REMARK    2  A    between atoms: C_6  and  S_10
REMARK    3  A    between atoms: S_10  and  N_13
REMARK    4  A    between atoms: C_17  and  S_19
REMARK    5  A    between atoms: S_19  and  N_20
REMARK                            x       y       z     vdW  Elec       q    Type
REMARK                         _______ _______ _______ _____ _____    ______ ____
ROOT
ATOM      1  S   UNL     1       8.338  -1.249  26.054  0.00  0.00    +0.074 S 
ATOM      2  O   UNL     1       6.896  -1.302  25.948  0.00  0.00    -0.150 OA
ATOM      3  O   UNL     1       8.981  -0.881  27.296  0.00  0.00    -0.150 OA
ENDROOT
BRANCH   1   8
ATOM      4  C   UNL     1       9.856   1.520  22.744  0.00  0.00    +0.079 A 
ATOM      5  C   UNL     1       9.365   2.043  23.954  0.00  0.00    +0.066 A 
ATOM      6 CL   UNL     1       9.343   3.751  24.229  0.00  0.00    -0.081 Cl
ATOM      7  C   UNL     1       8.910   1.205  24.974  0.00  0.00    +0.050 A 
ATOM      8  C   UNL     1       8.908  -0.178  24.772  0.00  0.00    +0.113 A 
ATOM      9  C   UNL     1       9.327  -0.724  23.562  0.00  0.00    +0.069 A 
ATOM     10  C   UNL     1       9.782   0.129  22.563  0.00  0.00    +0.147 A 
ATOM     11  F   UNL     1      10.184  -0.405  21.398  0.00  0.00    -0.203 F 
BRANCH   4  12
ATOM     12  N   UNL     1      10.197   2.350  21.657  0.00  0.00    -0.355 N 
ATOM     13  H   UNL     1      10.019   3.337  21.831  0.00  0.00    +0.142 HD
ATOM     14  H   UNL     1      11.126   2.163  21.284  0.00  0.00    +0.142 HD
ENDBRANCH   4  12
ENDBRANCH   1   8
BRANCH   1  15
ATOM     15  N   UNL     1       8.878  -2.769  25.551  0.00  0.00    -0.192 N 
ATOM     16  H   UNL     1       9.533  -2.594  24.790  0.00  0.00    +0.176 HD
ATOM     17  C   UNL     1       7.813  -3.620  25.180  0.00  0.00    +0.202 A 
ATOM     18  S   UNL     1       7.340  -3.851  23.557  0.00  0.00    -0.009 S 
ATOM     19  C   UNL     1       6.264  -5.039  24.143  0.00  0.00    +0.256 A 
ATOM     20  N   UNL     1       6.302  -5.248  25.445  0.00  0.00    -0.119 NA
ATOM     21  N   UNL     1       7.211  -4.395  26.056  0.00  0.00    -0.123 NA
BRANCH  19  22
ATOM     22  S   UNL     1       5.249  -5.897  22.987  0.00  0.00    +0.081 S 
ATOM     23  O   UNL     1       6.150  -6.411  21.981  0.00  0.00    -0.151 OA
ATOM     24  O   UNL     1       4.159  -4.998  22.682  0.00  0.00    -0.151 OA
BRANCH  22  25
ATOM     25  N   UNL     1       4.572  -7.239  23.753  0.00  0.00    -0.202 NA
ATOM     26  H   UNL     1       4.495  -8.045  23.134  0.00  0.00    +0.144 HD
ATOM     27  H   UNL     1       5.009  -7.431  24.653  0.00  0.00    +0.144 HD
ENDBRANCH  22  25
ENDBRANCH  19  22
ENDBRANCH   1  15
TORSDOF 5
ENDMDL
MODEL 3
REMARK VINA RESULT:      -7.0      1.878      2.016
REMARK  Name = 
REMARK  5 active torsions:
REMARK  status: ('A' for Active; 'I' for Inactive)
REMARK    1  A    between atoms: N_1  and  C_2
REMARK    2  A    between atoms: C_6  and  S_10
REMARK    3  A    between atoms: S_10  and  N_13
REMARK    4  A    between atoms: C_17  and  S_19
REMARK    5  A    between atoms: S_19  and  N_20
REMARK                            x       y       z     vdW  Elec       q    Type
REMARK                         _______ _______ _______ _____ _____    ______ ____
ROOT
ATOM      1  S   UNL     1       9.079  -3.592  24.679  0.00  0.00    +0.074 S 
ATOM      2  O   UNL     1      10.136  -4.567  24.845  0.00  0.00    -0.150 OA
ATOM      3  O   UNL     1       8.712  -2.701  25.757  0.00  0.00    -0.150 OA
ENDROOT
BRANCH   1   8
ATOM      4  C   UNL     1       5.383  -5.920  23.320  0.00  0.00    +0.079 A 
ATOM      5  C   UNL     1       6.327  -5.458  22.387  0.00  0.00    +0.066 A 
ATOM      6 CL   UNL     1       6.125  -5.777  20.698  0.00  0.00    -0.081 Cl
ATOM      7  C   UNL     1       7.464  -4.755  22.793  0.00  0.00    +0.050 A 
ATOM      8  C   UNL     1       7.645  -4.476  24.151  0.00  0.00    +0.113 A 
ATOM      9  C   UNL     1       6.696  -4.864  25.093  0.00  0.00    +0.069 A 
ATOM     10  C   UNL     1       5.576  -5.568  24.666  0.00  0.00    +0.147 A 
ATOM     11  F   UNL     1       4.665  -5.938  25.581  0.00  0.00    -0.203 F 
BRANCH   4  12
ATOM     12  N   UNL     1       4.169  -6.515  22.920  0.00  0.00    -0.355 N 
ATOM     13  H   UNL     1       3.652  -5.961  22.241  0.00  0.00    +0.142 HD
ATOM     14  H   UNL     1       4.268  -7.494  22.658  0.00  0.00    +0.142 HD
ENDBRANCH   4  12
ENDBRANCH   1   8
BRANCH   1  15
ATOM     15  N   UNL     1       9.505  -2.700  23.309  0.00  0.00    -0.192 N 
ATOM     16  H   UNL     1      10.507  -2.839  23.188  0.00  0.00    +0.176 HD
ATOM     17  C   UNL     1       9.143  -1.339  23.421  0.00  0.00    +0.202 A 
ATOM     18  S   UNL     1      10.250  -0.127  23.888  0.00  0.00    -0.009 S 
ATOM     19  C   UNL     1       9.010   0.995  23.555  0.00  0.00    +0.256 A 
ATOM     20  N   UNL     1       7.883   0.481  23.100  0.00  0.00    -0.119 NA
ATOM     21  N   UNL     1       7.964  -0.905  23.037  0.00  0.00    -0.123 NA
BRANCH  19  22
ATOM     22  S   UNL     1       9.339   2.709  23.795  0.00  0.00    +0.081 S 
ATOM     23  O   UNL     1      10.763   2.864  23.604  0.00  0.00    -0.151 OA
ATOM     24  O   UNL     1       8.667   3.067  25.024  0.00  0.00    -0.151 OA
BRANCH  22  25
ATOM     25  N   UNL     1       8.593   3.583  22.561  0.00  0.00    -0.202 NA
ATOM     26  H   UNL     1       8.355   3.002  21.758  0.00  0.00    +0.144 HD
ATOM     27  H   UNL     1       7.833   4.167  22.906  0.00  0.00    +0.144 HD
ENDBRANCH  22  25
ENDBRANCH  19  22
ENDBRANCH   1  15
TORSDOF 5
ENDMDL
MODEL 4
REMARK VINA RESULT:      -6.9      1.674      1.993
REMARK  Name = 
REMARK  5 active torsions:
REMARK  status: ('A' for Active; 'I' for Inactive)
REMARK    1  A    between atoms: N_1  and  C_2
REMARK    2  A    between atoms: C_6  and  S_10
REMARK    3  A    between atoms: S_10  and  N_13
REMARK    4  A    between atoms: C_17  and  S_19
REMARK    5  A    between atoms: S_19  and  N_20
REMARK                            x       y       z     vdW  Elec       q    Type
REMARK                         _______ _______ _______ _____ _____    ______ ____
ROOT
ATOM      1  S   UNL     1       8.976  -3.681  25.166  0.00  0.00    +0.074 S 
ATOM      2  O   UNL     1       9.873  -3.291  24.098  0.00  0.00    -0.150 OA
ATOM      3  O   UNL     1       9.437  -4.502  26.262  0.00  0.00    -0.150 OA
ENDROOT
BRANCH   1   8
ATOM      4  C   UNL     1       5.351  -5.664  23.204  0.00  0.00    +0.079 A 
ATOM      5  C   UNL     1       5.614  -5.838  24.574  0.00  0.00    +0.066 A 
ATOM      6 CL   UNL     1       4.558  -6.790  25.559  0.00  0.00    -0.081 Cl
ATOM      7  C   UNL     1       6.712  -5.227  25.184  0.00  0.00    +0.050 A 
ATOM      8  C   UNL     1       7.586  -4.461  24.408  0.00  0.00    +0.113 A 
ATOM      9  C   UNL     1       7.389  -4.322  23.036  0.00  0.00    +0.069 A 
ATOM     10  C   UNL     1       6.286  -4.934  22.452  0.00  0.00    +0.147 A 
ATOM     11  F   UNL     1       6.103  -4.796  21.129  0.00  0.00    -0.203 F 
BRANCH   4  12
ATOM     12  N   UNL     1       4.326  -6.374  22.546  0.00  0.00    -0.355 N 
ATOM     13  H   UNL     1       4.334  -6.252  21.536  0.00  0.00    +0.142 HD
ATOM     14  H   UNL     1       4.257  -7.346  22.838  0.00  0.00    +0.142 HD
ENDBRANCH   4  12
ENDBRANCH   1   8
BRANCH   1  15
ATOM     15  N   UNL     1       8.330  -2.235  25.755  0.00  0.00    -0.192 N 
ATOM     16  H   UNL     1       7.319  -2.360  25.752  0.00  0.00    +0.176 HD
ATOM     17  C   UNL     1       8.754  -1.114  25.006  0.00  0.00    +0.202 A 
ATOM     18  S   UNL     1       7.795  -0.411  23.781  0.00  0.00    -0.009 S 
ATOM     19  C   UNL     1       8.989   0.804  23.683  0.00  0.00    +0.256 A 
ATOM     20  N   UNL     1       9.992   0.687  24.532  0.00  0.00    -0.119 NA
ATOM     21  N   UNL     1       9.854  -0.460  25.304  0.00  0.00    -0.123 NA
BRANCH  19  22
ATOM     22  S   UNL     1       8.769   2.107  22.518  0.00  0.00    +0.081 S 
ATOM     23  O   UNL     1       8.606   3.310  23.302  0.00  0.00    -0.151 OA
ATOM     24  O   UNL     1       7.769   1.634  21.588  0.00  0.00    -0.151 OA
BRANCH  22  25
ATOM     25  N   UNL     1      10.197   2.297  21.641  0.00  0.00    -0.202 NA
ATOM     26  H   UNL     1      10.332   3.253  21.314  0.00  0.00    +0.144 HD
ATOM     27  H   UNL     1      11.001   1.891  22.119  0.00  0.00    +0.144 HD
ENDBRANCH  22  25
ENDBRANCH  19  22
ENDBRANCH   1  15
TORSDOF 5
ENDMDL
MODEL 5
REMARK VINA RESULT:      -6.9      4.734      8.453
REMARK  Name = 
REMARK  5 active torsions:
REMARK  status: ('A' for Active; 'I' for Inactive)
REMARK    1  A    between atoms: N_1  and  C_2
REMARK    2  A    between atoms: C_6  and  S_10
REMARK    3  A    between atoms: S_10  and  N_13
REMARK    4  A    between atoms: C_17  and  S_19
REMARK    5  A    between atoms: S_19  and  N_20
REMARK                            x       y       z     vdW  Elec       q    Type
REMARK                         _______ _______ _______ _____ _____    ______ ____
ROOT
ATOM      1  S   UNL     1       9.293   1.000  22.994  0.00  0.00    +0.074 S 
ATOM      2  O   UNL     1       9.799   0.813  21.650  0.00  0.00    -0.150 OA
ATOM      3  O   UNL     1       7.915   0.708  23.318  0.00  0.00    -0.150 OA
ENDROOT
BRANCH   1   8
ATOM      4  C   UNL     1      10.197   5.338  24.131  0.00  0.00    +0.079 A 
ATOM      5  C   UNL     1      11.202   4.506  23.606  0.00  0.00    +0.066 A 
ATOM      6 CL   UNL     1      12.804   5.109  23.356  0.00  0.00    -0.081 Cl
ATOM      7  C   UNL     1      10.932   3.183  23.245  0.00  0.00    +0.050 A 
ATOM      8  C   UNL     1       9.649   2.668  23.447  0.00  0.00    +0.113 A 
ATOM      9  C   UNL     1       8.649   3.447  24.025  0.00  0.00    +0.069 A 
ATOM     10  C   UNL     1       8.938   4.762  24.369  0.00  0.00    +0.147 A 
ATOM     11  F   UNL     1       7.969   5.506  24.927  0.00  0.00    -0.203 F 
BRANCH   4  12
ATOM     12  N   UNL     1      10.479   6.630  24.619  0.00  0.00    -0.355 N 
ATOM     13  H   UNL     1       9.959   6.866  25.461  0.00  0.00    +0.142 HD
ATOM     14  H   UNL     1      11.476   6.825  24.687  0.00  0.00    +0.142 HD
ENDBRANCH   4  12
ENDBRANCH   1   8
BRANCH   1  15
ATOM     15  N   UNL     1      10.325   0.105  23.987  0.00  0.00    -0.192 N 
ATOM     16  H   UNL     1      11.098  -0.189  23.393  0.00  0.00    +0.176 HD
ATOM     17  C   UNL     1       9.663  -0.976  24.612  0.00  0.00    +0.202 A 
ATOM     18  S   UNL     1       9.740  -2.573  24.014  0.00  0.00    -0.009 S 
ATOM     19  C   UNL     1       8.888  -3.034  25.417  0.00  0.00    +0.256 A 
ATOM     20  N   UNL     1       8.612  -2.060  26.262  0.00  0.00    -0.119 NA
ATOM     21  N   UNL     1       9.062  -0.840  25.773  0.00  0.00    -0.123 NA
BRANCH  19  22
ATOM     22  S   UNL     1       8.494  -4.737  25.640  0.00  0.00    +0.081 S 
ATOM     23  O   UNL     1       7.488  -5.039  24.648  0.00  0.00    -0.151 OA
ATOM     24  O   UNL     1       8.275  -4.904  27.059  0.00  0.00    -0.151 OA
BRANCH  22  25
ATOM     25  N   UNL     1       9.848  -5.662  25.245  0.00  0.00    -0.202 NA
ATOM     26  H   UNL     1       9.731  -6.647  25.480  0.00  0.00    +0.144 HD
ATOM     27  H   UNL     1      10.173  -5.485  24.296  0.00  0.00    +0.144 HD
ENDBRANCH  22  25
ENDBRANCH  19  22
ENDBRANCH   1  15
TORSDOF 5
ENDMDL
MODEL 6
REMARK VINA RESULT:      -6.8      4.339      7.251
REMARK  Name = 
REMARK  5 active torsions:
REMARK  status: ('A' for Active; 'I' for Inactive)
REMARK    1  A    between atoms: N_1  and  C_2
REMARK    2  A    between atoms: C_6  and  S_10
REMARK    3  A    between atoms: S_10  and  N_13
REMARK    4  A    between atoms: C_17  and  S_19
REMARK    5  A    between atoms: S_19  and  N_20
REMARK                            x       y       z     vdW  Elec       q    Type
REMARK                         _______ _______ _______ _____ _____    ______ ____
ROOT
ATOM      1  S   UNL     1       9.952  -0.060  24.631  0.00  0.00    +0.074 S 
ATOM      2  O   UNL     1       8.958  -0.659  25.497  0.00  0.00    -0.150 OA
ATOM      3  O   UNL     1      11.234   0.361  25.149  0.00  0.00    -0.150 OA
ENDROOT
BRANCH   1   8
ATOM      4  C   UNL     1       7.980   3.499  22.540  0.00  0.00    +0.079 A 
ATOM      5  C   UNL     1       8.439   3.605  23.865  0.00  0.00    +0.066 A 
ATOM      6 CL   UNL     1       8.288   5.094  24.733  0.00  0.00    -0.081 Cl
ATOM      7  C   UNL     1       9.052   2.527  24.508  0.00  0.00    +0.050 A 
ATOM      8  C   UNL     1       9.177   1.310  23.832  0.00  0.00    +0.113 A 
ATOM      9  C   UNL     1       8.675   1.154  22.542  0.00  0.00    +0.069 A 
ATOM     10  C   UNL     1       8.075   2.242  21.920  0.00  0.00    +0.147 A 
ATOM     11  F   UNL     1       7.593   2.084  20.677  0.00  0.00    -0.203 F 
BRANCH   4  12
ATOM     12  N   UNL     1       7.246   4.531  21.921  0.00  0.00    -0.355 N 
ATOM     13  H   UNL     1       6.311   4.246  21.636  0.00  0.00    +0.142 HD
ATOM     14  H   UNL     1       7.265   5.406  22.440  0.00  0.00    +0.142 HD
ENDBRANCH   4  12
ENDBRANCH   1   8
BRANCH   1  15
ATOM     15  N   UNL     1      10.170  -1.164  23.371  0.00  0.00    -0.192 N 
ATOM     16  H   UNL     1       9.965  -0.653  22.514  0.00  0.00    +0.176 HD
ATOM     17  C   UNL     1       9.377  -2.323  23.531  0.00  0.00    +0.202 A 
ATOM     18  S   UNL     1       7.884  -2.533  22.731  0.00  0.00    -0.009 S 
ATOM     19  C   UNL     1       7.873  -4.112  23.376  0.00  0.00    +0.256 A 
ATOM     20  N   UNL     1       8.928  -4.439  24.098  0.00  0.00    -0.119 NA
ATOM     21  N   UNL     1       9.809  -3.370  24.197  0.00  0.00    -0.123 NA
BRANCH  19  22
ATOM     22  S   UNL     1       6.512  -5.165  23.001  0.00  0.00    +0.081 S 
ATOM     23  O   UNL     1       5.961  -5.561  24.276  0.00  0.00    -0.151 OA
ATOM     24  O   UNL     1       7.008  -6.113  22.030  0.00  0.00    -0.151 OA
BRANCH  22  25
ATOM     25  N   UNL     1       5.321  -4.255  22.227  0.00  0.00    -0.202 NA
ATOM     26  H   UNL     1       5.049  -3.431  22.761  0.00  0.00    +0.144 HD
ATOM     27  H   UNL     1       5.546  -4.076  21.249  0.00  0.00    +0.144 HD
ENDBRANCH  22  25
ENDBRANCH  19  22
ENDBRANCH   1  15
TORSDOF 5
ENDMDL
MODEL 7
REMARK VINA RESULT:      -6.8      4.236      7.429
REMARK  Name = 
REMARK  5 active torsions:
REMARK  status: ('A' for Active; 'I' for Inactive)
REMARK    1  A    between atoms: N_1  and  C_2
REMARK    2  A    between atoms: C_6  and  S_10
REMARK    3  A    between atoms: S_10  and  N_13
REMARK    4  A    between atoms: C_17  and  S_19
REMARK    5  A    between atoms: S_19  and  N_20
REMARK                            x       y       z     vdW  Elec       q    Type
REMARK                         _______ _______ _______ _____ _____    ______ ____
ROOT
ATOM      1  S   UNL     1       9.097  -2.165  23.431  0.00  0.00    +0.074 S 
ATOM      2  O   UNL     1       8.452  -2.513  24.680  0.00  0.00    -0.150 OA
ATOM      3  O   UNL     1      10.426  -2.642  23.121  0.00  0.00    -0.150 OA
ENDROOT
BRANCH   1   8
ATOM      4  C   UNL     1       9.041   2.403  23.183  0.00  0.00    +0.079 A 
ATOM      5  C   UNL     1       7.914   1.647  22.814  0.00  0.00    +0.066 A 
ATOM      6 CL   UNL     1       6.467   2.428  22.277  0.00  0.00    -0.081 Cl
ATOM      7  C   UNL     1       7.918   0.253  22.897  0.00  0.00    +0.050 A 
ATOM      8  C   UNL     1       9.078  -0.403  23.319  0.00  0.00    +0.113 A 
ATOM      9  C   UNL     1      10.231   0.313  23.630  0.00  0.00    +0.069 A 
ATOM     10  C   UNL     1      10.202   1.701  23.546  0.00  0.00    +0.147 A 
ATOM     11  F   UNL     1      11.318   2.384  23.846  0.00  0.00    -0.203 F 
BRANCH   4  12
ATOM     12  N   UNL     1       9.100   3.797  22.985  0.00  0.00    -0.355 N 
ATOM     13  H   UNL     1       9.347   4.315  23.825  0.00  0.00    +0.142 HD
ATOM     14  H   UNL     1       9.645   4.064  22.167  0.00  0.00    +0.142 HD
ENDBRANCH   4  12
ENDBRANCH   1   8
BRANCH   1  15
ATOM     15  N   UNL     1       8.014  -2.637  22.223  0.00  0.00    -0.192 N 
ATOM     16  H   UNL     1       7.491  -1.798  21.975  0.00  0.00    +0.176 HD
ATOM     17  C   UNL     1       7.187  -3.706  22.633  0.00  0.00    +0.202 A 
ATOM     18  S   UNL     1       5.597  -3.472  23.209  0.00  0.00    -0.009 S 
ATOM     19  C   UNL     1       5.460  -5.172  23.228  0.00  0.00    +0.256 A 
ATOM     20  N   UNL     1       6.518  -5.834  22.801  0.00  0.00    -0.119 NA
ATOM     21  N   UNL     1       7.544  -4.960  22.463  0.00  0.00    -0.123 NA
BRANCH  19  22
ATOM     22  S   UNL     1       3.941  -5.887  23.761  0.00  0.00    +0.081 S 
ATOM     23  O   UNL     1       3.066  -5.849  22.611  0.00  0.00    -0.151 OA
ATOM     24  O   UNL     1       3.622  -5.239  25.013  0.00  0.00    -0.151 OA
BRANCH  22  25
ATOM     25  N   UNL     1       4.201  -7.517  24.110  0.00  0.00    -0.202 NA
ATOM     26  H   UNL     1       4.158  -7.715  25.109  0.00  0.00    +0.144 HD
ATOM     27  H   UNL     1       3.635  -8.132  23.527  0.00  0.00    +0.144 HD
ENDBRANCH  22  25
ENDBRANCH  19  22
ENDBRANCH   1  15
TORSDOF 5
ENDMDL
MODEL 8
REMARK VINA RESULT:      -6.7      4.204      7.464
REMARK  Name = 
REMARK  5 active torsions:
REMARK  status: ('A' for Active; 'I' for Inactive)
REMARK    1  A    between atoms: N_1  and  C_2
REMARK    2  A    between atoms: C_6  and  S_10
REMARK    3  A    between atoms: S_10  and  N_13
REMARK    4  A    between atoms: C_17  and  S_19
REMARK    5  A    between atoms: S_19  and  N_20
REMARK                            x       y       z     vdW  Elec       q    Type
REMARK                         _______ _______ _______ _____ _____    ______ ____
ROOT
ATOM      1  S   UNL     1       9.362  -1.579  22.855  0.00  0.00    +0.074 S 
ATOM      2  O   UNL     1      10.556  -1.846  22.081  0.00  0.00    -0.150 OA
ATOM      3  O   UNL     1       8.094  -2.175  22.498  0.00  0.00    -0.150 OA
ENDROOT
BRANCH   1   8
ATOM      4  C   UNL     1       8.871   2.964  23.066  0.00  0.00    +0.079 A 
ATOM      5  C   UNL     1       7.804   2.142  22.662  0.00  0.00    +0.066 A 
ATOM      6 CL   UNL     1       6.269   2.827  22.254  0.00  0.00    -0.081 Cl
ATOM      7  C   UNL     1       7.942   0.753  22.605  0.00  0.00    +0.050 A 
ATOM      8  C   UNL     1       9.174   0.175  22.920  0.00  0.00    +0.113 A 
ATOM      9  C   UNL     1      10.269   0.966  23.262  0.00  0.00    +0.069 A 
ATOM     10  C   UNL     1      10.107   2.346  23.318  0.00  0.00    +0.147 A 
ATOM     11  F   UNL     1      11.166   3.102  23.647  0.00  0.00    -0.203 F 
BRANCH   4  12
ATOM     12  N   UNL     1       8.792   4.370  23.006  0.00  0.00    -0.355 N 
ATOM     13  H   UNL     1       9.679   4.833  23.192  0.00  0.00    +0.142 HD
ATOM     14  H   UNL     1       8.322   4.711  22.170  0.00  0.00    +0.142 HD
ENDBRANCH   4  12
ENDBRANCH   1   8
BRANCH   1  15
ATOM     15  N   UNL     1       9.763  -1.980  24.446  0.00  0.00    -0.192 N 
ATOM     16  H   UNL     1      10.581  -2.585  24.383  0.00  0.00    +0.176 HD
ATOM     17  C   UNL     1       8.684  -2.576  25.137  0.00  0.00    +0.202 A 
ATOM     18  S   UNL     1       8.531  -4.266  25.324  0.00  0.00    -0.009 S 
ATOM     19  C   UNL     1       7.193  -3.934  26.329  0.00  0.00    +0.256 A 
ATOM     20  N   UNL     1       6.928  -2.655  26.519  0.00  0.00    -0.119 NA
ATOM     21  N   UNL     1       7.806  -1.856  25.799  0.00  0.00    -0.123 NA
BRANCH  19  22
ATOM     22  S   UNL     1       6.325  -5.287  27.048  0.00  0.00    +0.081 S 
ATOM     23  O   UNL     1       5.990  -6.164  25.951  0.00  0.00    -0.151 OA
ATOM     24  O   UNL     1       5.331  -4.697  27.915  0.00  0.00    -0.151 OA
BRANCH  22  25
ATOM     25  N   UNL     1       7.386  -6.146  28.040  0.00  0.00    -0.202 NA
ATOM     26  H   UNL     1       6.906  -6.815  28.640  0.00  0.00    +0.144 HD
ATOM     27  H   UNL     1       8.176  -6.527  27.521  0.00  0.00    +0.144 HD
ENDBRANCH  22  25
ENDBRANCH  19  22
ENDBRANCH   1  15
TORSDOF 5
ENDMDL
MODEL 9
REMARK VINA RESULT:      -6.6      2.977      3.359
REMARK  Name = 
REMARK  5 active torsions:
REMARK  status: ('A' for Active; 'I' for Inactive)
REMARK    1  A    between atoms: N_1  and  C_2
REMARK    2  A    between atoms: C_6  and  S_10
REMARK    3  A    between atoms: S_10  and  N_13
REMARK    4  A    between atoms: C_17  and  S_19
REMARK    5  A    between atoms: S_19  and  N_20
REMARK                            x       y       z     vdW  Elec       q    Type
REMARK                         _______ _______ _______ _____ _____    ______ ____
ROOT
ATOM      1  S   UNL     1       6.344  -3.813  22.577  0.00  0.00    +0.074 S 
ATOM      2  O   UNL     1       5.856  -2.483  22.879  0.00  0.00    -0.150 OA
ATOM      3  O   UNL     1       5.972  -4.482  21.352  0.00  0.00    -0.150 OA
ENDROOT
BRANCH   1   8
ATOM      4  C   UNL     1       5.257  -6.502  26.115  0.00  0.00    +0.079 A 
ATOM      5  C   UNL     1       4.483  -6.507  24.941  0.00  0.00    +0.066 A 
ATOM      6 CL   UNL     1       3.110  -7.549  24.796  0.00  0.00    -0.081 Cl
ATOM      7  C   UNL     1       4.814  -5.698  23.852  0.00  0.00    +0.050 A 
ATOM      8  C   UNL     1       5.913  -4.839  23.947  0.00  0.00    +0.113 A 
ATOM      9  C   UNL     1       6.661  -4.764  25.119  0.00  0.00    +0.069 A 
ATOM     10  C   UNL     1       6.317  -5.583  26.188  0.00  0.00    +0.147 A 
ATOM     11  F   UNL     1       7.043  -5.504  27.315  0.00  0.00    -0.203 F 
BRANCH   4  12
ATOM     12  N   UNL     1       4.867  -7.213  27.268  0.00  0.00    -0.355 N 
ATOM     13  H   UNL     1       3.910  -7.021  27.556  0.00  0.00    +0.142 HD
ATOM     14  H   UNL     1       5.088  -8.205  27.223  0.00  0.00    +0.142 HD
ENDBRANCH   4  12
ENDBRANCH   1   8
BRANCH   1  15
ATOM     15  N   UNL     1       8.026  -3.707  22.693  0.00  0.00    -0.192 N 
ATOM     16  H   UNL     1       8.283  -4.242  23.521  0.00  0.00    +0.176 HD
ATOM     17  C   UNL     1       8.478  -2.369  22.735  0.00  0.00    +0.202 A 
ATOM     18  S   UNL     1       8.871  -1.575  24.193  0.00  0.00    -0.009 S 
ATOM     19  C   UNL     1       9.408  -0.276  23.226  0.00  0.00    +0.256 A 
ATOM     20  N   UNL     1       9.320  -0.463  21.923  0.00  0.00    -0.119 NA
ATOM     21  N   UNL     1       8.755  -1.699  21.638  0.00  0.00    -0.123 NA
BRANCH  19  22
ATOM     22  S   UNL     1      10.059   1.153  24.024  0.00  0.00    +0.081 S 
ATOM     23  O   UNL     1      10.007   2.209  23.039  0.00  0.00    -0.151 OA
ATOM     24  O   UNL     1      11.289   0.723  24.651  0.00  0.00    -0.151 OA
BRANCH  22  25
ATOM     25  N   UNL     1       9.012   1.605  25.267  0.00  0.00    -0.202 NA
ATOM     26  H   UNL     1       9.459   2.211  25.953  0.00  0.00    +0.144 HD
ATOM     27  H   UNL     1       8.118   1.943  24.914  0.00  0.00    +0.144 HD
ENDBRANCH  22  25
ENDBRANCH  19  22
ENDBRANCH   1  15
TORSDOF 5
ENDMDL
