MODEL 1
REMARK VINA RESULT:      -7.9      0.000      0.000
REMARK  Name = 
REMARK  7 active torsions:
REMARK  status: ('A' for Active; 'I' for Inactive)
REMARK    1  A    between atoms: C_1  and  C_2
REMARK    2  A    between atoms: C_2  and  C_3
REMARK    3  A    between atoms: C_2  and  O_4
REMARK    4  A    between atoms: O_4  and  C_5
REMARK    5  A    between atoms: N_22  and  C_23
REMARK    6  A    between atoms: C_23  and  C_24
REMARK    7  A    between atoms: C_24  and  O_25
REMARK                            x       y       z     vdW  Elec       q    Type
REMARK                         _______ _______ _______ _____ _____    ______ ____
ROOT
ATOM      1  C   UNL     1       7.170  -4.215  23.175  0.00  0.00    +0.121 A 
ATOM      2  C   UNL     1       7.328  -3.906  24.511  0.00  0.00    +0.050 A 
ATOM      3  C   UNL     1       7.338  -2.545  24.889  0.00  0.00    -0.036 A 
ATOM      4  C   UNL     1       8.668  -2.160  25.573  0.00  0.00    +0.040 C 
ATOM      5  C   UNL     1       8.706  -0.715  26.007  0.00  0.00    +0.042 C 
ATOM      6  C   UNL     1       8.307   0.123  24.779  0.00  0.00    -0.014 A 
ATOM      7  C   UNL     1       8.692   1.435  24.618  0.00  0.00    +0.055 A 
ATOM      8  N   UNL     1       9.615   2.021  23.807  0.00  0.00    -0.337 N 
ATOM      9  C   UNL     1       9.687   3.374  24.057  0.00  0.00    +0.050 A 
ATOM     10  C   UNL     1       8.631   3.699  24.957  0.00  0.00    +0.008 A 
ATOM     11  C   UNL     1       8.512   5.044  25.358  0.00  0.00    +0.010 A 
ATOM     12  C   UNL     1       9.433   5.997  24.873  0.00  0.00    +0.001 A 
ATOM     13  C   UNL     1      10.427   5.645  23.962  0.00  0.00    +0.002 A 
ATOM     14  C   UNL     1      10.569   4.328  23.537  0.00  0.00    +0.026 A 
ATOM     15  C   UNL     1       7.957   2.484  25.090  0.00  0.00    +0.017 A 
ATOM     16  C   UNL     1       6.701   2.143  25.655  0.00  0.00    +0.013 A 
ATOM     17  C   UNL     1       5.757   2.709  26.509  0.00  0.00    +0.110 C 
ATOM     18  N   UNL     1       4.765   1.915  26.738  0.00  0.00    -0.184 NA
ATOM     19  C   UNL     1       4.946   0.704  26.031  0.00  0.00    +0.268 C 
ATOM     20  O   UNL     1       4.196  -0.255  26.154  0.00  0.00    -0.268 OA
ATOM     21  C   UNL     1       6.189   0.839  25.291  0.00  0.00    +0.056 A 
ATOM     22  C   UNL     1       6.941  -0.103  24.533  0.00  0.00    +0.000 A 
ATOM     23  C   UNL     1       6.704  -1.515  24.137  0.00  0.00    -0.013 A 
ATOM     24  C   UNL     1       6.548  -1.862  22.781  0.00  0.00    +0.012 A 
ATOM     25  C   UNL     1       6.848  -3.170  22.303  0.00  0.00    +0.046 A 
ENDROOT
BRANCH   1  26
ATOM     26  O   UNL     1       7.486  -5.426  22.614  0.00  0.00    -0.489 OA
BRANCH  26  28
ATOM     27  C   UNL     1       5.169  -6.032  23.025  0.00  0.00    +0.051 C 
ATOM     28  C   UNL     1       6.417  -6.294  22.187  0.00  0.00    +0.167 C 
ATOM     29  C   UNL     1       6.109  -5.981  20.718  0.00  0.00    +0.051 C 
ENDBRANCH  26  28
ENDBRANCH   1  26
BRANCH   8  30
ATOM     30  C   UNL     1      10.283   1.304  22.739  0.00  0.00    +0.150 C 
BRANCH  30  31
ATOM     31  C   UNL     1       9.357   0.975  21.584  0.00  0.00    +0.177 C 
BRANCH  31  32
ATOM     32  O   UNL     1       9.561  -0.384  21.211  0.00  0.00    -0.393 OA
ATOM     33  H   UNL     1       9.203  -0.939  21.926  0.00  0.00    +0.209 HD
ENDBRANCH  31  32
ENDBRANCH  30  31
ENDBRANCH   8  30
TORSDOF 5
ENDMDL
MODEL 2
REMARK VINA RESULT:      -7.8      2.227      7.403
REMARK  Name = 
REMARK  7 active torsions:
REMARK  status: ('A' for Active; 'I' for Inactive)
REMARK    1  A    between atoms: C_1  and  C_2
REMARK    2  A    between atoms: C_2  and  C_3
REMARK    3  A    between atoms: C_2  and  O_4
REMARK    4  A    between atoms: O_4  and  C_5
REMARK    5  A    between atoms: N_22  and  C_23
REMARK    6  A    between atoms: C_23  and  C_24
REMARK    7  A    between atoms: C_24  and  O_25
REMARK                            x       y       z     vdW  Elec       q    Type
REMARK                         _______ _______ _______ _____ _____    ______ ____
ROOT
ATOM      1  C   UNL     1      10.310   3.915  23.521  0.00  0.00    +0.121 A 
ATOM      2  C   UNL     1       8.935   3.979  23.621  0.00  0.00    +0.050 A 
ATOM      3  C   UNL     1       8.230   2.801  23.952  0.00  0.00    -0.036 A 
ATOM      4  C   UNL     1       7.228   2.413  22.843  0.00  0.00    +0.040 C 
ATOM      5  C   UNL     1       6.443   1.167  23.173  0.00  0.00    +0.042 C 
ATOM      6  C   UNL     1       7.472   0.091  23.565  0.00  0.00    -0.014 A 
ATOM      7  C   UNL     1       7.217  -1.257  23.449  0.00  0.00    +0.055 A 
ATOM      8  N   UNL     1       7.660  -2.195  22.567  0.00  0.00    -0.337 N 
ATOM      9  C   UNL     1       7.066  -3.412  22.819  0.00  0.00    +0.050 A 
ATOM     10  C   UNL     1       6.334  -3.287  24.035  0.00  0.00    +0.008 A 
ATOM     11  C   UNL     1       5.636  -4.422  24.491  0.00  0.00    +0.010 A 
ATOM     12  C   UNL     1       5.677  -5.612  23.735  0.00  0.00    +0.001 A 
ATOM     13  C   UNL     1       6.438  -5.705  22.571  0.00  0.00    +0.002 A 
ATOM     14  C   UNL     1       7.148  -4.608  22.096  0.00  0.00    +0.026 A 
ATOM     15  C   UNL     1       6.646  -1.990  24.448  0.00  0.00    +0.017 A 
ATOM     16  C   UNL     1       6.437  -1.299  25.669  0.00  0.00    +0.013 A 
ATOM     17  C   UNL     1       5.666  -1.432  26.822  0.00  0.00    +0.110 C 
ATOM     18  N   UNL     1       5.841  -0.453  27.645  0.00  0.00    -0.184 NA
ATOM     19  C   UNL     1       6.784   0.457  27.115  0.00  0.00    +0.268 C 
ATOM     20  O   UNL     1       7.055   1.522  27.653  0.00  0.00    -0.268 OA
ATOM     21  C   UNL     1       7.212  -0.087  25.837  0.00  0.00    +0.056 A 
ATOM     22  C   UNL     1       8.025   0.460  24.804  0.00  0.00    +0.000 A 
ATOM     23  C   UNL     1       8.804   1.719  24.679  0.00  0.00    -0.013 A 
ATOM     24  C   UNL     1      10.208   1.684  24.567  0.00  0.00    +0.012 A 
ATOM     25  C   UNL     1      10.935   2.732  23.933  0.00  0.00    +0.046 A 
ENDROOT
BRANCH   1  26
ATOM     26  O   UNL     1      11.089   4.845  22.881  0.00  0.00    -0.489 OA
BRANCH  26  28
ATOM     27  C   UNL     1      13.322   5.584  22.274  0.00  0.00    +0.051 C 
ATOM     28  C   UNL     1      12.402   5.130  23.403  0.00  0.00    +0.167 C 
ATOM     29  C   UNL     1      12.271   6.262  24.429  0.00  0.00    +0.051 C 
ENDBRANCH  26  28
ENDBRANCH   1  26
BRANCH   8  30
ATOM     30  C   UNL     1       8.726  -1.934  21.619  0.00  0.00    +0.150 C 
BRANCH  30  31
ATOM     31  C   UNL     1      10.031  -1.558  22.294  0.00  0.00    +0.177 C 
BRANCH  31  32
ATOM     32  O   UNL     1      10.433  -2.633  23.137  0.00  0.00    -0.393 OA
ATOM     33  H   UNL     1      11.123  -2.293  23.732  0.00  0.00    +0.209 HD
ENDBRANCH  31  32
ENDBRANCH  30  31
ENDBRANCH   8  30
TORSDOF 5
ENDMDL
MODEL 3
REMARK VINA RESULT:      -7.8      1.065      1.278
REMARK  Name = 
REMARK  7 active torsions:
REMARK  status: ('A' for Active; 'I' for Inactive)
REMARK    1  A    between atoms: C_1  and  C_2
REMARK    2  A    between atoms: C_2  and  C_3
REMARK    3  A    between atoms: C_2  and  O_4
REMARK    4  A    between atoms: O_4  and  C_5
REMARK    5  A    between atoms: N_22  and  C_23
REMARK    6  A    between atoms: C_23  and  C_24
REMARK    7  A    between atoms: C_24  and  O_25
REMARK                            x       y       z     vdW  Elec       q    Type
REMARK                         _______ _______ _______ _____ _____    ______ ____
ROOT
ATOM      1  C   UNL     1       6.545  -3.565  24.041  0.00  0.00    +0.121 A 
ATOM      2  C   UNL     1       6.558  -3.013  25.306  0.00  0.00    +0.050 A 
ATOM      3  C   UNL     1       6.747  -1.618  25.429  0.00  0.00    -0.036 A 
ATOM      4  C   UNL     1       8.009  -1.290  26.255  0.00  0.00    +0.040 C 
ATOM      5  C   UNL     1       8.232   0.193  26.421  0.00  0.00    +0.042 C 
ATOM      6  C   UNL     1       8.165   0.808  25.012  0.00  0.00    -0.014 A 
ATOM      7  C   UNL     1       8.788   1.992  24.688  0.00  0.00    +0.055 A 
ATOM      8  N   UNL     1       9.906   2.264  23.960  0.00  0.00    -0.337 N 
ATOM      9  C   UNL     1      10.172   3.615  23.971  0.00  0.00    +0.050 A 
ATOM     10  C   UNL     1       9.068   4.263  24.598  0.00  0.00    +0.008 A 
ATOM     11  C   UNL     1       9.125   5.664  24.723  0.00  0.00    +0.010 A 
ATOM     12  C   UNL     1      10.255   6.359  24.244  0.00  0.00    +0.001 A 
ATOM     13  C   UNL     1      11.296   5.692  23.600  0.00  0.00    +0.002 A 
ATOM     14  C   UNL     1      11.270   4.309  23.450  0.00  0.00    +0.026 A 
ATOM     15  C   UNL     1       8.183   3.207  24.826  0.00  0.00    +0.017 A 
ATOM     16  C   UNL     1       6.819   3.170  25.214  0.00  0.00    +0.013 A 
ATOM     17  C   UNL     1       5.872   4.025  25.773  0.00  0.00    +0.110 C 
ATOM     18  N   UNL     1       4.736   3.442  25.963  0.00  0.00    -0.184 NA
ATOM     19  C   UNL     1       4.807   2.099  25.528  0.00  0.00    +0.268 C 
ATOM     20  O   UNL     1       3.895   1.300  25.688  0.00  0.00    -0.268 OA
ATOM     21  C   UNL     1       6.149   1.903  25.007  0.00  0.00    +0.056 A 
ATOM     22  C   UNL     1       6.830   0.730  24.575  0.00  0.00    +0.000 A 
ATOM     23  C   UNL     1       6.414  -0.687  24.404  0.00  0.00    -0.013 A 
ATOM     24  C   UNL     1       6.400  -1.279  23.126  0.00  0.00    +0.012 A 
ATOM     25  C   UNL     1       6.537  -2.687  22.952  0.00  0.00    +0.046 A 
ENDROOT
BRANCH   1  26
ATOM     26  O   UNL     1       6.727  -4.897  23.771  0.00  0.00    -0.489 OA
BRANCH  26  28
ATOM     27  C   UNL     1       6.828  -6.359  21.833  0.00  0.00    +0.051 C 
ATOM     28  C   UNL     1       5.935  -5.510  22.734  0.00  0.00    +0.167 C 
ATOM     29  C   UNL     1       4.893  -6.413  23.401  0.00  0.00    +0.051 C 
ENDBRANCH  26  28
ENDBRANCH   1  26
BRANCH   8  30
ATOM     30  C   UNL     1      10.589   1.256  23.173  0.00  0.00    +0.150 C 
BRANCH  30  31
ATOM     31  C   UNL     1       9.771   0.785  21.986  0.00  0.00    +0.177 C 
BRANCH  31  32
ATOM     32  O   UNL     1       9.355   1.925  21.240  0.00  0.00    -0.393 OA
ATOM     33  H   UNL     1       9.944   2.000  20.470  0.00  0.00    +0.209 HD
ENDBRANCH  31  32
ENDBRANCH  30  31
ENDBRANCH   8  30
TORSDOF 5
ENDMDL
MODEL 4
REMARK VINA RESULT:      -7.6      2.273      4.429
REMARK  Name = 
REMARK  7 active torsions:
REMARK  status: ('A' for Active; 'I' for Inactive)
REMARK    1  A    between atoms: C_1  and  C_2
REMARK    2  A    between atoms: C_2  and  C_3
REMARK    3  A    between atoms: C_2  and  O_4
REMARK    4  A    between atoms: O_4  and  C_5
REMARK    5  A    between atoms: N_22  and  C_23
REMARK    6  A    between atoms: C_23  and  C_24
REMARK    7  A    between atoms: C_24  and  O_25
REMARK                            x       y       z     vdW  Elec       q    Type
REMARK                         _______ _______ _______ _____ _____    ______ ____
ROOT
ATOM      1  C   UNL     1       6.997  -5.190  26.031  0.00  0.00    +0.121 A 
ATOM      2  C   UNL     1       6.618  -4.639  24.824  0.00  0.00    +0.050 A 
ATOM      3  C   UNL     1       7.006  -3.311  24.540  0.00  0.00    -0.036 A 
ATOM      4  C   UNL     1       5.779  -2.401  24.312  0.00  0.00    +0.040 C 
ATOM      5  C   UNL     1       6.158  -0.977  23.988  0.00  0.00    +0.042 C 
ATOM      6  C   UNL     1       7.144  -0.526  25.081  0.00  0.00    -0.014 A 
ATOM      7  C   UNL     1       7.322   0.796  25.421  0.00  0.00    +0.055 A 
ATOM      8  N   UNL     1       6.925   1.521  26.503  0.00  0.00    -0.337 N 
ATOM      9  C   UNL     1       7.288   2.842  26.359  0.00  0.00    +0.050 A 
ATOM     10  C   UNL     1       8.114   2.934  25.201  0.00  0.00    +0.008 A 
ATOM     11  C   UNL     1       8.605   4.208  24.855  0.00  0.00    +0.010 A 
ATOM     12  C   UNL     1       8.258   5.323  25.646  0.00  0.00    +0.001 A 
ATOM     13  C   UNL     1       7.482   5.184  26.795  0.00  0.00    +0.002 A 
ATOM     14  C   UNL     1       6.987   3.940  27.172  0.00  0.00    +0.026 A 
ATOM     15  C   UNL     1       8.237   1.601  24.805  0.00  0.00    +0.017 A 
ATOM     16  C   UNL     1       9.085   0.955  23.869  0.00  0.00    +0.013 A 
ATOM     17  C   UNL     1       9.910   1.301  22.801  0.00  0.00    +0.110 C 
ATOM     18  N   UNL     1      10.445   0.269  22.241  0.00  0.00    -0.184 NA
ATOM     19  C   UNL     1      10.028  -0.908  22.904  0.00  0.00    +0.268 C 
ATOM     20  O   UNL     1      10.315  -2.030  22.509  0.00  0.00    -0.268 OA
ATOM     21  C   UNL     1       9.162  -0.486  23.991  0.00  0.00    +0.056 A 
ATOM     22  C   UNL     1       8.346  -1.230  24.889  0.00  0.00    +0.000 A 
ATOM     23  C   UNL     1       8.146  -2.685  25.119  0.00  0.00    -0.013 A 
ATOM     24  C   UNL     1       8.516  -3.273  26.344  0.00  0.00    +0.012 A 
ATOM     25  C   UNL     1       7.897  -4.465  26.820  0.00  0.00    +0.046 A 
ENDROOT
BRANCH   1  26
ATOM     26  O   UNL     1       6.421  -6.300  26.596  0.00  0.00    -0.489 OA
BRANCH  26  28
ATOM     27  C   UNL     1       4.200  -7.031  25.938  0.00  0.00    +0.051 C 
ATOM     28  C   UNL     1       5.026  -6.251  26.957  0.00  0.00    +0.167 C 
ATOM     29  C   UNL     1       4.868  -6.901  28.335  0.00  0.00    +0.051 C 
ENDBRANCH  26  28
ENDBRANCH   1  26
BRANCH   8  30
ATOM     30  C   UNL     1       6.348   0.908  27.683  0.00  0.00    +0.150 C 
BRANCH  30  31
ATOM     31  C   UNL     1       7.308   0.872  28.855  0.00  0.00    +0.177 C 
BRANCH  31  32
ATOM     32  O   UNL     1       8.500   0.209  28.446  0.00  0.00    -0.393 OA
ATOM     33  H   UNL     1       8.909   0.749  27.749  0.00  0.00    +0.209 HD
ENDBRANCH  31  32
ENDBRANCH  30  31
ENDBRANCH   8  30
TORSDOF 5
ENDMDL
MODEL 5
REMARK VINA RESULT:      -7.3      3.041      7.927
REMARK  Name = 
REMARK  7 active torsions:
REMARK  status: ('A' for Active; 'I' for Inactive)
REMARK    1  A    between atoms: C_1  and  C_2
REMARK    2  A    between atoms: C_2  and  C_3
REMARK    3  A    between atoms: C_2  and  O_4
REMARK    4  A    between atoms: O_4  and  C_5
REMARK    5  A    between atoms: N_22  and  C_23
REMARK    6  A    between atoms: C_23  and  C_24
REMARK    7  A    between atoms: C_24  and  O_25
REMARK                            x       y       z     vdW  Elec       q    Type
REMARK                         _______ _______ _______ _____ _____    ______ ____
ROOT
ATOM      1  C   UNL     1       8.595   1.011  22.189  0.00  0.00    +0.121 A 
ATOM      2  C   UNL     1       9.223  -0.192  21.937  0.00  0.00    +0.050 A 
ATOM      3  C   UNL     1       8.617  -1.378  22.406  0.00  0.00    -0.036 A 
ATOM      4  C   UNL     1       9.540  -2.134  23.386  0.00  0.00    +0.040 C 
ATOM      5  C   UNL     1       8.929  -3.417  23.894  0.00  0.00    +0.042 C 
ATOM      6  C   UNL     1       7.529  -3.058  24.422  0.00  0.00    -0.014 A 
ATOM      7  C   UNL     1       6.882  -3.806  25.380  0.00  0.00    +0.055 A 
ATOM      8  N   UNL     1       6.638  -3.581  26.700  0.00  0.00    -0.337 N 
ATOM      9  C   UNL     1       6.004  -4.665  27.266  0.00  0.00    +0.050 A 
ATOM     10  C   UNL     1       5.670  -5.563  26.210  0.00  0.00    +0.008 A 
ATOM     11  C   UNL     1       5.010  -6.756  26.560  0.00  0.00    +0.010 A 
ATOM     12  C   UNL     1       4.720  -7.018  27.915  0.00  0.00    +0.001 A 
ATOM     13  C   UNL     1       5.028  -6.095  28.913  0.00  0.00    +0.002 A 
ATOM     14  C   UNL     1       5.672  -4.902  28.604  0.00  0.00    +0.026 A 
ATOM     15  C   UNL     1       6.073  -4.861  25.073  0.00  0.00    +0.017 A 
ATOM     16  C   UNL     1       5.840  -5.068  23.688  0.00  0.00    +0.013 A 
ATOM     17  C   UNL     1       5.403  -6.090  22.848  0.00  0.00    +0.110 C 
ATOM     18  N   UNL     1       5.417  -5.743  21.605  0.00  0.00    -0.184 NA
ATOM     19  C   UNL     1       5.869  -4.409  21.485  0.00  0.00    +0.268 C 
ATOM     20  O   UNL     1       6.068  -3.870  20.404  0.00  0.00    -0.268 OA
ATOM     21  C   UNL     1       6.124  -3.935  22.834  0.00  0.00    +0.056 A 
ATOM     22  C   UNL     1       6.725  -2.736  23.314  0.00  0.00    +0.000 A 
ATOM     23  C   UNL     1       7.218  -1.504  22.645  0.00  0.00    -0.013 A 
ATOM     24  C   UNL     1       6.603  -0.261  22.890  0.00  0.00    +0.012 A 
ATOM     25  C   UNL     1       7.307   0.968  22.733  0.00  0.00    +0.046 A 
ENDROOT
BRANCH   1  26
ATOM     26  O   UNL     1       9.206   2.238  22.120  0.00  0.00    -0.489 OA
BRANCH  26  28
ATOM     27  C   UNL     1      11.009   3.293  23.360  0.00  0.00    +0.051 C 
ATOM     28  C   UNL     1       9.528   2.923  23.346  0.00  0.00    +0.167 C 
ATOM     29  C   UNL     1       8.690   4.204  23.410  0.00  0.00    +0.051 C 
ENDBRANCH  26  28
ENDBRANCH   1  26
BRANCH   8  30
ATOM     30  C   UNL     1       6.888  -2.300  27.333  0.00  0.00    +0.150 C 
BRANCH  30  31
ATOM     31  C   UNL     1       5.787  -1.292  27.070  0.00  0.00    +0.177 C 
BRANCH  31  32
ATOM     32  O   UNL     1       6.327  -0.216  26.310  0.00  0.00    -0.393 OA
ATOM     33  H   UNL     1       6.384  -0.512  25.385  0.00  0.00    +0.209 HD
ENDBRANCH  31  32
ENDBRANCH  30  31
ENDBRANCH   8  30
TORSDOF 5
ENDMDL
MODEL 6
REMARK VINA RESULT:      -7.2      3.691      7.921
REMARK  Name = 
REMARK  7 active torsions:
REMARK  status: ('A' for Active; 'I' for Inactive)
REMARK    1  A    between atoms: C_1  and  C_2
REMARK    2  A    between atoms: C_2  and  C_3
REMARK    3  A    between atoms: C_2  and  O_4
REMARK    4  A    between atoms: O_4  and  C_5
REMARK    5  A    between atoms: N_22  and  C_23
REMARK    6  A    between atoms: C_23  and  C_24
REMARK    7  A    between atoms: C_24  and  O_25
REMARK                            x       y       z     vdW  Elec       q    Type
REMARK                         _______ _______ _______ _____ _____    ______ ____
ROOT
ATOM      1  C   UNL     1       9.088  -1.501  23.069  0.00  0.00    +0.121 A 
ATOM      2  C   UNL     1       9.387  -2.697  23.690  0.00  0.00    +0.050 A 
ATOM      3  C   UNL     1       8.343  -3.401  24.330  0.00  0.00    -0.036 A 
ATOM      4  C   UNL     1       8.629  -3.587  25.836  0.00  0.00    +0.040 C 
ATOM      5  C   UNL     1       7.541  -4.352  26.548  0.00  0.00    +0.042 C 
ATOM      6  C   UNL     1       6.213  -3.663  26.190  0.00  0.00    -0.014 A 
ATOM      7  C   UNL     1       5.098  -3.734  26.995  0.00  0.00    +0.055 A 
ATOM      8  N   UNL     1       4.507  -2.823  27.816  0.00  0.00    -0.337 N 
ATOM      9  C   UNL     1       3.436  -3.388  28.473  0.00  0.00    +0.050 A 
ATOM     10  C   UNL     1       3.226  -4.682  27.912  0.00  0.00    +0.008 A 
ATOM     11  C   UNL     1       2.172  -5.453  28.439  0.00  0.00    +0.010 A 
ATOM     12  C   UNL     1       1.387  -4.930  29.488  0.00  0.00    +0.001 A 
ATOM     13  C   UNL     1       1.600  -3.644  29.981  0.00  0.00    +0.002 A 
ATOM     14  C   UNL     1       2.626  -2.851  29.479  0.00  0.00    +0.026 A 
ATOM     15  C   UNL     1       4.168  -4.726  26.882  0.00  0.00    +0.017 A 
ATOM     16  C   UNL     1       4.357  -5.620  25.797  0.00  0.00    +0.013 A 
ATOM     17  C   UNL     1       3.947  -6.896  25.416  0.00  0.00    +0.110 C 
ATOM     18  N   UNL     1       4.472  -7.266  24.296  0.00  0.00    -0.184 NA
ATOM     19  C   UNL     1       5.304  -6.240  23.794  0.00  0.00    +0.268 C 
ATOM     20  O   UNL     1       5.996  -6.375  22.794  0.00  0.00    -0.268 OA
ATOM     21  C   UNL     1       5.223  -5.141  24.741  0.00  0.00    +0.056 A 
ATOM     22  C   UNL     1       5.951  -3.920  24.832  0.00  0.00    +0.000 A 
ATOM     23  C   UNL     1       6.972  -3.274  23.967  0.00  0.00    -0.013 A 
ATOM     24  C   UNL     1       6.698  -2.049  23.328  0.00  0.00    +0.012 A 
ATOM     25  C   UNL     1       7.738  -1.151  22.955  0.00  0.00    +0.046 A 
ENDROOT
BRANCH   1  26
ATOM     26  O   UNL     1      10.014  -0.549  22.724  0.00  0.00    -0.489 OA
BRANCH  26  28
ATOM     27  C   UNL     1      10.896   1.040  24.336  0.00  0.00    +0.051 C 
ATOM     28  C   UNL     1       9.863   0.787  23.242  0.00  0.00    +0.167 C 
ATOM     29  C   UNL     1      10.099   1.772  22.093  0.00  0.00    +0.051 C 
ENDBRANCH  26  28
ENDBRANCH   1  26
BRANCH   8  30
ATOM     30  C   UNL     1       4.893  -1.426  27.837  0.00  0.00    +0.150 C 
BRANCH  30  31
ATOM     31  C   UNL     1       4.017  -0.563  26.949  0.00  0.00    +0.177 C 
BRANCH  31  32
ATOM     32  O   UNL     1       4.582  -0.535  25.642  0.00  0.00    -0.393 OA
ATOM     33  H   UNL     1       5.051   0.311  25.545  0.00  0.00    +0.209 HD
ENDBRANCH  31  32
ENDBRANCH  30  31
ENDBRANCH   8  30
TORSDOF 5
ENDMDL
MODEL 7
REMARK VINA RESULT:      -7.1      2.587      4.514
REMARK  Name = 
REMARK  7 active torsions:
REMARK  status: ('A' for Active; 'I' for Inactive)
REMARK    1  A    between atoms: C_1  and  C_2
REMARK    2  A    between atoms: C_2  and  C_3
REMARK    3  A    between atoms: C_2  and  O_4
REMARK    4  A    between atoms: O_4  and  C_5
REMARK    5  A    between atoms: N_22  and  C_23
REMARK    6  A    between atoms: C_23  and  C_24
REMARK    7  A    between atoms: C_24  and  O_25
REMARK                            x       y       z     vdW  Elec       q    Type
REMARK                         _______ _______ _______ _____ _____    ______ ____
ROOT
ATOM      1  C   UNL     1       6.542  -2.748  25.939  0.00  0.00    +0.121 A 
ATOM      2  C   UNL     1       7.204  -2.656  24.732  0.00  0.00    +0.050 A 
ATOM      3  C   UNL     1       7.562  -1.374  24.258  0.00  0.00    -0.036 A 
ATOM      4  C   UNL     1       6.907  -1.074  22.892  0.00  0.00    +0.040 C 
ATOM      5  C   UNL     1       7.284   0.282  22.347  0.00  0.00    +0.042 C 
ATOM      6  C   UNL     1       7.008   1.298  23.470  0.00  0.00    -0.014 A 
ATOM      7  C   UNL     1       6.750   2.627  23.221  0.00  0.00    +0.055 A 
ATOM      8  N   UNL     1       5.603   3.359  23.274  0.00  0.00    -0.337 N 
ATOM      9  C   UNL     1       5.837   4.654  22.869  0.00  0.00    +0.050 A 
ATOM     10  C   UNL     1       7.246   4.805  22.712  0.00  0.00    +0.008 A 
ATOM     11  C   UNL     1       7.721   6.063  22.296  0.00  0.00    +0.010 A 
ATOM     12  C   UNL     1       6.801   7.103  22.044  0.00  0.00    +0.001 A 
ATOM     13  C   UNL     1       5.434   6.927  22.248  0.00  0.00    +0.002 A 
ATOM     14  C   UNL     1       4.930   5.700  22.668  0.00  0.00    +0.026 A 
ATOM     15  C   UNL     1       7.735   3.568  23.139  0.00  0.00    +0.017 A 
ATOM     16  C   UNL     1       9.043   3.112  23.447  0.00  0.00    +0.013 A 
ATOM     17  C   UNL     1      10.361   3.509  23.234  0.00  0.00    +0.110 C 
ATOM     18  N   UNL     1      11.211   2.666  23.715  0.00  0.00    -0.184 NA
ATOM     19  C   UNL     1      10.528   1.591  24.327  0.00  0.00    +0.268 C 
ATOM     20  O   UNL     1      11.101   0.607  24.774  0.00  0.00    -0.268 OA
ATOM     21  C   UNL     1       9.108   1.872  24.192  0.00  0.00    +0.056 A 
ATOM     22  C   UNL     1       7.959   1.083  24.483  0.00  0.00    +0.000 A 
ATOM     23  C   UNL     1       7.770  -0.251  25.109  0.00  0.00    -0.013 A 
ATOM     24  C   UNL     1       7.091  -0.377  26.336  0.00  0.00    +0.012 A 
ATOM     25  C   UNL     1       6.429  -1.583  26.706  0.00  0.00    +0.046 A 
ENDROOT
BRANCH   1  26
ATOM     26  O   UNL     1       5.831  -3.844  26.355  0.00  0.00    -0.489 OA
BRANCH  26  28
ATOM     27  C   UNL     1       7.447  -5.489  27.120  0.00  0.00    +0.051 C 
ATOM     28  C   UNL     1       6.364  -5.158  26.097  0.00  0.00    +0.167 C 
ATOM     29  C   UNL     1       5.222  -6.170  26.231  0.00  0.00    +0.051 C 
ENDBRANCH  26  28
ENDBRANCH   1  26
BRANCH   8  30
ATOM     30  C   UNL     1       4.372   2.839  23.838  0.00  0.00    +0.150 C 
BRANCH  30  31
ATOM     31  C   UNL     1       4.387   2.813  25.354  0.00  0.00    +0.177 C 
BRANCH  31  32
ATOM     32  O   UNL     1       4.153   1.476  25.787  0.00  0.00    -0.393 OA
ATOM     33  H   UNL     1       3.341   1.167  25.352  0.00  0.00    +0.209 HD
ENDBRANCH  31  32
ENDBRANCH  30  31
ENDBRANCH   8  30
TORSDOF 5
ENDMDL
MODEL 8
REMARK VINA RESULT:      -6.9      2.665      7.733
REMARK  Name = 
REMARK  7 active torsions:
REMARK  status: ('A' for Active; 'I' for Inactive)
REMARK    1  A    between atoms: C_1  and  C_2
REMARK    2  A    between atoms: C_2  and  C_3
REMARK    3  A    between atoms: C_2  and  O_4
REMARK    4  A    between atoms: O_4  and  C_5
REMARK    5  A    between atoms: N_22  and  C_23
REMARK    6  A    between atoms: C_23  and  C_24
REMARK    7  A    between atoms: C_24  and  O_25
REMARK                            x       y       z     vdW  Elec       q    Type
REMARK                         _______ _______ _______ _____ _____    ______ ____
ROOT
ATOM      1  C   UNL     1      10.076   3.651  23.347  0.00  0.00    +0.121 A 
ATOM      2  C   UNL     1      10.761   2.484  23.623  0.00  0.00    +0.050 A 
ATOM      3  C   UNL     1      10.015   1.319  23.907  0.00  0.00    -0.036 A 
ATOM      4  C   UNL     1      10.334   0.774  25.315  0.00  0.00    +0.040 C 
ATOM      5  C   UNL     1       9.567  -0.483  25.645  0.00  0.00    +0.042 C 
ATOM      6  C   UNL     1       8.086  -0.183  25.353  0.00  0.00    -0.014 A 
ATOM      7  C   UNL     1       7.056  -0.858  25.970  0.00  0.00    +0.055 A 
ATOM      8  N   UNL     1       6.183  -0.491  26.947  0.00  0.00    -0.337 N 
ATOM      9  C   UNL     1       5.364  -1.546  27.284  0.00  0.00    +0.050 A 
ATOM     10  C   UNL     1       5.613  -2.595  26.351  0.00  0.00    +0.008 A 
ATOM     11  C   UNL     1       4.881  -3.788  26.506  0.00  0.00    +0.010 A 
ATOM     12  C   UNL     1       3.956  -3.902  27.566  0.00  0.00    +0.001 A 
ATOM     13  C   UNL     1       3.713  -2.838  28.432  0.00  0.00    +0.002 A 
ATOM     14  C   UNL     1       4.411  -1.641  28.304  0.00  0.00    +0.026 A 
ATOM     15  C   UNL     1       6.522  -2.009  25.468  0.00  0.00    +0.017 A 
ATOM     16  C   UNL     1       7.015  -2.408  24.198  0.00  0.00    +0.013 A 
ATOM     17  C   UNL     1       7.068  -3.561  23.418  0.00  0.00    +0.110 C 
ATOM     18  N   UNL     1       7.697  -3.372  22.307  0.00  0.00    -0.184 NA
ATOM     19  C   UNL     1       8.133  -2.030  22.224  0.00  0.00    +0.268 C 
ATOM     20  O   UNL     1       8.838  -1.616  21.314  0.00  0.00    -0.268 OA
ATOM     21  C   UNL     1       7.673  -1.370  23.434  0.00  0.00    +0.056 A 
ATOM     22  C   UNL     1       7.940  -0.073  23.959  0.00  0.00    +0.000 A 
ATOM     23  C   UNL     1       8.686   1.103  23.442  0.00  0.00    -0.013 A 
ATOM     24  C   UNL     1       8.015   2.309  23.160  0.00  0.00    +0.012 A 
ATOM     25  C   UNL     1       8.689   3.565  23.186  0.00  0.00    +0.046 A 
ENDROOT
BRANCH   1  26
ATOM     26  O   UNL     1      10.624   4.907  23.403  0.00  0.00    -0.489 OA
BRANCH  26  28
ATOM     27  C   UNL     1      12.815   5.230  22.404  0.00  0.00    +0.051 C 
ATOM     28  C   UNL     1      12.029   5.040  23.698  0.00  0.00    +0.167 C 
ATOM     29  C   UNL     1      12.214   6.276  24.584  0.00  0.00    +0.051 C 
ENDBRANCH  26  28
ENDBRANCH   1  26
BRANCH   8  30
ATOM     30  C   UNL     1       6.067   0.876  27.418  0.00  0.00    +0.150 C 
BRANCH  30  31
ATOM     31  C   UNL     1       6.928   1.152  28.634  0.00  0.00    +0.177 C 
BRANCH  31  32
ATOM     32  O   UNL     1       7.543   2.427  28.476  0.00  0.00    -0.393 OA
ATOM     33  H   UNL     1       6.982   2.948  27.878  0.00  0.00    +0.209 HD
ENDBRANCH  31  32
ENDBRANCH  30  31
ENDBRANCH   8  30
TORSDOF 5
ENDMDL
MODEL 9
REMARK VINA RESULT:      -6.9      3.104      7.959
REMARK  Name = 
REMARK  7 active torsions:
REMARK  status: ('A' for Active; 'I' for Inactive)
REMARK    1  A    between atoms: C_1  and  C_2
REMARK    2  A    between atoms: C_2  and  C_3
REMARK    3  A    between atoms: C_2  and  O_4
REMARK    4  A    between atoms: O_4  and  C_5
REMARK    5  A    between atoms: N_22  and  C_23
REMARK    6  A    between atoms: C_23  and  C_24
REMARK    7  A    between atoms: C_24  and  O_25
REMARK                            x       y       z     vdW  Elec       q    Type
REMARK                         _______ _______ _______ _____ _____    ______ ____
ROOT
ATOM      1  C   UNL     1       7.721   2.172  22.947  0.00  0.00    +0.121 A 
ATOM      2  C   UNL     1       8.679   1.846  23.887  0.00  0.00    +0.050 A 
ATOM      3  C   UNL     1       8.596   0.588  24.522  0.00  0.00    -0.036 A 
ATOM      4  C   UNL     1       8.444   0.737  26.051  0.00  0.00    +0.040 C 
ATOM      5  C   UNL     1       8.370  -0.591  26.765  0.00  0.00    +0.042 C 
ATOM      6  C   UNL     1       7.282  -1.413  26.052  0.00  0.00    -0.014 A 
ATOM      7  C   UNL     1       6.589  -2.427  26.675  0.00  0.00    +0.055 A 
ATOM      8  N   UNL     1       5.313  -2.504  27.143  0.00  0.00    -0.337 N 
ATOM      9  C   UNL     1       5.096  -3.719  27.755  0.00  0.00    +0.050 A 
ATOM     10  C   UNL     1       6.244  -4.529  27.514  0.00  0.00    +0.008 A 
ATOM     11  C   UNL     1       6.245  -5.829  28.056  0.00  0.00    +0.010 A 
ATOM     12  C   UNL     1       5.137  -6.266  28.812  0.00  0.00    +0.001 A 
ATOM     13  C   UNL     1       4.016  -5.457  28.990  0.00  0.00    +0.002 A 
ATOM     14  C   UNL     1       3.976  -4.171  28.462  0.00  0.00    +0.026 A 
ATOM     15  C   UNL     1       7.019  -3.722  26.680  0.00  0.00    +0.017 A 
ATOM     16  C   UNL     1       8.172  -3.985  25.896  0.00  0.00    +0.013 A 
ATOM     17  C   UNL     1       9.159  -4.962  25.792  0.00  0.00    +0.110 C 
ATOM     18  N   UNL     1      10.040  -4.676  24.892  0.00  0.00    -0.184 NA
ATOM     19  C   UNL     1       9.715  -3.447  24.276  0.00  0.00    +0.268 C 
ATOM     20  O   UNL     1      10.442  -2.902  23.457  0.00  0.00    -0.268 OA
ATOM     21  C   UNL     1       8.481  -2.988  24.893  0.00  0.00    +0.056 A 
ATOM     22  C   UNL     1       7.772  -1.758  24.780  0.00  0.00    +0.000 A 
ATOM     23  C   UNL     1       7.959  -0.546  23.941  0.00  0.00    -0.013 A 
ATOM     24  C   UNL     1       6.995  -0.184  22.980  0.00  0.00    +0.012 A 
ATOM     25  C   UNL     1       6.835   1.165  22.550  0.00  0.00    +0.046 A 
ENDROOT
BRANCH   1  26
ATOM     26  O   UNL     1       7.457   3.446  22.515  0.00  0.00    -0.489 OA
BRANCH  26  28
ATOM     27  C   UNL     1       7.849   5.838  22.682  0.00  0.00    +0.051 C 
ATOM     28  C   UNL     1       7.600   4.539  23.444  0.00  0.00    +0.167 C 
ATOM     29  C   UNL     1       6.295   4.665  24.236  0.00  0.00    +0.051 C 
ENDBRANCH  26  28
ENDBRANCH   1  26
BRANCH   8  30
ATOM     30  C   UNL     1       4.317  -1.487  26.867  0.00  0.00    +0.150 C 
BRANCH  30  31
ATOM     31  C   UNL     1       4.129  -0.522  28.021  0.00  0.00    +0.177 C 
BRANCH  31  32
ATOM     32  O   UNL     1       5.054   0.551  27.871  0.00  0.00    -0.393 OA
ATOM     33  H   UNL     1       5.841   0.332  28.398  0.00  0.00    +0.209 HD
ENDBRANCH  31  32
ENDBRANCH  30  31
ENDBRANCH   8  30
TORSDOF 5
ENDMDL
