MODEL 1
REMARK VINA RESULT:      -7.8      0.000      0.000
REMARK  Name = 
REMARK  6 active torsions:
REMARK  status: ('A' for Active; 'I' for Inactive)
REMARK    1  A    between atoms: O_1  and  C_2
REMARK    2  A    between atoms: C_7  and  C_8
REMARK    3  A    between atoms: C_8  and  C_9
REMARK    4  A    between atoms: C_11  and  O_12
REMARK    5  A    between atoms: O_12  and  C_13
REMARK    6  A    between atoms: C_16  and  C_19
REMARK                            x       y       z     vdW  Elec       q    Type
REMARK                         _______ _______ _______ _____ _____    ______ ____
ROOT
ATOM      1  C   UNL     1       6.473  -4.253  25.256  0.00  0.00    -0.044 A 
ATOM      2  C   UNL     1       6.833  -4.956  26.411  0.00  0.00    +0.004 A 
ATOM      3  C   UNL     1       8.179  -5.123  26.745  0.00  0.00    +0.004 A 
ATOM      4  C   UNL     1       9.176  -4.609  25.913  0.00  0.00    +0.046 A 
ATOM      5  C   UNL     1       8.834  -3.916  24.752  0.00  0.00    +0.131 A 
ATOM      6  C   UNL     1       7.485  -3.706  24.451  0.00  0.00    +0.050 A 
ENDROOT
BRANCH   1   7
ATOM      7  C   UNL     1       5.029  -4.120  24.837  0.00  0.00    +0.039 C 
BRANCH   7  12
ATOM      8  C   UNL     1       2.000  -8.153  24.629  0.00  0.00    +0.400 C 
ATOM      9  N   UNL     1       2.872  -7.090  24.741  0.00  0.00    -0.268 N 
ATOM     10  C   UNL     1       2.340  -5.741  24.541  0.00  0.00    +0.111 C 
ATOM     11  C   UNL     1       3.086  -4.983  23.443  0.00  0.00    +0.023 C 
ATOM     12  C   UNL     1       4.614  -5.005  23.643  0.00  0.00    -0.004 C 
ATOM     13  C   UNL     1       5.063  -6.467  23.789  0.00  0.00    +0.023 C 
ATOM     14  C   UNL     1       4.323  -7.193  24.911  0.00  0.00    +0.111 C 
ATOM     15  O   UNL     1       0.872  -8.091  24.162  0.00  0.00    -0.226 OA
BRANCH   8  16
ATOM     16  O   UNL     1       2.469  -9.309  25.141  0.00  0.00    -0.466 OA
ATOM     17  H   UNL     1       2.577  -9.237  26.100  0.00  0.00    +0.297 HD
ENDBRANCH   8  16
ENDBRANCH   7  12
ENDBRANCH   1   7
BRANCH   5  18
ATOM     18  O   UNL     1       9.881  -3.410  24.016  0.00  0.00    -0.438 OA
BRANCH  18  19
ATOM     19  C   UNL     1       9.827  -2.100  23.554  0.00  0.00    +0.220 A 
ATOM     20  C   UNL     1       9.771  -1.112  24.525  0.00  0.00    +0.068 A 
ATOM     21  C   UNL     1       9.720   0.219  24.114  0.00  0.00    +0.019 A 
ATOM     22  C   UNL     1       9.738   0.527  22.749  0.00  0.00    +0.073 A 
ATOM     23  C   UNL     1       9.820  -0.532  21.857  0.00  0.00    +0.127 A 
ATOM     24  N   UNL     1       9.875  -1.831  22.228  0.00  0.00    -0.220 NA
BRANCH  22  25
ATOM     25  C   UNL     1       9.670   1.941  22.259  0.00  0.00    +0.419 C 
ATOM     26  F   UNL     1      10.808   2.325  21.620  0.00  0.00    -0.166 F 
ATOM     27  F   UNL     1       9.491   2.831  23.273  0.00  0.00    -0.166 F 
ATOM     28  F   UNL     1       8.653   2.167  21.382  0.00  0.00    -0.166 F 
ENDBRANCH  22  25
ENDBRANCH  18  19
ENDBRANCH   5  18
TORSDOF 6
ENDMDL
MODEL 2
REMARK VINA RESULT:      -7.5      2.710      4.224
REMARK  Name = 
REMARK  6 active torsions:
REMARK  status: ('A' for Active; 'I' for Inactive)
REMARK    1  A    between atoms: O_1  and  C_2
REMARK    2  A    between atoms: C_7  and  C_8
REMARK    3  A    between atoms: C_8  and  C_9
REMARK    4  A    between atoms: C_11  and  O_12
REMARK    5  A    between atoms: O_12  and  C_13
REMARK    6  A    between atoms: C_16  and  C_19
REMARK                            x       y       z     vdW  Elec       q    Type
REMARK                         _______ _______ _______ _____ _____    ______ ____
ROOT
ATOM      1  C   UNL     1       8.515  -2.051  23.721  0.00  0.00    -0.044 A 
ATOM      2  C   UNL     1       8.506  -2.141  22.324  0.00  0.00    +0.004 A 
ATOM      3  C   UNL     1       9.270  -1.260  21.556  0.00  0.00    +0.004 A 
ATOM      4  C   UNL     1      10.030  -0.267  22.176  0.00  0.00    +0.046 A 
ATOM      5  C   UNL     1      10.041  -0.158  23.568  0.00  0.00    +0.131 A 
ATOM      6  C   UNL     1       9.317  -1.075  24.333  0.00  0.00    +0.050 A 
ENDROOT
BRANCH   1   7
ATOM      7  C   UNL     1       7.644  -2.946  24.569  0.00  0.00    +0.039 C 
BRANCH   7  12
ATOM      8  C   UNL     1       4.711  -6.938  25.547  0.00  0.00    +0.400 C 
ATOM      9  N   UNL     1       5.503  -5.823  25.357  0.00  0.00    -0.268 N 
ATOM     10  C   UNL     1       5.507  -5.201  24.031  0.00  0.00    +0.111 C 
ATOM     11  C   UNL     1       6.913  -5.105  23.442  0.00  0.00    +0.023 C 
ATOM     12  C   UNL     1       7.918  -4.456  24.415  0.00  0.00    -0.004 C 
ATOM     13  C   UNL     1       7.865  -5.221  25.747  0.00  0.00    +0.023 C 
ATOM     14  C   UNL     1       6.453  -5.277  26.328  0.00  0.00    +0.111 C 
ATOM     15  O   UNL     1       4.184  -7.585  24.655  0.00  0.00    -0.226 OA
BRANCH   8  16
ATOM     16  O   UNL     1       4.502  -7.252  26.842  0.00  0.00    -0.466 OA
ATOM     17  H   UNL     1       4.430  -8.211  26.951  0.00  0.00    +0.297 HD
ENDBRANCH   8  16
ENDBRANCH   7  12
ENDBRANCH   1   7
BRANCH   5  18
ATOM     18  O   UNL     1      10.852   0.824  24.092  0.00  0.00    -0.438 OA
BRANCH  18  19
ATOM     19  C   UNL     1      10.448   2.152  24.033  0.00  0.00    +0.220 A 
ATOM     20  C   UNL     1       9.192   2.432  24.548  0.00  0.00    +0.068 A 
ATOM     21  C   UNL     1       8.741   3.751  24.518  0.00  0.00    +0.019 A 
ATOM     22  C   UNL     1       9.560   4.753  23.985  0.00  0.00    +0.073 A 
ATOM     23  C   UNL     1      10.810   4.375  23.517  0.00  0.00    +0.127 A 
ATOM     24  N   UNL     1      11.273   3.105  23.539  0.00  0.00    -0.220 NA
BRANCH  22  25
ATOM     25  C   UNL     1       9.113   6.182  23.917  0.00  0.00    +0.419 C 
ATOM     26  F   UNL     1      10.063   7.046  24.368  0.00  0.00    -0.166 F 
ATOM     27  F   UNL     1       8.006   6.414  24.675  0.00  0.00    -0.166 F 
ATOM     28  F   UNL     1       8.797   6.596  22.660  0.00  0.00    -0.166 F 
ENDBRANCH  22  25
ENDBRANCH  18  19
ENDBRANCH   5  18
TORSDOF 6
ENDMDL
MODEL 3
REMARK VINA RESULT:      -7.4      4.168      5.776
REMARK  Name = 
REMARK  6 active torsions:
REMARK  status: ('A' for Active; 'I' for Inactive)
REMARK    1  A    between atoms: O_1  and  C_2
REMARK    2  A    between atoms: C_7  and  C_8
REMARK    3  A    between atoms: C_8  and  C_9
REMARK    4  A    between atoms: C_11  and  O_12
REMARK    5  A    between atoms: O_12  and  C_13
REMARK    6  A    between atoms: C_16  and  C_19
REMARK                            x       y       z     vdW  Elec       q    Type
REMARK                         _______ _______ _______ _____ _____    ______ ____
ROOT
ATOM      1  C   UNL     1       9.803  -1.359  23.155  0.00  0.00    -0.044 A 
ATOM      2  C   UNL     1       9.374  -1.224  21.830  0.00  0.00    +0.004 A 
ATOM      3  C   UNL     1       9.391   0.025  21.207  0.00  0.00    +0.004 A 
ATOM      4  C   UNL     1       9.815   1.154  21.911  0.00  0.00    +0.046 A 
ATOM      5  C   UNL     1      10.235   1.038  23.237  0.00  0.00    +0.131 A 
ATOM      6  C   UNL     1      10.266  -0.224  23.838  0.00  0.00    +0.050 A 
ENDROOT
BRANCH   1   7
ATOM      7  C   UNL     1       9.728  -2.686  23.872  0.00  0.00    +0.039 C 
BRANCH   7  12
ATOM      8  C   UNL     1       7.154  -5.046  27.518  0.00  0.00    +0.400 C 
ATOM      9  N   UNL     1       7.919  -4.453  26.534  0.00  0.00    -0.268 N 
ATOM     10  C   UNL     1       7.753  -3.016  26.308  0.00  0.00    +0.111 C 
ATOM     11  C   UNL     1       7.385  -2.697  24.860  0.00  0.00    +0.023 C 
ATOM     12  C   UNL     1       8.340  -3.360  23.848  0.00  0.00    -0.004 C 
ATOM     13  C   UNL     1       8.394  -4.867  24.147  0.00  0.00    +0.023 C 
ATOM     14  C   UNL     1       8.792  -5.157  25.593  0.00  0.00    +0.111 C 
ATOM     15  O   UNL     1       6.194  -4.529  28.069  0.00  0.00    -0.226 OA
BRANCH   8  16
ATOM     16  O   UNL     1       7.585  -6.268  27.890  0.00  0.00    -0.466 OA
ATOM     17  H   UNL     1       8.202  -6.199  28.634  0.00  0.00    +0.297 HD
ENDBRANCH   8  16
ENDBRANCH   7  12
ENDBRANCH   1   7
BRANCH   5  18
ATOM     18  O   UNL     1      10.675   2.196  23.838  0.00  0.00    -0.438 OA
BRANCH  18  19
ATOM     19  C   UNL     1       9.770   3.216  24.106  0.00  0.00    +0.220 A 
ATOM     20  C   UNL     1       8.659   2.865  24.857  0.00  0.00    +0.068 A 
ATOM     21  C   UNL     1       7.723   3.852  25.159  0.00  0.00    +0.019 A 
ATOM     22  C   UNL     1       7.928   5.164  24.714  0.00  0.00    +0.073 A 
ATOM     23  C   UNL     1       9.083   5.419  23.991  0.00  0.00    +0.127 A 
ATOM     24  N   UNL     1      10.009   4.481  23.688  0.00  0.00    -0.220 NA
BRANCH  22  25
ATOM     25  C   UNL     1       6.943   6.255  25.000  0.00  0.00    +0.419 C 
ATOM     26  F   UNL     1       6.703   7.038  23.913  0.00  0.00    -0.166 F 
ATOM     27  F   UNL     1       7.374   7.097  25.979  0.00  0.00    -0.166 F 
ATOM     28  F   UNL     1       5.727   5.801  25.410  0.00  0.00    -0.166 F 
ENDBRANCH  22  25
ENDBRANCH  18  19
ENDBRANCH   5  18
TORSDOF 6
ENDMDL
MODEL 4
REMARK VINA RESULT:      -7.2      3.600      5.150
REMARK  Name = 
REMARK  6 active torsions:
REMARK  status: ('A' for Active; 'I' for Inactive)
REMARK    1  A    between atoms: O_1  and  C_2
REMARK    2  A    between atoms: C_7  and  C_8
REMARK    3  A    between atoms: C_8  and  C_9
REMARK    4  A    between atoms: C_11  and  O_12
REMARK    5  A    between atoms: O_12  and  C_13
REMARK    6  A    between atoms: C_16  and  C_19
REMARK                            x       y       z     vdW  Elec       q    Type
REMARK                         _______ _______ _______ _____ _____    ______ ____
ROOT
ATOM      1  C   UNL     1       8.950  -2.170  23.545  0.00  0.00    -0.044 A 
ATOM      2  C   UNL     1       8.708  -2.086  22.169  0.00  0.00    +0.004 A 
ATOM      3  C   UNL     1       9.226  -1.024  21.425  0.00  0.00    +0.004 A 
ATOM      4  C   UNL     1       9.972  -0.025  22.054  0.00  0.00    +0.046 A 
ATOM      5  C   UNL     1      10.213  -0.089  23.427  0.00  0.00    +0.131 A 
ATOM      6  C   UNL     1       9.736  -1.181  24.157  0.00  0.00    +0.050 A 
ENDROOT
BRANCH   1   7
ATOM      7  C   UNL     1       8.342  -3.269  24.383  0.00  0.00    +0.039 C 
BRANCH   7  12
ATOM      8  C   UNL     1       6.169  -5.699  28.237  0.00  0.00    +0.400 C 
ATOM      9  N   UNL     1       6.689  -5.016  27.157  0.00  0.00    -0.268 N 
ATOM     10  C   UNL     1       7.949  -5.492  26.584  0.00  0.00    +0.111 C 
ATOM     11  C   UNL     1       9.019  -4.402  26.555  0.00  0.00    +0.023 C 
ATOM     12  C   UNL     1       8.518  -3.097  25.906  0.00  0.00    -0.004 C 
ATOM     13  C   UNL     1       7.226  -2.666  26.620  0.00  0.00    +0.023 C 
ATOM     14  C   UNL     1       6.163  -3.764  26.608  0.00  0.00    +0.111 C 
ATOM     15  O   UNL     1       6.772  -6.531  28.898  0.00  0.00    -0.226 OA
BRANCH   8  16
ATOM     16  O   UNL     1       4.876  -5.420  28.497  0.00  0.00    -0.466 OA
ATOM     17  H   UNL     1       4.589  -5.864  29.308  0.00  0.00    +0.297 HD
ENDBRANCH   8  16
ENDBRANCH   7  12
ENDBRANCH   1   7
BRANCH   5  18
ATOM     18  O   UNL     1      10.992   0.917  23.953  0.00  0.00    -0.438 OA
BRANCH  18  19
ATOM     19  C   UNL     1      10.500   2.217  23.994  0.00  0.00    +0.220 A 
ATOM     20  C   UNL     1      11.336   3.202  23.492  0.00  0.00    +0.068 A 
ATOM     21  C   UNL     1      10.887   4.522  23.505  0.00  0.00    +0.019 A 
ATOM     22  C   UNL     1       9.615   4.819  24.006  0.00  0.00    +0.073 A 
ATOM     23  C   UNL     1       8.845   3.760  24.463  0.00  0.00    +0.127 A 
ATOM     24  N   UNL     1       9.254   2.471  24.458  0.00  0.00    -0.220 NA
BRANCH  22  25
ATOM     25  C   UNL     1       9.096   6.224  24.055  0.00  0.00    +0.419 C 
ATOM     26  F   UNL     1      10.005   7.097  24.568  0.00  0.00    -0.166 F 
ATOM     27  F   UNL     1       7.985   6.338  24.834  0.00  0.00    -0.166 F 
ATOM     28  F   UNL     1       8.747   6.719  22.836  0.00  0.00    -0.166 F 
ENDBRANCH  22  25
ENDBRANCH  18  19
ENDBRANCH   5  18
TORSDOF 6
ENDMDL
MODEL 5
REMARK VINA RESULT:      -7.2      2.180      2.959
REMARK  Name = 
REMARK  6 active torsions:
REMARK  status: ('A' for Active; 'I' for Inactive)
REMARK    1  A    between atoms: O_1  and  C_2
REMARK    2  A    between atoms: C_7  and  C_8
REMARK    3  A    between atoms: C_8  and  C_9
REMARK    4  A    between atoms: C_11  and  O_12
REMARK    5  A    between atoms: O_12  and  C_13
REMARK    6  A    between atoms: C_16  and  C_19
REMARK                            x       y       z     vdW  Elec       q    Type
REMARK                         _______ _______ _______ _____ _____    ______ ____
ROOT
ATOM      1  C   UNL     1       5.168  -5.148  23.532  0.00  0.00    -0.044 A 
ATOM      2  C   UNL     1       5.243  -5.758  22.274  0.00  0.00    +0.004 A 
ATOM      3  C   UNL     1       6.481  -5.945  21.654  0.00  0.00    +0.004 A 
ATOM      4  C   UNL     1       7.650  -5.503  22.276  0.00  0.00    +0.046 A 
ATOM      5  C   UNL     1       7.590  -4.883  23.525  0.00  0.00    +0.131 A 
ATOM      6  C   UNL     1       6.355  -4.746  24.164  0.00  0.00    +0.050 A 
ENDROOT
BRANCH   1   7
ATOM      7  C   UNL     1       3.838  -4.871  24.190  0.00  0.00    +0.039 C 
BRANCH   7  12
ATOM      8  C   UNL     1       2.835  -6.951  28.679  0.00  0.00    +0.400 C 
ATOM      9  N   UNL     1       3.188  -6.390  27.470  0.00  0.00    -0.268 N 
ATOM     10  C   UNL     1       2.290  -5.390  26.888  0.00  0.00    +0.111 C 
ATOM     11  C   UNL     1       1.839  -5.769  25.478  0.00  0.00    +0.023 C 
ATOM     12  C   UNL     1       3.020  -6.127  24.555  0.00  0.00    -0.004 C 
ATOM     13  C   UNL     1       3.858  -7.217  25.242  0.00  0.00    +0.023 C 
ATOM     14  C   UNL     1       4.320  -6.801  26.637  0.00  0.00    +0.111 C 
ATOM     15  O   UNL     1       1.735  -6.855  29.204  0.00  0.00    -0.226 OA
BRANCH   8  16
ATOM     16  O   UNL     1       3.840  -7.598  29.302  0.00  0.00    -0.466 OA
ATOM     17  H   UNL     1       3.731  -7.550  30.263  0.00  0.00    +0.297 HD
ENDBRANCH   8  16
ENDBRANCH   7  12
ENDBRANCH   1   7
BRANCH   5  18
ATOM     18  O   UNL     1       8.796  -4.518  24.079  0.00  0.00    -0.438 OA
BRANCH  18  19
ATOM     19  C   UNL     1       9.201  -3.189  24.030  0.00  0.00    +0.220 A 
ATOM     20  C   UNL     1       8.873  -2.411  25.129  0.00  0.00    +0.068 A 
ATOM     21  C   UNL     1       9.260  -1.072  25.133  0.00  0.00    +0.019 A 
ATOM     22  C   UNL     1       9.972  -0.551  24.046  0.00  0.00    +0.073 A 
ATOM     23  C   UNL     1      10.273  -1.417  23.006  0.00  0.00    +0.127 A 
ATOM     24  N   UNL     1       9.913  -2.721  22.979  0.00  0.00    -0.220 NA
BRANCH  22  25
ATOM     25  C   UNL     1      10.396   0.885  23.998  0.00  0.00    +0.419 C 
ATOM     26  F   UNL     1       9.556   1.700  24.692  0.00  0.00    -0.166 F 
ATOM     27  F   UNL     1      10.425   1.373  22.727  0.00  0.00    -0.166 F 
ATOM     28  F   UNL     1      11.639   1.105  24.508  0.00  0.00    -0.166 F 
ENDBRANCH  22  25
ENDBRANCH  18  19
ENDBRANCH   5  18
TORSDOF 6
ENDMDL
MODEL 6
REMARK VINA RESULT:      -7.2      2.768      4.440
REMARK  Name = 
REMARK  6 active torsions:
REMARK  status: ('A' for Active; 'I' for Inactive)
REMARK    1  A    between atoms: O_1  and  C_2
REMARK    2  A    between atoms: C_7  and  C_8
REMARK    3  A    between atoms: C_8  and  C_9
REMARK    4  A    between atoms: C_11  and  O_12
REMARK    5  A    between atoms: O_12  and  C_13
REMARK    6  A    between atoms: C_16  and  C_19
REMARK                            x       y       z     vdW  Elec       q    Type
REMARK                         _______ _______ _______ _____ _____    ______ ____
ROOT
ATOM      1  C   UNL     1       8.675  -2.092  24.397  0.00  0.00    -0.044 A 
ATOM      2  C   UNL     1       9.868  -2.296  23.695  0.00  0.00    +0.004 A 
ATOM      3  C   UNL     1      10.188  -1.492  22.599  0.00  0.00    +0.004 A 
ATOM      4  C   UNL     1       9.307  -0.492  22.183  0.00  0.00    +0.046 A 
ATOM      5  C   UNL     1       8.108  -0.283  22.866  0.00  0.00    +0.131 A 
ATOM      6  C   UNL     1       7.818  -1.056  23.994  0.00  0.00    +0.050 A 
ENDROOT
BRANCH   1   7
ATOM      7  C   UNL     1       8.274  -2.993  25.540  0.00  0.00    +0.039 C 
BRANCH   7  12
ATOM      8  C   UNL     1       4.929  -6.773  25.626  0.00  0.00    +0.400 C 
ATOM      9  N   UNL     1       5.822  -5.723  25.679  0.00  0.00    -0.268 N 
ATOM     10  C   UNL     1       6.090  -4.986  24.443  0.00  0.00    +0.111 C 
ATOM     11  C   UNL     1       7.577  -4.964  24.093  0.00  0.00    +0.023 C 
ATOM     12  C   UNL     1       8.455  -4.502  25.272  0.00  0.00    -0.004 C 
ATOM     13  C   UNL     1       8.127  -5.377  26.493  0.00  0.00    +0.023 C 
ATOM     14  C   UNL     1       6.639  -5.357  26.838  0.00  0.00    +0.111 C 
ATOM     15  O   UNL     1       4.507  -7.285  24.600  0.00  0.00    -0.226 OA
BRANCH   8  16
ATOM     16  O   UNL     1       4.487  -7.184  26.832  0.00  0.00    -0.466 OA
ATOM     17  H   UNL     1       3.851  -7.908  26.732  0.00  0.00    +0.297 HD
ENDBRANCH   8  16
ENDBRANCH   7  12
ENDBRANCH   1   7
BRANCH   5  18
ATOM     18  O   UNL     1       7.322   0.751  22.410  0.00  0.00    -0.438 OA
BRANCH  18  19
ATOM     19  C   UNL     1       7.682   2.064  22.694  0.00  0.00    +0.220 A 
ATOM     20  C   UNL     1       6.991   3.048  22.005  0.00  0.00    +0.068 A 
ATOM     21  C   UNL     1       7.309   4.382  22.257  0.00  0.00    +0.019 A 
ATOM     22  C   UNL     1       8.298   4.695  23.196  0.00  0.00    +0.073 A 
ATOM     23  C   UNL     1       8.914   3.639  23.851  0.00  0.00    +0.127 A 
ATOM     24  N   UNL     1       8.621   2.337  23.629  0.00  0.00    -0.220 NA
BRANCH  22  25
ATOM     25  C   UNL     1       8.685   6.112  23.490  0.00  0.00    +0.419 C 
ATOM     26  F   UNL     1       7.910   7.012  22.825  0.00  0.00    -0.166 F 
ATOM     27  F   UNL     1       9.969   6.383  23.127  0.00  0.00    -0.166 F 
ATOM     28  F   UNL     1       8.594   6.441  24.808  0.00  0.00    -0.166 F 
ENDBRANCH  22  25
ENDBRANCH  18  19
ENDBRANCH   5  18
TORSDOF 6
ENDMDL
MODEL 7
REMARK VINA RESULT:      -7.2      2.546      3.660
REMARK  Name = 
REMARK  6 active torsions:
REMARK  status: ('A' for Active; 'I' for Inactive)
REMARK    1  A    between atoms: O_1  and  C_2
REMARK    2  A    between atoms: C_7  and  C_8
REMARK    3  A    between atoms: C_8  and  C_9
REMARK    4  A    between atoms: C_11  and  O_12
REMARK    5  A    between atoms: O_12  and  C_13
REMARK    6  A    between atoms: C_16  and  C_19
REMARK                            x       y       z     vdW  Elec       q    Type
REMARK                         _______ _______ _______ _____ _____    ______ ____
ROOT
ATOM      1  C   UNL     1       8.509  -2.814  24.267  0.00  0.00    -0.044 A 
ATOM      2  C   UNL     1       8.288  -2.521  25.618  0.00  0.00    +0.004 A 
ATOM      3  C   UNL     1       8.725  -1.310  26.158  0.00  0.00    +0.004 A 
ATOM      4  C   UNL     1       9.407  -0.392  25.358  0.00  0.00    +0.046 A 
ATOM      5  C   UNL     1       9.646  -0.674  24.012  0.00  0.00    +0.131 A 
ATOM      6  C   UNL     1       9.159  -1.864  23.465  0.00  0.00    +0.050 A 
ENDROOT
BRANCH   1   7
ATOM      7  C   UNL     1       8.109  -4.145  23.678  0.00  0.00    +0.039 C 
BRANCH   7  12
ATOM      8  C   UNL     1       3.367  -5.770  23.075  0.00  0.00    +0.400 C 
ATOM      9  N   UNL     1       4.684  -5.401  23.260  0.00  0.00    -0.268 N 
ATOM     10  C   UNL     1       4.957  -4.048  23.745  0.00  0.00    +0.111 C 
ATOM     11  C   UNL     1       5.884  -3.274  22.808  0.00  0.00    +0.023 C 
ATOM     12  C   UNL     1       7.164  -4.059  22.461  0.00  0.00    -0.004 C 
ATOM     13  C   UNL     1       6.754  -5.436  21.915  0.00  0.00    +0.023 C 
ATOM     14  C   UNL     1       5.852  -6.200  22.883  0.00  0.00    +0.111 C 
ATOM     15  O   UNL     1       2.417  -5.001  23.070  0.00  0.00    -0.226 OA
BRANCH   8  16
ATOM     16  O   UNL     1       3.177  -7.099  22.951  0.00  0.00    -0.466 OA
ATOM     17  H   UNL     1       2.274  -7.287  22.657  0.00  0.00    +0.297 HD
ENDBRANCH   8  16
ENDBRANCH   7  12
ENDBRANCH   1   7
BRANCH   5  18
ATOM     18  O   UNL     1      10.289   0.307  23.291  0.00  0.00    -0.438 OA
BRANCH  18  19
ATOM     19  C   UNL     1       9.720   1.572  23.193  0.00  0.00    +0.220 A 
ATOM     20  C   UNL     1       8.608   1.678  22.373  0.00  0.00    +0.068 A 
ATOM     21  C   UNL     1       7.996   2.924  22.244  0.00  0.00    +0.019 A 
ATOM     22  C   UNL     1       8.503   4.024  22.945  0.00  0.00    +0.073 A 
ATOM     23  C   UNL     1       9.605   3.809  23.759  0.00  0.00    +0.127 A 
ATOM     24  N   UNL     1      10.215   2.611  23.906  0.00  0.00    -0.220 NA
BRANCH  22  25
ATOM     25  C   UNL     1       7.889   5.385  22.827  0.00  0.00    +0.419 C 
ATOM     26  F   UNL     1       6.918   5.600  23.756  0.00  0.00    -0.166 F 
ATOM     27  F   UNL     1       7.298   5.583  21.616  0.00  0.00    -0.166 F 
ATOM     28  F   UNL     1       8.781   6.402  22.975  0.00  0.00    -0.166 F 
ENDBRANCH  22  25
ENDBRANCH  18  19
ENDBRANCH   5  18
TORSDOF 6
ENDMDL
MODEL 8
REMARK VINA RESULT:      -7.1      1.919      2.718
REMARK  Name = 
REMARK  6 active torsions:
REMARK  status: ('A' for Active; 'I' for Inactive)
REMARK    1  A    between atoms: O_1  and  C_2
REMARK    2  A    between atoms: C_7  and  C_8
REMARK    3  A    between atoms: C_8  and  C_9
REMARK    4  A    between atoms: C_11  and  O_12
REMARK    5  A    between atoms: O_12  and  C_13
REMARK    6  A    between atoms: C_16  and  C_19
REMARK                            x       y       z     vdW  Elec       q    Type
REMARK                         _______ _______ _______ _____ _____    ______ ____
ROOT
ATOM      1  C   UNL     1       7.484  -4.381  23.405  0.00  0.00    -0.044 A 
ATOM      2  C   UNL     1       8.446  -4.491  24.416  0.00  0.00    +0.004 A 
ATOM      3  C   UNL     1       9.473  -3.551  24.518  0.00  0.00    +0.004 A 
ATOM      4  C   UNL     1       9.562  -2.507  23.595  0.00  0.00    +0.046 A 
ATOM      5  C   UNL     1       8.618  -2.390  22.574  0.00  0.00    +0.131 A 
ATOM      6  C   UNL     1       7.561  -3.303  22.509  0.00  0.00    +0.050 A 
ENDROOT
BRANCH   1   7
ATOM      7  C   UNL     1       6.406  -5.424  23.232  0.00  0.00    +0.039 C 
BRANCH   7  12
ATOM      8  C   UNL     1       2.955  -6.680  26.696  0.00  0.00    +0.400 C 
ATOM      9  N   UNL     1       3.901  -6.414  25.728  0.00  0.00    -0.268 N 
ATOM     10  C   UNL     1       4.838  -5.315  25.966  0.00  0.00    +0.111 C 
ATOM     11  C   UNL     1       4.809  -4.278  24.844  0.00  0.00    +0.023 C 
ATOM     12  C   UNL     1       4.967  -4.912  23.448  0.00  0.00    -0.004 C 
ATOM     13  C   UNL     1       3.903  -6.010  23.292  0.00  0.00    +0.023 C 
ATOM     14  C   UNL     1       3.974  -7.049  24.411  0.00  0.00    +0.111 C 
ATOM     15  O   UNL     1       2.683  -5.944  27.633  0.00  0.00    -0.226 OA
BRANCH   8  16
ATOM     16  O   UNL     1       2.357  -7.882  26.569  0.00  0.00    -0.466 OA
ATOM     17  H   UNL     1       1.555  -7.921  27.110  0.00  0.00    +0.297 HD
ENDBRANCH   8  16
ENDBRANCH   7  12
ENDBRANCH   1   7
BRANCH   5  18
ATOM     18  O   UNL     1       8.761  -1.307  21.736  0.00  0.00    -0.438 OA
BRANCH  18  19
ATOM     19  C   UNL     1       8.859  -0.030  22.277  0.00  0.00    +0.220 A 
ATOM     20  C   UNL     1       9.941   0.728  21.856  0.00  0.00    +0.068 A 
ATOM     21  C   UNL     1      10.083   2.019  22.363  0.00  0.00    +0.019 A 
ATOM     22  C   UNL     1       9.138   2.519  23.265  0.00  0.00    +0.073 A 
ATOM     23  C   UNL     1       8.078   1.691  23.605  0.00  0.00    +0.127 A 
ATOM     24  N   UNL     1       7.914   0.438  23.124  0.00  0.00    -0.220 NA
BRANCH  22  25
ATOM     25  C   UNL     1       9.257   3.894  23.849  0.00  0.00    +0.419 C 
ATOM     26  F   UNL     1       8.495   4.807  23.188  0.00  0.00    -0.166 F 
ATOM     27  F   UNL     1      10.533   4.367  23.803  0.00  0.00    -0.166 F 
ATOM     28  F   UNL     1       8.880   3.967  25.155  0.00  0.00    -0.166 F 
ENDBRANCH  22  25
ENDBRANCH  18  19
ENDBRANCH   5  18
TORSDOF 6
ENDMDL
MODEL 9
REMARK VINA RESULT:      -7.0      5.012      9.822
REMARK  Name = 
REMARK  6 active torsions:
REMARK  status: ('A' for Active; 'I' for Inactive)
REMARK    1  A    between atoms: O_1  and  C_2
REMARK    2  A    between atoms: C_7  and  C_8
REMARK    3  A    between atoms: C_8  and  C_9
REMARK    4  A    between atoms: C_11  and  O_12
REMARK    5  A    between atoms: O_12  and  C_13
REMARK    6  A    between atoms: C_16  and  C_19
REMARK                            x       y       z     vdW  Elec       q    Type
REMARK                         _______ _______ _______ _____ _____    ______ ____
ROOT
ATOM      1  C   UNL     1       8.497   0.007  23.755  0.00  0.00    -0.044 A 
ATOM      2  C   UNL     1       9.472  -0.615  24.543  0.00  0.00    +0.004 A 
ATOM      3  C   UNL     1       9.729  -1.980  24.400  0.00  0.00    +0.004 A 
ATOM      4  C   UNL     1       8.995  -2.739  23.486  0.00  0.00    +0.046 A 
ATOM      5  C   UNL     1       8.011  -2.136  22.702  0.00  0.00    +0.131 A 
ATOM      6  C   UNL     1       7.796  -0.759  22.811  0.00  0.00    +0.050 A 
ENDROOT
BRANCH   1   7
ATOM      7  C   UNL     1       8.153   1.466  23.940  0.00  0.00    +0.039 C 
BRANCH   7  12
ATOM      8  C   UNL     1      11.590   5.141  23.533  0.00  0.00    +0.400 C 
ATOM      9  N   UNL     1      10.619   4.177  23.707  0.00  0.00    -0.268 N 
ATOM     10  C   UNL     1      10.956   2.793  23.369  0.00  0.00    +0.111 C 
ATOM     11  C   UNL     1       9.992   2.196  22.344  0.00  0.00    +0.023 C 
ATOM     12  C   UNL     1       8.516   2.375  22.748  0.00  0.00    -0.004 C 
ATOM     13  C   UNL     1       8.266   3.866  23.025  0.00  0.00    +0.023 C 
ATOM     14  C   UNL     1       9.224   4.429  24.074  0.00  0.00    +0.111 C 
ATOM     15  O   UNL     1      12.633   4.984  22.916  0.00  0.00    -0.226 OA
BRANCH   8  16
ATOM     16  O   UNL     1      11.331   6.306  24.160  0.00  0.00    -0.466 OA
ATOM     17  H   UNL     1      11.159   6.154  25.101  0.00  0.00    +0.297 HD
ENDBRANCH   8  16
ENDBRANCH   7  12
ENDBRANCH   1   7
BRANCH   5  18
ATOM     18  O   UNL     1       7.369  -2.954  21.800  0.00  0.00    -0.438 OA
BRANCH  18  19
ATOM     19  C   UNL     1       6.324  -3.763  22.230  0.00  0.00    +0.220 A 
ATOM     20  C   UNL     1       6.373  -5.089  21.827  0.00  0.00    +0.068 A 
ATOM     21  C   UNL     1       5.352  -5.945  22.236  0.00  0.00    +0.019 A 
ATOM     22  C   UNL     1       4.319  -5.458  23.045  0.00  0.00    +0.073 A 
ATOM     23  C   UNL     1       4.373  -4.122  23.415  0.00  0.00    +0.127 A 
ATOM     24  N   UNL     1       5.354  -3.272  23.036  0.00  0.00    -0.220 NA
BRANCH  22  25
ATOM     25  C   UNL     1       3.192  -6.335  23.497  0.00  0.00    +0.419 C 
ATOM     26  F   UNL     1       2.378  -5.716  24.395  0.00  0.00    -0.166 F 
ATOM     27  F   UNL     1       3.633  -7.468  24.112  0.00  0.00    -0.166 F 
ATOM     28  F   UNL     1       2.384  -6.753  22.484  0.00  0.00    -0.166 F 
ENDBRANCH  22  25
ENDBRANCH  18  19
ENDBRANCH   5  18
TORSDOF 6
ENDMDL
