MODEL 1
REMARK VINA RESULT:      -6.9      0.000      0.000
REMARK  Name = 
REMARK  2 active torsions:
REMARK  status: ('A' for Active; 'I' for Inactive)
REMARK    1  A    between atoms: O_1  and  C_2
REMARK    2  A    between atoms: C_9  and  C_14
REMARK                            x       y       z     vdW  Elec       q    Type
REMARK                         _______ _______ _______ _____ _____    ______ ____
ROOT
ATOM      1  C   UNL     1       7.518  -5.185  26.401  0.00  0.00    +0.120 A 
ATOM      2  C   UNL     1       8.259  -4.061  26.046  0.00  0.00    +0.091 A 
ATOM      3  C   UNL     1       7.878  -3.304  24.940  0.00  0.00    +0.135 A 
ATOM      4  C   UNL     1       6.748  -3.670  24.210  0.00  0.00    +0.059 A 
ATOM      5  C   UNL     1       6.302  -2.795  23.110  0.00  0.00    +0.170 C 
ATOM      6  C   UNL     1       6.987  -1.462  23.015  0.00  0.00    +0.129 C 
ATOM      7  C   UNL     1       8.461  -1.665  23.343  0.00  0.00    +0.211 C 
ATOM      8  O   UNL     1       5.379  -3.124  22.373  0.00  0.00    -0.292 OA
ATOM      9  C   UNL     1       6.013  -4.809  24.559  0.00  0.00    +0.018 A 
ATOM     10  O   UNL     1       8.639  -2.201  24.666  0.00  0.00    -0.483 OA
ATOM     11  C   UNL     1       6.401  -5.570  25.663  0.00  0.00    +0.046 A 
ENDROOT
BRANCH   7  12
ATOM     12  C   UNL     1       9.209  -0.345  23.251  0.00  0.00    -0.007 A 
ATOM     13  C   UNL     1       9.195   0.395  22.058  0.00  0.00    +0.007 A 
ATOM     14  C   UNL     1       9.868   1.616  21.970  0.00  0.00    +0.000 A 
ATOM     15  C   UNL     1      10.559   2.116  23.073  0.00  0.00    +0.000 A 
ATOM     16  C   UNL     1      10.574   1.399  24.265  0.00  0.00    +0.000 A 
ATOM     17  C   UNL     1       9.899   0.180  24.357  0.00  0.00    +0.007 A 
ENDBRANCH   7  12
BRANCH   1  18
ATOM     18  O   UNL     1       7.920  -5.887  27.497  0.00  0.00    -0.507 OA
ATOM     19  H   UNL     1       7.723  -6.829  27.361  0.00  0.00    +0.292 HD
ENDBRANCH   1  18
TORSDOF 2
ENDMDL
MODEL 2
REMARK VINA RESULT:      -6.8      1.492      2.978
REMARK  Name = 
REMARK  2 active torsions:
REMARK  status: ('A' for Active; 'I' for Inactive)
REMARK    1  A    between atoms: O_1  and  C_2
REMARK    2  A    between atoms: C_9  and  C_14
REMARK                            x       y       z     vdW  Elec       q    Type
REMARK                         _______ _______ _______ _____ _____    ______ ____
ROOT
ATOM      1  C   UNL     1       5.175  -4.369  23.224  0.00  0.00    +0.120 A 
ATOM      2  C   UNL     1       5.756  -3.113  23.073  0.00  0.00    +0.091 A 
ATOM      3  C   UNL     1       7.073  -2.908  23.480  0.00  0.00    +0.135 A 
ATOM      4  C   UNL     1       7.802  -3.968  24.018  0.00  0.00    +0.059 A 
ATOM      5  C   UNL     1       9.225  -3.757  24.342  0.00  0.00    +0.170 C 
ATOM      6  C   UNL     1       9.823  -2.468  23.855  0.00  0.00    +0.129 C 
ATOM      7  C   UNL     1       8.781  -1.370  24.026  0.00  0.00    +0.211 C 
ATOM      8  O   UNL     1       9.881  -4.622  24.911  0.00  0.00    -0.292 OA
ATOM      9  C   UNL     1       7.212  -5.227  24.183  0.00  0.00    +0.018 A 
ATOM     10  O   UNL     1       7.584  -1.655  23.279  0.00  0.00    -0.483 OA
ATOM     11  C   UNL     1       5.890  -5.427  23.782  0.00  0.00    +0.046 A 
ENDROOT
BRANCH   7  12
ATOM     12  C   UNL     1       9.337  -0.035  23.557  0.00  0.00    -0.007 A 
ATOM     13  C   UNL     1       9.959   0.831  24.470  0.00  0.00    +0.007 A 
ATOM     14  C   UNL     1      10.486   2.054  24.045  0.00  0.00    +0.000 A 
ATOM     15  C   UNL     1      10.402   2.423  22.702  0.00  0.00    +0.000 A 
ATOM     16  C   UNL     1       9.797   1.571  21.784  0.00  0.00    +0.000 A 
ATOM     17  C   UNL     1       9.272   0.347  22.206  0.00  0.00    +0.007 A 
ENDBRANCH   7  12
BRANCH   1  18
ATOM     18  O   UNL     1       3.890  -4.527  22.801  0.00  0.00    -0.507 OA
ATOM     19  H   UNL     1       3.774  -4.059  21.957  0.00  0.00    +0.292 HD
ENDBRANCH   1  18
TORSDOF 2
ENDMDL
MODEL 3
REMARK VINA RESULT:      -6.8      2.010      6.407
REMARK  Name = 
REMARK  2 active torsions:
REMARK  status: ('A' for Active; 'I' for Inactive)
REMARK    1  A    between atoms: O_1  and  C_2
REMARK    2  A    between atoms: C_9  and  C_14
REMARK                            x       y       z     vdW  Elec       q    Type
REMARK                         _______ _______ _______ _____ _____    ______ ____
ROOT
ATOM      1  C   UNL     1       9.961   1.376  22.503  0.00  0.00    +0.120 A 
ATOM      2  C   UNL     1       9.320   0.173  22.222  0.00  0.00    +0.091 A 
ATOM      3  C   UNL     1       8.965  -0.680  23.264  0.00  0.00    +0.135 A 
ATOM      4  C   UNL     1       9.239  -0.312  24.581  0.00  0.00    +0.059 A 
ATOM      5  C   UNL     1       8.759  -1.179  25.673  0.00  0.00    +0.170 C 
ATOM      6  C   UNL     1       7.819  -2.279  25.271  0.00  0.00    +0.129 C 
ATOM      7  C   UNL     1       8.296  -2.843  23.939  0.00  0.00    +0.211 C 
ATOM      8  O   UNL     1       9.062  -0.955  26.840  0.00  0.00    -0.292 OA
ATOM      9  C   UNL     1       9.897   0.891  24.861  0.00  0.00    +0.018 A 
ATOM     10  O   UNL     1       8.317  -1.833  22.914  0.00  0.00    -0.483 OA
ATOM     11  C   UNL     1      10.259   1.740  23.814  0.00  0.00    +0.046 A 
ENDROOT
BRANCH   7  12
ATOM     12  C   UNL     1       7.385  -3.973  23.486  0.00  0.00    -0.007 A 
ATOM     13  C   UNL     1       6.561  -4.631  24.412  0.00  0.00    +0.007 A 
ATOM     14  C   UNL     1       5.710  -5.661  24.002  0.00  0.00    +0.000 A 
ATOM     15  C   UNL     1       5.668  -6.041  22.661  0.00  0.00    +0.000 A 
ATOM     16  C   UNL     1       6.471  -5.392  21.730  0.00  0.00    +0.000 A 
ATOM     17  C   UNL     1       7.320  -4.361  22.136  0.00  0.00    +0.007 A 
ENDBRANCH   7  12
BRANCH   1  18
ATOM     18  O   UNL     1      10.278   2.184  21.453  0.00  0.00    -0.507 OA
ATOM     19  H   UNL     1       9.517   2.755  21.251  0.00  0.00    +0.292 HD
ENDBRANCH   1  18
TORSDOF 2
ENDMDL
MODEL 4
REMARK VINA RESULT:      -6.6      1.506      2.201
REMARK  Name = 
REMARK  2 active torsions:
REMARK  status: ('A' for Active; 'I' for Inactive)
REMARK    1  A    between atoms: O_1  and  C_2
REMARK    2  A    between atoms: C_9  and  C_14
REMARK                            x       y       z     vdW  Elec       q    Type
REMARK                         _______ _______ _______ _____ _____    ______ ____
ROOT
ATOM      1  C   UNL     1       5.582  -6.254  25.734  0.00  0.00    +0.120 A 
ATOM      2  C   UNL     1       6.494  -5.204  25.660  0.00  0.00    +0.091 A 
ATOM      3  C   UNL     1       6.727  -4.579  24.437  0.00  0.00    +0.135 A 
ATOM      4  C   UNL     1       6.032  -4.998  23.304  0.00  0.00    +0.059 A 
ATOM      5  C   UNL     1       6.214  -4.252  22.045  0.00  0.00    +0.170 C 
ATOM      6  C   UNL     1       6.975  -2.961  22.153  0.00  0.00    +0.129 C 
ATOM      7  C   UNL     1       8.111  -3.165  23.146  0.00  0.00    +0.211 C 
ATOM      8  O   UNL     1       5.708  -4.641  20.998  0.00  0.00    -0.292 OA
ATOM      9  C   UNL     1       5.126  -6.063  23.377  0.00  0.00    +0.018 A 
ATOM     10  O   UNL     1       7.617  -3.540  24.445  0.00  0.00    -0.483 OA
ATOM     11  C   UNL     1       4.900  -6.693  24.602  0.00  0.00    +0.046 A 
ENDROOT
BRANCH   7  12
ATOM     12  C   UNL     1       8.925  -1.889  23.288  0.00  0.00    -0.007 A 
ATOM     13  C   UNL     1       9.314  -1.436  24.558  0.00  0.00    +0.007 A 
ATOM     14  C   UNL     1      10.074  -0.272  24.696  0.00  0.00    +0.000 A 
ATOM     15  C   UNL     1      10.461   0.450  23.567  0.00  0.00    +0.000 A 
ATOM     16  C   UNL     1      10.092   0.007  22.301  0.00  0.00    +0.000 A 
ATOM     17  C   UNL     1       9.335  -1.157  22.160  0.00  0.00    +0.007 A 
ENDBRANCH   7  12
BRANCH   1  18
ATOM     18  O   UNL     1       5.376  -6.827  26.953  0.00  0.00    -0.507 OA
ATOM     19  H   UNL     1       4.494  -6.578  27.276  0.00  0.00    +0.292 HD
ENDBRANCH   1  18
TORSDOF 2
ENDMDL
MODEL 5
REMARK VINA RESULT:      -6.5      1.973      2.667
REMARK  Name = 
REMARK  2 active torsions:
REMARK  status: ('A' for Active; 'I' for Inactive)
REMARK    1  A    between atoms: O_1  and  C_2
REMARK    2  A    between atoms: C_9  and  C_14
REMARK                            x       y       z     vdW  Elec       q    Type
REMARK                         _______ _______ _______ _____ _____    ______ ____
ROOT
ATOM      1  C   UNL     1       6.032  -3.672  27.331  0.00  0.00    +0.120 A 
ATOM      2  C   UNL     1       6.500  -2.557  26.640  0.00  0.00    +0.091 A 
ATOM      3  C   UNL     1       7.659  -2.658  25.874  0.00  0.00    +0.135 A 
ATOM      4  C   UNL     1       8.329  -3.878  25.792  0.00  0.00    +0.059 A 
ATOM      5  C   UNL     1       9.491  -3.989  24.891  0.00  0.00    +0.170 C 
ATOM      6  C   UNL     1       9.718  -2.826  23.969  0.00  0.00    +0.129 C 
ATOM      7  C   UNL     1       9.407  -1.548  24.736  0.00  0.00    +0.211 C 
ATOM      8  O   UNL     1      10.175  -5.006  24.861  0.00  0.00    -0.292 OA
ATOM      9  C   UNL     1       7.865  -4.994  26.499  0.00  0.00    +0.018 A 
ATOM     10  O   UNL     1       8.046  -1.530  25.204  0.00  0.00    -0.483 OA
ATOM     11  C   UNL     1       6.708  -4.888  27.273  0.00  0.00    +0.046 A 
ENDROOT
BRANCH   7  12
ATOM     12  C   UNL     1       9.631  -0.332  23.852  0.00  0.00    -0.007 A 
ATOM     13  C   UNL     1      10.153   0.852  24.396  0.00  0.00    +0.007 A 
ATOM     14  C   UNL     1      10.376   1.970  23.587  0.00  0.00    +0.000 A 
ATOM     15  C   UNL     1      10.084   1.916  22.225  0.00  0.00    +0.000 A 
ATOM     16  C   UNL     1       9.574   0.747  21.669  0.00  0.00    +0.000 A 
ATOM     17  C   UNL     1       9.354  -0.372  22.474  0.00  0.00    +0.007 A 
ENDBRANCH   7  12
BRANCH   1  18
ATOM     18  O   UNL     1       4.888  -3.531  28.058  0.00  0.00    -0.507 OA
ATOM     19  H   UNL     1       5.099  -3.094  28.900  0.00  0.00    +0.292 HD
ENDBRANCH   1  18
TORSDOF 2
ENDMDL
MODEL 6
REMARK VINA RESULT:      -6.4      2.564      6.610
REMARK  Name = 
REMARK  2 active torsions:
REMARK  status: ('A' for Active; 'I' for Inactive)
REMARK    1  A    between atoms: O_1  and  C_2
REMARK    2  A    between atoms: C_9  and  C_14
REMARK                            x       y       z     vdW  Elec       q    Type
REMARK                         _______ _______ _______ _____ _____    ______ ____
ROOT
ATOM      1  C   UNL     1       8.473   2.256  22.169  0.00  0.00    +0.120 A 
ATOM      2  C   UNL     1       7.466   1.340  22.457  0.00  0.00    +0.091 A 
ATOM      3  C   UNL     1       7.784  -0.007  22.620  0.00  0.00    +0.135 A 
ATOM      4  C   UNL     1       9.111  -0.420  22.510  0.00  0.00    +0.059 A 
ATOM      5  C   UNL     1       9.439  -1.830  22.792  0.00  0.00    +0.170 C 
ATOM      6  C   UNL     1       8.333  -2.653  23.389  0.00  0.00    +0.129 C 
ATOM      7  C   UNL     1       7.027  -2.242  22.723  0.00  0.00    +0.211 C 
ATOM      8  O   UNL     1      10.570  -2.267  22.610  0.00  0.00    -0.292 OA
ATOM      9  C   UNL     1      10.121   0.500  22.206  0.00  0.00    +0.018 A 
ATOM     10  O   UNL     1       6.747  -0.845  22.925  0.00  0.00    -0.483 OA
ATOM     11  C   UNL     1       9.798   1.847  22.036  0.00  0.00    +0.046 A 
ENDROOT
BRANCH   7  12
ATOM     12  C   UNL     1       5.870  -3.053  23.283  0.00  0.00    -0.007 A 
ATOM     13  C   UNL     1       5.243  -2.660  24.476  0.00  0.00    +0.007 A 
ATOM     14  C   UNL     1       4.169  -3.392  24.990  0.00  0.00    +0.000 A 
ATOM     15  C   UNL     1       3.705  -4.522  24.315  0.00  0.00    +0.000 A 
ATOM     16  C   UNL     1       4.310  -4.918  23.127  0.00  0.00    +0.000 A 
ATOM     17  C   UNL     1       5.381  -4.187  22.610  0.00  0.00    +0.007 A 
ENDBRANCH   7  12
BRANCH   1  18
ATOM     18  O   UNL     1       8.118   3.565  22.031  0.00  0.00    -0.507 OA
ATOM     19  H   UNL     1       7.162   3.652  22.188  0.00  0.00    +0.292 HD
ENDBRANCH   1  18
TORSDOF 2
ENDMDL
MODEL 7
REMARK VINA RESULT:      -6.3      3.968      7.782
REMARK  Name = 
REMARK  2 active torsions:
REMARK  status: ('A' for Active; 'I' for Inactive)
REMARK    1  A    between atoms: O_1  and  C_2
REMARK    2  A    between atoms: C_9  and  C_14
REMARK                            x       y       z     vdW  Elec       q    Type
REMARK                         _______ _______ _______ _____ _____    ______ ____
ROOT
ATOM      1  C   UNL     1      12.659   5.035  23.437  0.00  0.00    +0.120 A 
ATOM      2  C   UNL     1      12.176   3.747  23.222  0.00  0.00    +0.091 A 
ATOM      3  C   UNL     1      10.823   3.477  23.413  0.00  0.00    +0.135 A 
ATOM      4  C   UNL     1       9.962   4.502  23.801  0.00  0.00    +0.059 A 
ATOM      5  C   UNL     1       8.518   4.218  23.893  0.00  0.00    +0.170 C 
ATOM      6  C   UNL     1       8.075   2.892  23.344  0.00  0.00    +0.129 C 
ATOM      7  C   UNL     1       9.130   1.855  23.708  0.00  0.00    +0.211 C 
ATOM      8  O   UNL     1       7.733   5.054  24.328  0.00  0.00    -0.292 OA
ATOM      9  C   UNL     1      10.451   5.794  24.032  0.00  0.00    +0.018 A 
ATOM     10  O   UNL     1      10.417   2.195  23.159  0.00  0.00    -0.483 OA
ATOM     11  C   UNL     1      11.809   6.061  23.847  0.00  0.00    +0.046 A 
ENDROOT
BRANCH   7  12
ATOM     12  C   UNL     1       8.728   0.486  23.185  0.00  0.00    -0.007 A 
ATOM     13  C   UNL     1       9.585  -0.224  22.330  0.00  0.00    +0.007 A 
ATOM     14  C   UNL     1       9.230  -1.490  21.857  0.00  0.00    +0.000 A 
ATOM     15  C   UNL     1       8.017  -2.064  22.237  0.00  0.00    +0.000 A 
ATOM     16  C   UNL     1       7.161  -1.377  23.092  0.00  0.00    +0.000 A 
ATOM     17  C   UNL     1       7.516  -0.113  23.568  0.00  0.00    +0.007 A 
ENDBRANCH   7  12
BRANCH   1  18
ATOM     18  O   UNL     1      13.986   5.257  23.226  0.00  0.00    -0.507 OA
ATOM     19  H   UNL     1      14.263   4.785  22.422  0.00  0.00    +0.292 HD
ENDBRANCH   1  18
TORSDOF 2
ENDMDL
MODEL 8
REMARK VINA RESULT:      -6.3      2.015      6.396
REMARK  Name = 
REMARK  2 active torsions:
REMARK  status: ('A' for Active; 'I' for Inactive)
REMARK    1  A    between atoms: O_1  and  C_2
REMARK    2  A    between atoms: C_9  and  C_14
REMARK                            x       y       z     vdW  Elec       q    Type
REMARK                         _______ _______ _______ _____ _____    ______ ____
ROOT
ATOM      1  C   UNL     1       7.387   1.664  22.176  0.00  0.00    +0.120 A 
ATOM      2  C   UNL     1       6.926   0.577  22.914  0.00  0.00    +0.091 A 
ATOM      3  C   UNL     1       7.739  -0.543  23.073  0.00  0.00    +0.135 A 
ATOM      4  C   UNL     1       9.014  -0.557  22.508  0.00  0.00    +0.059 A 
ATOM      5  C   UNL     1       9.897  -1.706  22.780  0.00  0.00    +0.170 C 
ATOM      6  C   UNL     1       9.417  -2.666  23.831  0.00  0.00    +0.129 C 
ATOM      7  C   UNL     1       7.910  -2.821  23.674  0.00  0.00    +0.211 C 
ATOM      8  O   UNL     1      10.985  -1.815  22.225  0.00  0.00    -0.292 OA
ATOM      9  C   UNL     1       9.470   0.531  21.755  0.00  0.00    +0.018 A 
ATOM     10  O   UNL     1       7.230  -1.562  23.831  0.00  0.00    -0.483 OA
ATOM     11  C   UNL     1       8.650   1.649  21.589  0.00  0.00    +0.046 A 
ENDROOT
BRANCH   7  12
ATOM     12  C   UNL     1       7.368  -3.795  24.709  0.00  0.00    -0.007 A 
ATOM     13  C   UNL     1       7.854  -3.770  26.025  0.00  0.00    +0.007 A 
ATOM     14  C   UNL     1       7.351  -4.652  26.986  0.00  0.00    +0.000 A 
ATOM     15  C   UNL     1       6.353  -5.564  26.644  0.00  0.00    +0.000 A 
ATOM     16  C   UNL     1       5.855  -5.594  25.346  0.00  0.00    +0.000 A 
ATOM     17  C   UNL     1       6.354  -4.712  24.385  0.00  0.00    +0.007 A 
ENDBRANCH   7  12
BRANCH   1  18
ATOM     18  O   UNL     1       6.562   2.742  22.057  0.00  0.00    -0.507 OA
ATOM     19  H   UNL     1       6.660   3.305  22.844  0.00  0.00    +0.292 HD
ENDBRANCH   1  18
TORSDOF 2
ENDMDL
MODEL 9
REMARK VINA RESULT:      -6.3      2.564      6.595
REMARK  Name = 
REMARK  2 active torsions:
REMARK  status: ('A' for Active; 'I' for Inactive)
REMARK    1  A    between atoms: O_1  and  C_2
REMARK    2  A    between atoms: C_9  and  C_14
REMARK                            x       y       z     vdW  Elec       q    Type
REMARK                         _______ _______ _______ _____ _____    ______ ____
ROOT
ATOM      1  C   UNL     1       7.525   3.201  22.441  0.00  0.00    +0.120 A 
ATOM      2  C   UNL     1       7.257   1.839  22.337  0.00  0.00    +0.091 A 
ATOM      3  C   UNL     1       8.127   0.919  22.918  0.00  0.00    +0.135 A 
ATOM      4  C   UNL     1       9.248   1.372  23.613  0.00  0.00    +0.059 A 
ATOM      5  C   UNL     1      10.095   0.387  24.310  0.00  0.00    +0.170 C 
ATOM      6  C   UNL     1       9.545  -1.009  24.391  0.00  0.00    +0.129 C 
ATOM      7  C   UNL     1       8.859  -1.322  23.068  0.00  0.00    +0.211 C 
ATOM      8  O   UNL     1      11.146   0.720  24.847  0.00  0.00    -0.292 OA
ATOM      9  C   UNL     1       9.524   2.741  23.704  0.00  0.00    +0.018 A 
ATOM     10  O   UNL     1       7.787  -0.401  22.797  0.00  0.00    -0.483 OA
ATOM     11  C   UNL     1       8.655   3.661  23.114  0.00  0.00    +0.046 A 
ENDROOT
BRANCH   7  12
ATOM     12  C   UNL     1       8.291  -2.732  23.088  0.00  0.00    -0.007 A 
ATOM     13  C   UNL     1       7.330  -3.121  22.142  0.00  0.00    +0.007 A 
ATOM     14  C   UNL     1       6.813  -4.419  22.144  0.00  0.00    +0.000 A 
ATOM     15  C   UNL     1       7.255  -5.347  23.088  0.00  0.00    +0.000 A 
ATOM     16  C   UNL     1       8.214  -4.979  24.025  0.00  0.00    +0.000 A 
ATOM     17  C   UNL     1       8.734  -3.683  24.023  0.00  0.00    +0.007 A 
ENDBRANCH   7  12
BRANCH   1  18
ATOM     18  O   UNL     1       6.640   4.065  21.868  0.00  0.00    -0.507 OA
ATOM     19  H   UNL     1       6.802   4.959  22.212  0.00  0.00    +0.292 HD
ENDBRANCH   1  18
TORSDOF 2
ENDMDL
