MODEL 1
REMARK VINA RESULT:      -8.2      0.000      0.000
REMARK  Name = 
REMARK  11 active torsions:
REMARK  status: ('A' for Active; 'I' for Inactive)
REMARK    1  A    between atoms: C_10  and  C_12
REMARK    2  A    between atoms: C_12  and  C_13
REMARK    3  A    between atoms: C_13  and  C_14
REMARK    4  A    between atoms: C_17  and  C_20
REMARK    5  A    between atoms: N_22  and  CA_23
REMARK    6  A    between atoms: CA_23  and  CB_25
REMARK    7  A    between atoms: CA_23  and  C_30
REMARK    8  A    between atoms: CB_25  and  CG_26
REMARK    9  A    between atoms: CG_26  and  CD_27
REMARK   10  A    between atoms: CD_27  and  OE1_28
REMARK   11  A    between atoms: C_30  and  O_31
REMARK                            x       y       z     vdW  Elec       q    Type
REMARK                         _______ _______ _______ _____ _____    ______ ____
ROOT
ATOM      1  C   UNK A   0       8.628  -0.776  22.323  0.00  0.00    -0.047 A 
ATOM      2  C   UNK A   0       7.666  -0.179  23.150  0.00  0.00    +0.004 A 
ATOM      3  C   UNK A   0       7.570   1.211  23.233  0.00  0.00    +0.013 A 
ATOM      4  C   UNK A   0       8.444   2.020  22.500  0.00  0.00    +0.037 A 
ATOM      5  C   UNK A   0       9.339   1.430  21.600  0.00  0.00    +0.013 A 
ATOM      6  C   UNK A   0       9.428   0.039  21.514  0.00  0.00    +0.004 A 
ENDROOT
BRANCH   4   7
ATOM      7  C   UNK A   0       8.420   3.486  22.748  0.00  0.00    +0.245 C 
ATOM      8  N   GLU A   1       9.453   3.993  23.513  0.00  0.00    -0.298 N 
ATOM      9  H   GLU A   1      10.246   3.404  23.740  0.00  0.00    +0.150 HD
ATOM     10  O   UNK A   0       7.510   4.181  22.317  0.00  0.00    -0.270 OA
BRANCH   8  11
ATOM     11  CA  GLU A   1       9.604   5.438  23.756  0.00  0.00    +0.182 C 
BRANCH  11  12
ATOM     12  C   GLU A   1       8.961   5.792  25.108  0.00  0.00    +0.325 C 
ATOM     13  OXT GLU A   1       9.576   6.034  26.135  0.00  0.00    -0.249 OA
BRANCH  12  14
ATOM     14  O   GLU A   1       7.608   5.893  25.037  0.00  0.00    -0.479 OA
ATOM     15  H   GLU A   1       7.310   6.746  25.412  0.00  0.00    +0.295 HD
ENDBRANCH  12  14
ENDBRANCH  11  12
BRANCH  11  16
ATOM     16  CB  GLU A   1      11.076   5.860  23.728  0.00  0.00    +0.045 C 
BRANCH  16  17
ATOM     17  CG  GLU A   1      12.022   4.707  23.386  0.00  0.00    +0.123 C 
BRANCH  17  18
ATOM     18  CD  GLU A   1      13.228   5.189  22.620  0.00  0.00    +0.305 C 
ATOM     19  OE2 GLU A   1      13.186   5.718  21.520  0.00  0.00    -0.251 OA
BRANCH  18  20
ATOM     20  OE1 GLU A   1      14.382   5.038  23.308  0.00  0.00    -0.481 OA
ATOM     21  HE1 GLU A   1      14.267   5.018  24.277  0.00  0.00    +0.295 HD
ENDBRANCH  18  20
ENDBRANCH  17  18
ENDBRANCH  16  17
ENDBRANCH  11  16
ENDBRANCH   8  11
ENDBRANCH   4   7
BRANCH   1  22
ATOM     22  C   UNK A   0       8.802  -2.276  22.320  0.00  0.00    +0.035 C 
BRANCH  22  23
ATOM     23  C   UNK A   0       9.281  -2.807  23.680  0.00  0.00    +0.010 C 
BRANCH  23  34
ATOM     24  N   UNK A   0       3.617  -7.519  26.209  0.00  0.00    -0.329 N 
ATOM     25  H   UNK A   0       4.036  -8.191  26.833  0.00  0.00    +0.145 HD
ATOM     26  H   UNK A   0       2.892  -7.946  25.634  0.00  0.00    +0.145 HD
ATOM     27  C   UNK A   0       4.481  -6.806  25.445  0.00  0.00    +0.195 A 
ATOM     28  N   UNK A   0       5.609  -6.439  26.092  0.00  0.00    -0.316 N 
ATOM     29  H   UNK A   0       5.665  -6.534  27.094  0.00  0.00    +0.170 HD
ATOM     30  C   UNK A   0       6.529  -5.624  25.503  0.00  0.00    +0.107 A 
ATOM     31  N   UNK A   0       7.624  -5.151  26.190  0.00  0.00    -0.330 N 
ATOM     32  H   UNK A   0       7.775  -5.508  27.124  0.00  0.00    +0.147 HD
ATOM     33  C   UNK A   0       8.745  -4.514  25.523  0.00  0.00    +0.106 C 
ATOM     34  C   UNK A   0       8.190  -3.555  24.460  0.00  0.00    +0.011 C 
ATOM     35  C   UNK A   0       7.272  -4.341  23.491  0.00  0.00    +0.049 C 
ATOM     36  C   UNK A   0       6.335  -5.263  24.221  0.00  0.00    +0.057 A 
ATOM     37  C   UNK A   0       5.124  -5.780  23.502  0.00  0.00    +0.279 A 
ATOM     38  O   UNK A   0       4.980  -5.514  22.311  0.00  0.00    -0.265 OA
ATOM     39  N   UNK A   0       4.208  -6.522  24.215  0.00  0.00    -0.177 NA
ENDBRANCH  23  34
ENDBRANCH  22  23
ENDBRANCH   1  22
TORSDOF 11
ENDMDL
MODEL 2
REMARK VINA RESULT:      -8.1      1.476      2.070
REMARK  Name = 
REMARK  11 active torsions:
REMARK  status: ('A' for Active; 'I' for Inactive)
REMARK    1  A    between atoms: C_10  and  C_12
REMARK    2  A    between atoms: C_12  and  C_13
REMARK    3  A    between atoms: C_13  and  C_14
REMARK    4  A    between atoms: C_17  and  C_20
REMARK    5  A    between atoms: N_22  and  CA_23
REMARK    6  A    between atoms: CA_23  and  CB_25
REMARK    7  A    between atoms: CA_23  and  C_30
REMARK    8  A    between atoms: CB_25  and  CG_26
REMARK    9  A    between atoms: CG_26  and  CD_27
REMARK   10  A    between atoms: CD_27  and  OE1_28
REMARK   11  A    between atoms: C_30  and  O_31
REMARK                            x       y       z     vdW  Elec       q    Type
REMARK                         _______ _______ _______ _____ _____    ______ ____
ROOT
ATOM      1  C   UNK A   0       8.612  -1.086  22.506  0.00  0.00    -0.047 A 
ATOM      2  C   UNK A   0       7.404  -0.438  22.799  0.00  0.00    +0.004 A 
ATOM      3  C   UNK A   0       7.343   0.956  22.850  0.00  0.00    +0.013 A 
ATOM      4  C   UNK A   0       8.494   1.717  22.621  0.00  0.00    +0.037 A 
ATOM      5  C   UNK A   0       9.678   1.078  22.233  0.00  0.00    +0.013 A 
ATOM      6  C   UNK A   0       9.733  -0.316  22.176  0.00  0.00    +0.004 A 
ENDROOT
BRANCH   4   7
ATOM      7  C   UNK A   0       8.424   3.183  22.853  0.00  0.00    +0.245 C 
ATOM      8  N   GLU A   1       9.410   3.723  23.657  0.00  0.00    -0.298 N 
ATOM      9  H   GLU A   1      10.206   3.156  23.925  0.00  0.00    +0.150 HD
ATOM     10  O   UNK A   0       7.518   3.852  22.375  0.00  0.00    -0.270 OA
BRANCH   8  11
ATOM     11  CA  GLU A   1       9.516   5.173  23.892  0.00  0.00    +0.182 C 
BRANCH  11  12
ATOM     12  C   GLU A   1       8.931   5.504  25.276  0.00  0.00    +0.325 C 
ATOM     13  OXT GLU A   1       9.498   6.158  26.138  0.00  0.00    -0.249 OA
BRANCH  12  14
ATOM     14  O   GLU A   1       7.657   5.059  25.430  0.00  0.00    -0.479 OA
ATOM     15  H   GLU A   1       7.515   4.245  24.904  0.00  0.00    +0.295 HD
ENDBRANCH  12  14
ENDBRANCH  11  12
BRANCH  11  16
ATOM     16  CB  GLU A   1      10.966   5.653  23.786  0.00  0.00    +0.045 C 
BRANCH  16  17
ATOM     17  CG  GLU A   1      11.937   4.541  23.385  0.00  0.00    +0.123 C 
BRANCH  17  18
ATOM     18  CD  GLU A   1      13.136   5.089  22.654  0.00  0.00    +0.305 C 
ATOM     19  OE2 GLU A   1      13.086   5.683  21.587  0.00  0.00    -0.251 OA
BRANCH  18  20
ATOM     20  OE1 GLU A   1      14.290   4.916  23.334  0.00  0.00    -0.481 OA
ATOM     21  HE1 GLU A   1      15.094   5.037  22.793  0.00  0.00    +0.295 HD
ENDBRANCH  18  20
ENDBRANCH  17  18
ENDBRANCH  16  17
ENDBRANCH  11  16
ENDBRANCH   8  11
ENDBRANCH   4   7
BRANCH   1  22
ATOM     22  C   UNK A   0       8.699  -2.593  22.560  0.00  0.00    +0.035 C 
BRANCH  22  23
ATOM     23  C   UNK A   0       7.385  -3.265  22.131  0.00  0.00    +0.010 C 
BRANCH  23  34
ATOM     24  N   UNK A   0       5.338  -7.404  28.406  0.00  0.00    -0.329 N 
ATOM     25  H   UNK A   0       4.338  -7.323  28.509  0.00  0.00    +0.145 HD
ATOM     26  H   UNK A   0       5.809  -7.393  29.308  0.00  0.00    +0.145 HD
ATOM     27  C   UNK A   0       5.913  -6.521  27.552  0.00  0.00    +0.195 A 
ATOM     28  N   UNK A   0       5.186  -6.283  26.438  0.00  0.00    -0.316 N 
ATOM     29  H   UNK A   0       4.402  -6.876  26.215  0.00  0.00    +0.170 HD
ATOM     30  C   UNK A   0       5.672  -5.508  25.428  0.00  0.00    +0.107 A 
ATOM     31  N   UNK A   0       4.991  -5.351  24.242  0.00  0.00    -0.330 N 
ATOM     32  H   UNK A   0       4.066  -5.756  24.182  0.00  0.00    +0.147 HD
ATOM     33  C   UNK A   0       5.346  -4.333  23.270  0.00  0.00    +0.106 C 
ATOM     34  C   UNK A   0       6.875  -4.304  23.141  0.00  0.00    +0.011 C 
ATOM     35  C   UNK A   0       7.502  -4.058  24.536  0.00  0.00    +0.049 C 
ATOM     36  C   UNK A   0       6.863  -4.905  25.601  0.00  0.00    +0.057 A 
ATOM     37  C   UNK A   0       7.591  -5.108  26.897  0.00  0.00    +0.279 A 
ATOM     38  O   UNK A   0       8.643  -4.502  27.089  0.00  0.00    -0.265 OA
ATOM     39  N   UNK A   0       7.058  -5.983  27.816  0.00  0.00    -0.177 NA
ENDBRANCH  23  34
ENDBRANCH  22  23
ENDBRANCH   1  22
TORSDOF 11
ENDMDL
MODEL 3
REMARK VINA RESULT:      -7.9      3.882      9.220
REMARK  Name = 
REMARK  11 active torsions:
REMARK  status: ('A' for Active; 'I' for Inactive)
REMARK    1  A    between atoms: C_10  and  C_12
REMARK    2  A    between atoms: C_12  and  C_13
REMARK    3  A    between atoms: C_13  and  C_14
REMARK    4  A    between atoms: C_17  and  C_20
REMARK    5  A    between atoms: N_22  and  CA_23
REMARK    6  A    between atoms: CA_23  and  CB_25
REMARK    7  A    between atoms: CA_23  and  C_30
REMARK    8  A    between atoms: CB_25  and  CG_26
REMARK    9  A    between atoms: CG_26  and  CD_27
REMARK   10  A    between atoms: CD_27  and  OE1_28
REMARK   11  A    between atoms: C_30  and  O_31
REMARK                            x       y       z     vdW  Elec       q    Type
REMARK                         _______ _______ _______ _____ _____    ______ ____
ROOT
ATOM      1  C   UNK A   0      10.187   1.658  23.262  0.00  0.00    -0.047 A 
ATOM      2  C   UNK A   0      10.088   0.830  24.389  0.00  0.00    +0.004 A 
ATOM      3  C   UNK A   0       9.654  -0.491  24.261  0.00  0.00    +0.013 A 
ATOM      4  C   UNK A   0       9.301  -0.994  23.005  0.00  0.00    +0.037 A 
ATOM      5  C   UNK A   0       9.491  -0.203  21.867  0.00  0.00    +0.013 A 
ATOM      6  C   UNK A   0       9.932   1.115  21.997  0.00  0.00    +0.004 A 
ENDROOT
BRANCH   4   7
ATOM      7  C   UNK A   0       8.685  -2.346  22.938  0.00  0.00    +0.245 C 
ATOM      8  N   GLU A   1       8.864  -3.155  24.044  0.00  0.00    -0.298 N 
ATOM      9  H   GLU A   1       9.257  -2.765  24.894  0.00  0.00    +0.150 HD
ATOM     10  O   UNK A   0       8.084  -2.713  21.938  0.00  0.00    -0.270 OA
BRANCH   8  11
ATOM     11  CA  GLU A   1       8.228  -4.479  24.151  0.00  0.00    +0.182 C 
BRANCH  11  12
ATOM     12  C   GLU A   1       8.903  -5.273  25.283  0.00  0.00    +0.325 C 
ATOM     13  OXT GLU A   1       8.324  -5.748  26.248  0.00  0.00    -0.249 OA
BRANCH  12  14
ATOM     14  O   GLU A   1      10.230  -5.473  25.068  0.00  0.00    -0.479 OA
ATOM     15  H   GLU A   1      10.402  -5.616  24.115  0.00  0.00    +0.295 HD
ENDBRANCH  12  14
ENDBRANCH  11  12
BRANCH  11  16
ATOM     16  CB  GLU A   1       6.721  -4.359  24.395  0.00  0.00    +0.045 C 
BRANCH  16  17
ATOM     17  CG  GLU A   1       5.910  -5.430  23.663  0.00  0.00    +0.123 C 
BRANCH  17  18
ATOM     18  CD  GLU A   1       6.052  -5.307  22.167  0.00  0.00    +0.305 C 
ATOM     19  OE2 GLU A   1       6.602  -6.130  21.452  0.00  0.00    -0.251 OA
BRANCH  18  20
ATOM     20  OE1 GLU A   1       5.444  -4.206  21.671  0.00  0.00    -0.481 OA
ATOM     21  HE1 GLU A   1       4.486  -4.164  21.855  0.00  0.00    +0.295 HD
ENDBRANCH  18  20
ENDBRANCH  17  18
ENDBRANCH  16  17
ENDBRANCH  11  16
ENDBRANCH   8  11
ENDBRANCH   4   7
BRANCH   1  22
ATOM     22  C   UNK A   0      10.550   3.115  23.418  0.00  0.00    +0.035 C 
BRANCH  22  23
ATOM     23  C   UNK A   0       9.453   3.911  24.142  0.00  0.00    +0.010 C 
BRANCH  23  34
ATOM     24  N   UNK A   0       2.060   4.021  21.689  0.00  0.00    -0.329 N 
ATOM     25  H   UNK A   0       1.810   4.983  21.520  0.00  0.00    +0.145 HD
ATOM     26  H   UNK A   0       1.286   3.501  22.099  0.00  0.00    +0.145 HD
ATOM     27  C   UNK A   0       3.201   3.825  22.396  0.00  0.00    +0.195 A 
ATOM     28  N   UNK A   0       4.195   4.682  22.080  0.00  0.00    -0.316 N 
ATOM     29  H   UNK A   0       4.117   5.258  21.255  0.00  0.00    +0.170 HD
ATOM     30  C   UNK A   0       5.441   4.550  22.616  0.00  0.00    +0.107 A 
ATOM     31  N   UNK A   0       6.492   5.346  22.216  0.00  0.00    -0.330 N 
ATOM     32  H   UNK A   0       6.284   6.100  21.575  0.00  0.00    +0.147 HD
ATOM     33  C   UNK A   0       7.741   5.411  22.951  0.00  0.00    +0.106 C 
ATOM     34  C   UNK A   0       8.135   3.984  23.358  0.00  0.00    +0.011 C 
ATOM     35  C   UNK A   0       6.982   3.347  24.173  0.00  0.00    +0.049 C 
ATOM     36  C   UNK A   0       5.639   3.597  23.545  0.00  0.00    +0.057 A 
ATOM     37  C   UNK A   0       4.481   2.733  23.949  0.00  0.00    +0.279 A 
ATOM     38  O   UNK A   0       4.637   1.911  24.849  0.00  0.00    -0.265 OA
ATOM     39  N   UNK A   0       3.287   2.887  23.280  0.00  0.00    -0.177 NA
ENDBRANCH  23  34
ENDBRANCH  22  23
ENDBRANCH   1  22
TORSDOF 11
ENDMDL
MODEL 4
REMARK VINA RESULT:      -7.9      2.040      2.746
REMARK  Name = 
REMARK  11 active torsions:
REMARK  status: ('A' for Active; 'I' for Inactive)
REMARK    1  A    between atoms: C_10  and  C_12
REMARK    2  A    between atoms: C_12  and  C_13
REMARK    3  A    between atoms: C_13  and  C_14
REMARK    4  A    between atoms: C_17  and  C_20
REMARK    5  A    between atoms: N_22  and  CA_23
REMARK    6  A    between atoms: CA_23  and  CB_25
REMARK    7  A    between atoms: CA_23  and  C_30
REMARK    8  A    between atoms: CB_25  and  CG_26
REMARK    9  A    between atoms: CG_26  and  CD_27
REMARK   10  A    between atoms: CD_27  and  OE1_28
REMARK   11  A    between atoms: C_30  and  O_31
REMARK                            x       y       z     vdW  Elec       q    Type
REMARK                         _______ _______ _______ _____ _____    ______ ____
ROOT
ATOM      1  C   UNK A   0       9.829  -0.868  22.968  0.00  0.00    -0.047 A 
ATOM      2  C   UNK A   0       9.770  -0.034  21.843  0.00  0.00    +0.004 A 
ATOM      3  C   UNK A   0      10.075   1.324  21.952  0.00  0.00    +0.013 A 
ATOM      4  C   UNK A   0      10.433   1.865  23.191  0.00  0.00    +0.037 A 
ATOM      5  C   UNK A   0      10.588   1.018  24.295  0.00  0.00    +0.013 A 
ATOM      6  C   UNK A   0      10.289  -0.341  24.181  0.00  0.00    +0.004 A 
ENDROOT
BRANCH   4   7
ATOM      7  C   UNK A   0      10.584   3.340  23.297  0.00  0.00    +0.245 C 
ATOM      8  N   GLU A   1       9.419   4.062  23.478  0.00  0.00    -0.298 N 
ATOM      9  H   GLU A   1       8.553   3.576  23.683  0.00  0.00    +0.150 HD
ATOM     10  O   UNK A   0      11.682   3.868  23.194  0.00  0.00    -0.270 OA
BRANCH   8  11
ATOM     11  CA  GLU A   1       9.432   5.518  23.693  0.00  0.00    +0.182 C 
BRANCH  11  12
ATOM     12  C   GLU A   1       8.081   6.106  23.249  0.00  0.00    +0.325 C 
ATOM     13  OXT GLU A   1       7.188   6.458  24.003  0.00  0.00    -0.249 OA
BRANCH  12  14
ATOM     14  O   GLU A   1       8.000   6.279  21.904  0.00  0.00    -0.479 OA
ATOM     15  H   GLU A   1       7.368   5.640  21.516  0.00  0.00    +0.295 HD
ENDBRANCH  12  14
ENDBRANCH  11  12
BRANCH  11  16
ATOM     16  CB  GLU A   1       9.720   5.867  25.156  0.00  0.00    +0.045 C 
BRANCH  16  17
ATOM     17  CG  GLU A   1      10.601   7.107  25.314  0.00  0.00    +0.123 C 
BRANCH  17  18
ATOM     18  CD  GLU A   1      12.058   6.741  25.438  0.00  0.00    +0.305 C 
ATOM     19  OE2 GLU A   1      12.697   6.780  26.478  0.00  0.00    -0.251 OA
BRANCH  18  20
ATOM     20  OE1 GLU A   1      12.587   6.293  24.278  0.00  0.00    -0.481 OA
ATOM     21  HE1 GLU A   1      11.941   6.216  23.550  0.00  0.00    +0.295 HD
ENDBRANCH  18  20
ENDBRANCH  17  18
ENDBRANCH  16  17
ENDBRANCH  11  16
ENDBRANCH   8  11
ENDBRANCH   4   7
BRANCH   1  22
ATOM     22  C   UNK A   0       9.392  -2.310  22.869  0.00  0.00    +0.035 C 
BRANCH  22  23
ATOM     23  C   UNK A   0       9.276  -2.976  24.249  0.00  0.00    +0.010 C 
BRANCH  23  34
ATOM     24  N   UNK A   0       3.383  -7.621  26.346  0.00  0.00    -0.329 N 
ATOM     25  H   UNK A   0       2.532  -7.210  25.994  0.00  0.00    +0.145 HD
ATOM     26  H   UNK A   0       3.245  -8.033  27.267  0.00  0.00    +0.145 HD
ATOM     27  C   UNK A   0       4.473  -6.815  26.337  0.00  0.00    +0.195 A 
ATOM     28  N   UNK A   0       4.565  -6.029  25.241  0.00  0.00    -0.316 N 
ATOM     29  H   UNK A   0       3.970  -6.207  24.446  0.00  0.00    +0.170 HD
ATOM     30  C   UNK A   0       5.657  -5.243  25.023  0.00  0.00    +0.107 A 
ATOM     31  N   UNK A   0       5.814  -4.527  23.858  0.00  0.00    -0.330 N 
ATOM     32  H   UNK A   0       5.042  -4.529  23.205  0.00  0.00    +0.147 HD
ATOM     33  C   UNK A   0       6.816  -3.486  23.714  0.00  0.00    +0.106 C 
ATOM     34  C   UNK A   0       8.124  -3.988  24.341  0.00  0.00    +0.011 C 
ATOM     35  C   UNK A   0       7.866  -4.384  25.816  0.00  0.00    +0.049 C 
ATOM     36  C   UNK A   0       6.608  -5.193  25.974  0.00  0.00    +0.057 A 
ATOM     37  C   UNK A   0       6.419  -5.997  27.226  0.00  0.00    +0.279 A 
ATOM     38  O   UNK A   0       7.248  -5.899  28.128  0.00  0.00    -0.265 OA
ATOM     39  N   UNK A   0       5.325  -6.831  27.308  0.00  0.00    -0.177 NA
ENDBRANCH  23  34
ENDBRANCH  22  23
ENDBRANCH   1  22
TORSDOF 11
ENDMDL
MODEL 5
REMARK VINA RESULT:      -7.9      1.519      2.144
REMARK  Name = 
REMARK  11 active torsions:
REMARK  status: ('A' for Active; 'I' for Inactive)
REMARK    1  A    between atoms: C_10  and  C_12
REMARK    2  A    between atoms: C_12  and  C_13
REMARK    3  A    between atoms: C_13  and  C_14
REMARK    4  A    between atoms: C_17  and  C_20
REMARK    5  A    between atoms: N_22  and  CA_23
REMARK    6  A    between atoms: CA_23  and  CB_25
REMARK    7  A    between atoms: CA_23  and  C_30
REMARK    8  A    between atoms: CB_25  and  CG_26
REMARK    9  A    between atoms: CG_26  and  CD_27
REMARK   10  A    between atoms: CD_27  and  OE1_28
REMARK   11  A    between atoms: C_30  and  O_31
REMARK                            x       y       z     vdW  Elec       q    Type
REMARK                         _______ _______ _______ _____ _____    ______ ____
ROOT
ATOM      1  C   UNK A   0       9.671  -0.899  23.030  0.00  0.00    -0.047 A 
ATOM      2  C   UNK A   0       9.520  -0.060  21.918  0.00  0.00    +0.004 A 
ATOM      3  C   UNK A   0       9.863   1.291  21.997  0.00  0.00    +0.013 A 
ATOM      4  C   UNK A   0      10.350   1.821  23.196  0.00  0.00    +0.037 A 
ATOM      5  C   UNK A   0      10.595   0.968  24.278  0.00  0.00    +0.013 A 
ATOM      6  C   UNK A   0      10.257  -0.384  24.193  0.00  0.00    +0.004 A 
ENDROOT
BRANCH   4   7
ATOM      7  C   UNK A   0      10.542   3.292  23.287  0.00  0.00    +0.245 C 
ATOM      8  N   GLU A   1       9.393   4.052  23.408  0.00  0.00    -0.298 N 
ATOM      9  H   GLU A   1       8.505   3.595  23.583  0.00  0.00    +0.150 HD
ATOM     10  O   UNK A   0      11.659   3.785  23.224  0.00  0.00    -0.270 OA
BRANCH   8  11
ATOM     11  CA  GLU A   1       9.442   5.510  23.603  0.00  0.00    +0.182 C 
BRANCH  11  12
ATOM     12  C   GLU A   1       8.106   6.125  23.148  0.00  0.00    +0.325 C 
ATOM     13  OXT GLU A   1       7.637   6.026  22.025  0.00  0.00    -0.249 OA
BRANCH  12  14
ATOM     14  O   GLU A   1       7.437   6.737  24.159  0.00  0.00    -0.479 OA
ATOM     15  H   GLU A   1       6.471   6.671  24.017  0.00  0.00    +0.295 HD
ENDBRANCH  12  14
ENDBRANCH  11  12
BRANCH  11  16
ATOM     16  CB  GLU A   1       9.735   5.871  25.062  0.00  0.00    +0.045 C 
BRANCH  16  17
ATOM     17  CG  GLU A   1      10.625   7.107  25.205  0.00  0.00    +0.123 C 
BRANCH  17  18
ATOM     18  CD  GLU A   1      12.079   6.731  25.338  0.00  0.00    +0.305 C 
ATOM     19  OE2 GLU A   1      12.719   6.791  26.377  0.00  0.00    -0.251 OA
BRANCH  18  20
ATOM     20  OE1 GLU A   1      12.604   6.249  24.190  0.00  0.00    -0.481 OA
ATOM     21  HE1 GLU A   1      13.215   5.498  24.317  0.00  0.00    +0.295 HD
ENDBRANCH  18  20
ENDBRANCH  17  18
ENDBRANCH  16  17
ENDBRANCH  11  16
ENDBRANCH   8  11
ENDBRANCH   4   7
BRANCH   1  22
ATOM     22  C   UNK A   0       9.196  -2.331  22.974  0.00  0.00    +0.035 C 
BRANCH  22  23
ATOM     23  C   UNK A   0       9.726  -3.164  24.152  0.00  0.00    +0.010 C 
BRANCH  23  34
ATOM     24  N   UNK A   0       3.757  -7.364  26.877  0.00  0.00    -0.329 N 
ATOM     25  H   UNK A   0       4.141  -8.107  27.441  0.00  0.00    +0.145 HD
ATOM     26  H   UNK A   0       2.954  -7.681  26.338  0.00  0.00    +0.145 HD
ATOM     27  C   UNK A   0       4.642  -6.710  26.085  0.00  0.00    +0.195 A 
ATOM     28  N   UNK A   0       5.844  -6.498  26.664  0.00  0.00    -0.316 N 
ATOM     29  H   UNK A   0       5.957  -6.649  27.655  0.00  0.00    +0.170 HD
ATOM     30  C   UNK A   0       6.807  -5.758  26.046  0.00  0.00    +0.107 A 
ATOM     31  N   UNK A   0       7.991  -5.439  26.672  0.00  0.00    -0.330 N 
ATOM     32  H   UNK A   0       8.163  -5.857  27.577  0.00  0.00    +0.147 HD
ATOM     33  C   UNK A   0       9.128  -4.893  25.954  0.00  0.00    +0.106 C 
ATOM     34  C   UNK A   0       8.613  -3.829  24.975  0.00  0.00    +0.011 C 
ATOM     35  C   UNK A   0       7.552  -4.463  24.042  0.00  0.00    +0.049 C 
ATOM     36  C   UNK A   0       6.570  -5.315  24.797  0.00  0.00    +0.057 A 
ATOM     37  C   UNK A   0       5.264  -5.663  24.146  0.00  0.00    +0.279 A 
ATOM     38  O   UNK A   0       5.071  -5.323  22.980  0.00  0.00    -0.265 OA
ATOM     39  N   UNK A   0       4.322  -6.337  24.890  0.00  0.00    -0.177 NA
ENDBRANCH  23  34
ENDBRANCH  22  23
ENDBRANCH   1  22
TORSDOF 11
ENDMDL
MODEL 6
REMARK VINA RESULT:      -7.6      2.217      3.656
REMARK  Name = 
REMARK  11 active torsions:
REMARK  status: ('A' for Active; 'I' for Inactive)
REMARK    1  A    between atoms: C_10  and  C_12
REMARK    2  A    between atoms: C_12  and  C_13
REMARK    3  A    between atoms: C_13  and  C_14
REMARK    4  A    between atoms: C_17  and  C_20
REMARK    5  A    between atoms: N_22  and  CA_23
REMARK    6  A    between atoms: CA_23  and  CB_25
REMARK    7  A    between atoms: CA_23  and  C_30
REMARK    8  A    between atoms: CB_25  and  CG_26
REMARK    9  A    between atoms: CG_26  and  CD_27
REMARK   10  A    between atoms: CD_27  and  OE1_28
REMARK   11  A    between atoms: C_30  and  O_31
REMARK                            x       y       z     vdW  Elec       q    Type
REMARK                         _______ _______ _______ _____ _____    ______ ____
ROOT
ATOM      1  C   UNK A   0      10.118  -0.511  22.920  0.00  0.00    -0.047 A 
ATOM      2  C   UNK A   0       9.721   0.308  21.855  0.00  0.00    +0.004 A 
ATOM      3  C   UNK A   0       9.648   1.692  22.015  0.00  0.00    +0.013 A 
ATOM      4  C   UNK A   0       9.960   2.273  23.249  0.00  0.00    +0.037 A 
ATOM      5  C   UNK A   0      10.450   1.469  24.285  0.00  0.00    +0.013 A 
ATOM      6  C   UNK A   0      10.528   0.085  24.118  0.00  0.00    +0.004 A 
ENDROOT
BRANCH   4   7
ATOM      7  C   UNK A   0       9.706   3.727  23.426  0.00  0.00    +0.245 C 
ATOM      8  N   GLU A   1       8.413   4.154  23.192  0.00  0.00    -0.298 N 
ATOM      9  H   GLU A   1       7.673   3.472  23.067  0.00  0.00    +0.150 HD
ATOM     10  O   UNK A   0      10.612   4.490  23.729  0.00  0.00    -0.270 OA
BRANCH   8  11
ATOM     11  CA  GLU A   1       8.001   5.549  23.422  0.00  0.00    +0.182 C 
BRANCH  11  12
ATOM     12  C   GLU A   1       6.966   5.951  22.356  0.00  0.00    +0.325 C 
ATOM     13  OXT GLU A   1       5.762   6.030  22.544  0.00  0.00    -0.249 OA
BRANCH  12  14
ATOM     14  O   GLU A   1       7.536   6.300  21.174  0.00  0.00    -0.479 OA
ATOM     15  H   GLU A   1       6.872   6.712  20.584  0.00  0.00    +0.295 HD
ENDBRANCH  12  14
ENDBRANCH  11  12
BRANCH  11  16
ATOM     16  CB  GLU A   1       7.432   5.741  24.831  0.00  0.00    +0.045 C 
BRANCH  16  17
ATOM     17  CG  GLU A   1       6.712   4.499  25.360  0.00  0.00    +0.123 C 
BRANCH  17  18
ATOM     18  CD  GLU A   1       7.350   3.986  26.626  0.00  0.00    +0.305 C 
ATOM     19  OE2 GLU A   1       7.482   4.639  27.650  0.00  0.00    -0.251 OA
BRANCH  18  20
ATOM     20  OE1 GLU A   1       7.711   2.687  26.542  0.00  0.00    -0.481 OA
ATOM     21  HE1 GLU A   1       7.695   2.214  27.396  0.00  0.00    +0.295 HD
ENDBRANCH  18  20
ENDBRANCH  17  18
ENDBRANCH  16  17
ENDBRANCH  11  16
ENDBRANCH   8  11
ENDBRANCH   4   7
BRANCH   1  22
ATOM     22  C   UNK A   0      10.089  -2.014  22.776  0.00  0.00    +0.035 C 
BRANCH  22  23
ATOM     23  C   UNK A   0       9.861  -2.721  24.122  0.00  0.00    +0.010 C 
BRANCH  23  34
ATOM     24  N   UNK A   0       3.808  -7.403  25.576  0.00  0.00    -0.329 N 
ATOM     25  H   UNK A   0       2.994  -6.989  25.148  0.00  0.00    +0.145 HD
ATOM     26  H   UNK A   0       3.582  -7.827  26.474  0.00  0.00    +0.145 HD
ATOM     27  C   UNK A   0       4.891  -6.595  25.684  0.00  0.00    +0.195 A 
ATOM     28  N   UNK A   0       5.086  -5.795  24.612  0.00  0.00    -0.316 N 
ATOM     29  H   UNK A   0       4.572  -5.964  23.761  0.00  0.00    +0.170 HD
ATOM     30  C   UNK A   0       6.192  -5.004  24.512  0.00  0.00    +0.107 A 
ATOM     31  N   UNK A   0       6.460  -4.273  23.376  0.00  0.00    -0.330 N 
ATOM     32  H   UNK A   0       5.755  -4.269  22.651  0.00  0.00    +0.147 HD
ATOM     33  C   UNK A   0       7.467  -3.229  23.343  0.00  0.00    +0.106 C 
ATOM     34  C   UNK A   0       8.710  -3.736  24.089  0.00  0.00    +0.011 C 
ATOM     35  C   UNK A   0       8.310  -4.151  25.527  0.00  0.00    +0.049 C 
ATOM     36  C   UNK A   0       7.046  -4.965  25.551  0.00  0.00    +0.057 A 
ATOM     37  C   UNK A   0       6.738  -5.785  26.768  0.00  0.00    +0.279 A 
ATOM     38  O   UNK A   0       7.475  -5.697  27.748  0.00  0.00    -0.265 OA
ATOM     39  N   UNK A   0       5.644  -6.621  26.733  0.00  0.00    -0.177 NA
ENDBRANCH  23  34
ENDBRANCH  22  23
ENDBRANCH   1  22
TORSDOF 11
ENDMDL
MODEL 7
REMARK VINA RESULT:      -7.6      1.618      2.470
REMARK  Name = 
REMARK  11 active torsions:
REMARK  status: ('A' for Active; 'I' for Inactive)
REMARK    1  A    between atoms: C_10  and  C_12
REMARK    2  A    between atoms: C_12  and  C_13
REMARK    3  A    between atoms: C_13  and  C_14
REMARK    4  A    between atoms: C_17  and  C_20
REMARK    5  A    between atoms: N_22  and  CA_23
REMARK    6  A    between atoms: CA_23  and  CB_25
REMARK    7  A    between atoms: CA_23  and  C_30
REMARK    8  A    between atoms: CB_25  and  CG_26
REMARK    9  A    between atoms: CG_26  and  CD_27
REMARK   10  A    between atoms: CD_27  and  OE1_28
REMARK   11  A    between atoms: C_30  and  O_31
REMARK                            x       y       z     vdW  Elec       q    Type
REMARK                         _______ _______ _______ _____ _____    ______ ____
ROOT
ATOM      1  C   UNK A   0       9.364  -2.025  24.629  0.00  0.00    -0.047 A 
ATOM      2  C   UNK A   0       9.881  -1.789  23.348  0.00  0.00    +0.004 A 
ATOM      3  C   UNK A   0      10.048  -0.484  22.882  0.00  0.00    +0.013 A 
ATOM      4  C   UNK A   0       9.690   0.600  23.689  0.00  0.00    +0.037 A 
ATOM      5  C   UNK A   0       9.266   0.372  25.003  0.00  0.00    +0.013 A 
ATOM      6  C   UNK A   0       9.106  -0.935  25.469  0.00  0.00    +0.004 A 
ENDROOT
BRANCH   4   7
ATOM      7  C   UNK A   0       9.724   1.962  23.093  0.00  0.00    +0.245 C 
ATOM      8  N   GLU A   1       8.965   2.927  23.728  0.00  0.00    -0.298 N 
ATOM      9  H   GLU A   1       8.552   2.726  24.632  0.00  0.00    +0.150 HD
ATOM     10  O   UNK A   0      10.369   2.187  22.078  0.00  0.00    -0.270 OA
BRANCH   8  11
ATOM     11  CA  GLU A   1       8.983   4.336  23.301  0.00  0.00    +0.182 C 
BRANCH  11  12
ATOM     12  C   GLU A   1       7.542   4.791  23.008  0.00  0.00    +0.325 C 
ATOM     13  OXT GLU A   1       6.732   5.140  23.852  0.00  0.00    -0.249 OA
BRANCH  12  14
ATOM     14  O   GLU A   1       7.270   4.851  21.678  0.00  0.00    -0.479 OA
ATOM     15  H   GLU A   1       7.729   4.127  21.204  0.00  0.00    +0.295 HD
ENDBRANCH  12  14
ENDBRANCH  11  12
BRANCH  11  16
ATOM     16  CB  GLU A   1       9.631   5.234  24.359  0.00  0.00    +0.045 C 
BRANCH  16  17
ATOM     17  CG  GLU A   1      10.684   6.179  23.777  0.00  0.00    +0.123 C 
BRANCH  17  18
ATOM     18  CD  GLU A   1      12.070   5.593  23.878  0.00  0.00    +0.305 C 
ATOM     19  OE2 GLU A   1      12.446   4.594  23.285  0.00  0.00    -0.251 OA
BRANCH  18  20
ATOM     20  OE1 GLU A   1      12.896   6.331  24.653  0.00  0.00    -0.481 OA
ATOM     21  HE1 GLU A   1      13.343   7.058  24.178  0.00  0.00    +0.295 HD
ENDBRANCH  18  20
ENDBRANCH  17  18
ENDBRANCH  16  17
ENDBRANCH  11  16
ENDBRANCH   8  11
ENDBRANCH   4   7
BRANCH   1  22
ATOM     22  C   UNK A   0       9.081  -3.436  25.087  0.00  0.00    +0.035 C 
BRANCH  22  23
ATOM     23  C   UNK A   0       8.157  -3.472  26.315  0.00  0.00    +0.010 C 
BRANCH  23  34
ATOM     24  N   UNK A   0       2.209  -7.685  23.565  0.00  0.00    -0.329 N 
ATOM     25  H   UNK A   0       2.366  -8.644  23.835  0.00  0.00    +0.145 HD
ATOM     26  H   UNK A   0       1.813  -7.620  22.629  0.00  0.00    +0.145 HD
ATOM     27  C   UNK A   0       3.274  -6.856  23.696  0.00  0.00    +0.195 A 
ATOM     28  N   UNK A   0       4.010  -7.081  24.806  0.00  0.00    -0.316 N 
ATOM     29  H   UNK A   0       3.650  -7.679  25.534  0.00  0.00    +0.170 HD
ATOM     30  C   UNK A   0       5.048  -6.264  25.145  0.00  0.00    +0.107 A 
ATOM     31  N   UNK A   0       5.732  -6.414  26.330  0.00  0.00    -0.330 N 
ATOM     32  H   UNK A   0       5.499  -7.216  26.902  0.00  0.00    +0.147 HD
ATOM     33  C   UNK A   0       6.993  -5.745  26.590  0.00  0.00    +0.106 C 
ATOM     34  C   UNK A   0       6.882  -4.297  26.092  0.00  0.00    +0.011 C 
ATOM     35  C   UNK A   0       6.492  -4.301  24.593  0.00  0.00    +0.049 C 
ATOM     36  C   UNK A   0       5.386  -5.275  24.297  0.00  0.00    +0.057 A 
ATOM     37  C   UNK A   0       4.612  -5.125  23.021  0.00  0.00    +0.279 A 
ATOM     38  O   UNK A   0       4.963  -4.271  22.209  0.00  0.00    -0.265 OA
ATOM     39  N   UNK A   0       3.523  -5.943  22.816  0.00  0.00    -0.177 NA
ENDBRANCH  23  34
ENDBRANCH  22  23
ENDBRANCH   1  22
TORSDOF 11
ENDMDL
MODEL 8
REMARK VINA RESULT:      -7.3      1.958      3.322
REMARK  Name = 
REMARK  11 active torsions:
REMARK  status: ('A' for Active; 'I' for Inactive)
REMARK    1  A    between atoms: C_10  and  C_12
REMARK    2  A    between atoms: C_12  and  C_13
REMARK    3  A    between atoms: C_13  and  C_14
REMARK    4  A    between atoms: C_17  and  C_20
REMARK    5  A    between atoms: N_22  and  CA_23
REMARK    6  A    between atoms: CA_23  and  CB_25
REMARK    7  A    between atoms: CA_23  and  C_30
REMARK    8  A    between atoms: CB_25  and  CG_26
REMARK    9  A    between atoms: CG_26  and  CD_27
REMARK   10  A    between atoms: CD_27  and  OE1_28
REMARK   11  A    between atoms: C_30  and  O_31
REMARK                            x       y       z     vdW  Elec       q    Type
REMARK                         _______ _______ _______ _____ _____    ______ ____
ROOT
ATOM      1  C   UNK A   0       8.435  -0.827  22.512  0.00  0.00    -0.047 A 
ATOM      2  C   UNK A   0       7.417  -0.064  23.099  0.00  0.00    +0.004 A 
ATOM      3  C   UNK A   0       7.675   1.230  23.554  0.00  0.00    +0.013 A 
ATOM      4  C   UNK A   0       8.959   1.771  23.438  0.00  0.00    +0.037 A 
ATOM      5  C   UNK A   0       9.953   1.051  22.765  0.00  0.00    +0.013 A 
ATOM      6  C   UNK A   0       9.689  -0.241  22.304  0.00  0.00    +0.004 A 
ENDROOT
BRANCH   4   7
ATOM      7  C   UNK A   0       9.232   3.081  24.086  0.00  0.00    +0.245 C 
ATOM      8  N   GLU A   1      10.072   3.939  23.402  0.00  0.00    -0.298 N 
ATOM      9  H   GLU A   1      10.340   3.725  22.448  0.00  0.00    +0.150 HD
ATOM     10  O   UNK A   0       8.755   3.352  25.179  0.00  0.00    -0.270 OA
BRANCH   8  11
ATOM     11  CA  GLU A   1      10.351   5.302  23.882  0.00  0.00    +0.182 C 
BRANCH  11  12
ATOM     12  C   GLU A   1      11.862   5.575  23.777  0.00  0.00    +0.325 C 
ATOM     13  OXT GLU A   1      12.540   6.106  24.643  0.00  0.00    -0.249 OA
BRANCH  12  14
ATOM     14  O   GLU A   1      12.407   5.085  22.633  0.00  0.00    -0.479 OA
ATOM     15  H   GLU A   1      12.788   4.197  22.790  0.00  0.00    +0.295 HD
ENDBRANCH  12  14
ENDBRANCH  11  12
BRANCH  11  16
ATOM     16  CB  GLU A   1       9.555   6.347  23.095  0.00  0.00    +0.045 C 
BRANCH  16  17
ATOM     17  CG  GLU A   1       8.054   6.302  23.388  0.00  0.00    +0.123 C 
BRANCH  17  18
ATOM     18  CD  GLU A   1       7.252   6.063  22.135  0.00  0.00    +0.305 C 
ATOM     19  OE2 GLU A   1       6.615   6.922  21.544  0.00  0.00    -0.251 OA
BRANCH  18  20
ATOM     20  OE1 GLU A   1       7.357   4.795  21.678  0.00  0.00    -0.481 OA
ATOM     21  HE1 GLU A   1       7.205   4.113  22.360  0.00  0.00    +0.295 HD
ENDBRANCH  18  20
ENDBRANCH  17  18
ENDBRANCH  16  17
ENDBRANCH  11  16
ENDBRANCH   8  11
ENDBRANCH   4   7
BRANCH   1  22
ATOM     22  C   UNK A   0       8.181  -2.263  22.122  0.00  0.00    +0.035 C 
BRANCH  22  23
ATOM     23  C   UNK A   0       6.736  -2.697  22.416  0.00  0.00    +0.010 C 
BRANCH  23  34
ATOM     24  N   UNK A   0       5.241  -7.424  28.424  0.00  0.00    -0.329 N 
ATOM     25  H   UNK A   0       4.569  -8.108  28.113  0.00  0.00    +0.145 HD
ATOM     26  H   UNK A   0       5.060  -7.133  29.384  0.00  0.00    +0.145 HD
ATOM     27  C   UNK A   0       5.402  -6.347  27.616  0.00  0.00    +0.195 A 
ATOM     28  N   UNK A   0       5.375  -6.642  26.298  0.00  0.00    -0.316 N 
ATOM     29  H   UNK A   0       5.431  -7.604  25.999  0.00  0.00    +0.170 HD
ATOM     30  C   UNK A   0       5.634  -5.693  25.355  0.00  0.00    +0.107 A 
ATOM     31  N   UNK A   0       5.722  -6.005  24.017  0.00  0.00    -0.330 N 
ATOM     32  H   UNK A   0       5.494  -6.953  23.746  0.00  0.00    +0.147 HD
ATOM     33  C   UNK A   0       5.726  -4.990  22.980  0.00  0.00    +0.106 C 
ATOM     34  C   UNK A   0       6.639  -3.842  23.434  0.00  0.00    +0.011 C 
ATOM     35  C   UNK A   0       6.151  -3.311  24.804  0.00  0.00    +0.049 C 
ATOM     36  C   UNK A   0       5.827  -4.424  25.761  0.00  0.00    +0.057 A 
ATOM     37  C   UNK A   0       5.741  -4.116  27.227  0.00  0.00    +0.279 A 
ATOM     38  O   UNK A   0       5.844  -2.949  27.596  0.00  0.00    -0.265 OA
ATOM     39  N   UNK A   0       5.567  -5.162  28.105  0.00  0.00    -0.177 NA
ENDBRANCH  23  34
ENDBRANCH  22  23
ENDBRANCH   1  22
TORSDOF 11
ENDMDL
MODEL 9
REMARK VINA RESULT:      -7.3      3.912      9.299
REMARK  Name = 
REMARK  11 active torsions:
REMARK  status: ('A' for Active; 'I' for Inactive)
REMARK    1  A    between atoms: C_10  and  C_12
REMARK    2  A    between atoms: C_12  and  C_13
REMARK    3  A    between atoms: C_13  and  C_14
REMARK    4  A    between atoms: C_17  and  C_20
REMARK    5  A    between atoms: N_22  and  CA_23
REMARK    6  A    between atoms: CA_23  and  CB_25
REMARK    7  A    between atoms: CA_23  and  C_30
REMARK    8  A    between atoms: CB_25  and  CG_26
REMARK    9  A    between atoms: CG_26  and  CD_27
REMARK   10  A    between atoms: CD_27  and  OE1_28
REMARK   11  A    between atoms: C_30  and  O_31
REMARK                            x       y       z     vdW  Elec       q    Type
REMARK                         _______ _______ _______ _____ _____    ______ ____
ROOT
ATOM      1  C   UNK A   0      10.043   0.883  23.055  0.00  0.00    -0.047 A 
ATOM      2  C   UNK A   0       9.840   0.360  24.339  0.00  0.00    +0.004 A 
ATOM      3  C   UNK A   0       9.403  -0.955  24.507  0.00  0.00    +0.013 A 
ATOM      4  C   UNK A   0       9.153  -1.759  23.390  0.00  0.00    +0.037 A 
ATOM      5  C   UNK A   0       9.448  -1.273  22.111  0.00  0.00    +0.013 A 
ATOM      6  C   UNK A   0       9.892   0.040  21.947  0.00  0.00    +0.004 A 
ENDROOT
BRANCH   4   7
ATOM      7  C   UNK A   0       8.530  -3.090  23.609  0.00  0.00    +0.245 C 
ATOM      8  N   GLU A   1       7.155  -3.151  23.477  0.00  0.00    -0.298 N 
ATOM      9  H   GLU A   1       6.651  -2.357  23.098  0.00  0.00    +0.150 HD
ATOM     10  O   UNK A   0       9.209  -4.059  23.918  0.00  0.00    -0.270 OA
BRANCH   8  11
ATOM     11  CA  GLU A   1       6.419  -4.422  23.573  0.00  0.00    +0.182 C 
BRANCH  11  12
ATOM     12  C   GLU A   1       6.516  -5.163  22.227  0.00  0.00    +0.325 C 
ATOM     13  OXT GLU A   1       5.841  -4.913  21.240  0.00  0.00    -0.249 OA
BRANCH  12  14
ATOM     14  O   GLU A   1       7.505  -6.094  22.208  0.00  0.00    -0.479 OA
ATOM     15  H   GLU A   1       7.472  -6.641  23.019  0.00  0.00    +0.295 HD
ENDBRANCH  12  14
ENDBRANCH  11  12
BRANCH  11  16
ATOM     16  CB  GLU A   1       6.954  -5.296  24.711  0.00  0.00    +0.045 C 
BRANCH  16  17
ATOM     17  CG  GLU A   1       6.612  -4.746  26.098  0.00  0.00    +0.123 C 
BRANCH  17  18
ATOM     18  CD  GLU A   1       7.549  -5.279  27.152  0.00  0.00    +0.305 C 
ATOM     19  OE2 GLU A   1       7.216  -6.013  28.069  0.00  0.00    -0.251 OA
BRANCH  18  20
ATOM     20  OE1 GLU A   1       8.834  -4.913  26.945  0.00  0.00    -0.481 OA
ATOM     21  HE1 GLU A   1       9.182  -5.162  26.068  0.00  0.00    +0.295 HD
ENDBRANCH  18  20
ENDBRANCH  17  18
ENDBRANCH  16  17
ENDBRANCH  11  16
ENDBRANCH   8  11
ENDBRANCH   4   7
BRANCH   1  22
ATOM     22  C   UNK A   0      10.408   2.337  22.874  0.00  0.00    +0.035 C 
BRANCH  22  23
ATOM     23  C   UNK A   0       9.508   3.268  23.702  0.00  0.00    +0.010 C 
BRANCH  23  34
ATOM     24  N   UNK A   0       1.932   4.170  22.130  0.00  0.00    -0.329 N 
ATOM     25  H   UNK A   0       1.764   5.156  22.001  0.00  0.00    +0.145 HD
ATOM     26  H   UNK A   0       1.162   3.721  22.622  0.00  0.00    +0.145 HD
ATOM     27  C   UNK A   0       3.120   3.845  22.697  0.00  0.00    +0.195 A 
ATOM     28  N   UNK A   0       4.154   4.606  22.276  0.00  0.00    -0.316 N 
ATOM     29  H   UNK A   0       4.041   5.205  21.472  0.00  0.00    +0.170 HD
ATOM     30  C   UNK A   0       5.434   4.338  22.662  0.00  0.00    +0.107 A 
ATOM     31  N   UNK A   0       6.506   5.034  22.151  0.00  0.00    -0.330 N 
ATOM     32  H   UNK A   0       6.304   5.819  21.546  0.00  0.00    +0.147 HD
ATOM     33  C   UNK A   0       7.833   4.957  22.735  0.00  0.00    +0.106 C 
ATOM     34  C   UNK A   0       8.123   3.489  23.078  0.00  0.00    +0.011 C 
ATOM     35  C   UNK A   0       7.013   2.953  24.016  0.00  0.00    +0.049 C 
ATOM     36  C   UNK A   0       5.639   3.349  23.552  0.00  0.00    +0.057 A 
ATOM     37  C   UNK A   0       4.453   2.597  24.079  0.00  0.00    +0.279 A 
ATOM     38  O   UNK A   0       4.627   1.744  24.945  0.00  0.00    -0.265 OA
ATOM     39  N   UNK A   0       3.212   2.884  23.556  0.00  0.00    -0.177 NA
ENDBRANCH  23  34
ENDBRANCH  22  23
ENDBRANCH   1  22
TORSDOF 11
ENDMDL
