MODEL 1
REMARK VINA RESULT:      -7.0      0.000      0.000
REMARK  Name = 
REMARK  0 active torsions:
REMARK  status: ('A' for Active; 'I' for Inactive)
REMARK                            x       y       z     vdW  Elec       q    Type
REMARK                         _______ _______ _______ _____ _____    ______ ____
ROOT
ATOM      1  N   UNL     1      10.221   2.205  21.639  0.00  0.00    -0.329 N 
ATOM      2  H   UNL     1      10.330   2.264  20.634  0.00  0.00    +0.145 HD
ATOM      3  H   UNL     1      10.905   2.760  22.148  0.00  0.00    +0.145 HD
ATOM      4  C   UNL     1       9.835   1.073  22.239  0.00  0.00    +0.191 A 
ATOM      5  N   UNL     1       9.137   0.122  21.549  0.00  0.00    -0.326 N 
ATOM      6  H   UNL     1       8.849   0.194  20.586  0.00  0.00    +0.169 HD
ATOM      7  C   UNL     1       8.924  -0.941  22.386  0.00  0.00    +0.068 A 
ATOM      8  C   UNL     1       8.308  -2.175  22.192  0.00  0.00    +0.043 A 
ATOM      9  C   UNL     1       8.317  -3.041  23.295  0.00  0.00    +0.067 A 
ATOM     10  C   UNL     1       8.870  -2.692  24.534  0.00  0.00    +0.082 A 
ATOM     11  C   UNL     1       9.453  -1.424  24.690  0.00  0.00    +0.058 A 
ATOM     12  N   UNL     1       8.876  -3.583  25.624  0.00  0.00    -0.216 NA
ATOM     13  C   UNL     1       8.380  -4.767  25.459  0.00  0.00    +0.194 A 
ATOM     14  N   UNL     1       8.373  -5.668  26.471  0.00  0.00    -0.329 N 
ATOM     15  H   UNL     1       8.978  -5.391  27.238  0.00  0.00    +0.145 HD
ATOM     16  H   UNL     1       8.471  -6.642  26.220  0.00  0.00    +0.145 HD
ATOM     17  N   UNL     1       7.851  -5.186  24.276  0.00  0.00    -0.295 N 
ATOM     18  H   UNL     1       7.441  -6.103  24.201  0.00  0.00    +0.172 HD
ATOM     19  C   UNL     1       7.752  -4.392  23.166  0.00  0.00    +0.260 A 
ATOM     20  O   UNL     1       7.233  -4.785  22.128  0.00  0.00    -0.267 OA
ATOM     21  C   UNL     1       9.494  -0.547  23.592  0.00  0.00    +0.093 A 
ATOM     22  N   UNL     1      10.047   0.709  23.478  0.00  0.00    -0.215 NA
ENDROOT
TORSDOF 0
ENDMDL
MODEL 2
REMARK VINA RESULT:      -6.8      2.236      5.868
REMARK  Name = 
REMARK  0 active torsions:
REMARK  status: ('A' for Active; 'I' for Inactive)
REMARK                            x       y       z     vdW  Elec       q    Type
REMARK                         _______ _______ _______ _____ _____    ______ ____
ROOT
ATOM      1  N   UNL     1       8.880  -5.771  26.247  0.00  0.00    -0.329 N 
ATOM      2  H   UNL     1       8.729  -5.861  27.245  0.00  0.00    +0.145 HD
ATOM      3  H   UNL     1       9.496  -6.486  25.870  0.00  0.00    +0.145 HD
ATOM      4  C   UNL     1       8.955  -4.573  25.654  0.00  0.00    +0.191 A 
ATOM      5  N   UNL     1       8.385  -3.474  26.231  0.00  0.00    -0.326 N 
ATOM      6  H   UNL     1       7.869  -3.470  27.097  0.00  0.00    +0.169 HD
ATOM      7  C   UNL     1       8.660  -2.387  25.443  0.00  0.00    +0.068 A 
ATOM      8  C   UNL     1       8.358  -1.035  25.575  0.00  0.00    +0.043 A 
ATOM      9  C   UNL     1       8.852  -0.197  24.565  0.00  0.00    +0.067 A 
ATOM     10  C   UNL     1       9.572  -0.676  23.463  0.00  0.00    +0.082 A 
ATOM     11  C   UNL     1       9.826  -2.052  23.356  0.00  0.00    +0.058 A 
ATOM     12  N   UNL     1      10.067   0.187  22.465  0.00  0.00    -0.216 NA
ATOM     13  C   UNL     1       9.871   1.460  22.595  0.00  0.00    +0.194 A 
ATOM     14  N   UNL     1      10.338   2.335  21.672  0.00  0.00    -0.329 N 
ATOM     15  H   UNL     1      11.014   1.910  21.045  0.00  0.00    +0.145 HD
ATOM     16  H   UNL     1      10.623   3.246  22.004  0.00  0.00    +0.145 HD
ATOM     17  N   UNL     1       9.205   2.000  23.652  0.00  0.00    -0.295 N 
ATOM     18  H   UNL     1       9.041   2.992  23.695  0.00  0.00    +0.172 HD
ATOM     19  C   UNL     1       8.643   1.255  24.655  0.00  0.00    +0.260 A 
ATOM     20  O   UNL     1       8.013   1.768  25.573  0.00  0.00    -0.267 OA
ATOM     21  C   UNL     1       9.376  -2.914  24.373  0.00  0.00    +0.093 A 
ATOM     22  N   UNL     1       9.541  -4.273  24.523  0.00  0.00    -0.215 NA
ENDROOT
TORSDOF 0
ENDMDL
MODEL 3
REMARK VINA RESULT:      -6.6      1.655      2.062
REMARK  Name = 
REMARK  0 active torsions:
REMARK  status: ('A' for Active; 'I' for Inactive)
REMARK                            x       y       z     vdW  Elec       q    Type
REMARK                         _______ _______ _______ _____ _____    ______ ____
ROOT
ATOM      1  N   UNL     1       9.808   1.988  21.584  0.00  0.00    -0.329 N 
ATOM      2  H   UNL     1      10.727   2.341  21.824  0.00  0.00    +0.145 HD
ATOM      3  H   UNL     1       9.115   2.724  21.473  0.00  0.00    +0.145 HD
ATOM      4  C   UNL     1       9.348   0.832  22.078  0.00  0.00    +0.191 A 
ATOM      5  N   UNL     1      10.213  -0.129  22.520  0.00  0.00    -0.326 N 
ATOM      6  H   UNL     1      11.219  -0.065  22.497  0.00  0.00    +0.169 HD
ATOM      7  C   UNL     1       9.475  -1.171  23.016  0.00  0.00    +0.068 A 
ATOM      8  C   UNL     1       9.840  -2.373  23.616  0.00  0.00    +0.043 A 
ATOM      9  C   UNL     1       8.781  -3.189  24.041  0.00  0.00    +0.067 A 
ATOM     10  C   UNL     1       7.435  -2.852  23.848  0.00  0.00    +0.082 A 
ATOM     11  C   UNL     1       7.116  -1.643  23.210  0.00  0.00    +0.058 A 
ATOM     12  N   UNL     1       6.389  -3.684  24.293  0.00  0.00    -0.216 NA
ATOM     13  C   UNL     1       6.689  -4.774  24.923  0.00  0.00    +0.194 A 
ATOM     14  N   UNL     1       5.722  -5.602  25.385  0.00  0.00    -0.329 N 
ATOM     15  H   UNL     1       4.805  -5.165  25.380  0.00  0.00    +0.145 HD
ATOM     16  H   UNL     1       5.916  -6.107  26.238  0.00  0.00    +0.145 HD
ATOM     17  N   UNL     1       7.973  -5.152  25.172  0.00  0.00    -0.295 N 
ATOM     18  H   UNL     1       8.164  -6.026  25.632  0.00  0.00    +0.172 HD
ATOM     19  C   UNL     1       9.067  -4.446  24.748  0.00  0.00    +0.260 A 
ATOM     20  O   UNL     1      10.212  -4.834  24.952  0.00  0.00    -0.267 OA
ATOM     21  C   UNL     1       8.155  -0.785  22.806  0.00  0.00    +0.093 A 
ATOM     22  N   UNL     1       8.102   0.458  22.216  0.00  0.00    -0.215 NA
ENDROOT
TORSDOF 0
ENDMDL
MODEL 4
REMARK VINA RESULT:      -6.5      2.192      6.050
REMARK  Name = 
REMARK  0 active torsions:
REMARK  status: ('A' for Active; 'I' for Inactive)
REMARK                            x       y       z     vdW  Elec       q    Type
REMARK                         _______ _______ _______ _____ _____    ______ ____
ROOT
ATOM      1  N   UNL     1       5.426  -7.340  28.620  0.00  0.00    -0.329 N 
ATOM      2  H   UNL     1       4.434  -7.532  28.551  0.00  0.00    +0.145 HD
ATOM      3  H   UNL     1       5.745  -7.223  29.578  0.00  0.00    +0.145 HD
ATOM      4  C   UNL     1       6.063  -6.600  27.704  0.00  0.00    +0.191 A 
ATOM      5  N   UNL     1       5.559  -6.467  26.442  0.00  0.00    -0.326 N 
ATOM      6  H   UNL     1       4.718  -6.907  26.099  0.00  0.00    +0.169 HD
ATOM      7  C   UNL     1       6.377  -5.621  25.742  0.00  0.00    +0.068 A 
ATOM      8  C   UNL     1       6.314  -5.118  24.445  0.00  0.00    +0.043 A 
ATOM      9  C   UNL     1       7.334  -4.224  24.087  0.00  0.00    +0.067 A 
ATOM     10  C   UNL     1       8.380  -3.877  24.950  0.00  0.00    +0.082 A 
ATOM     11  C   UNL     1       8.419  -4.434  26.238  0.00  0.00    +0.058 A 
ATOM     12  N   UNL     1       9.388  -2.969  24.570  0.00  0.00    -0.216 NA
ATOM     13  C   UNL     1       9.320  -2.423  23.399  0.00  0.00    +0.194 A 
ATOM     14  N   UNL     1      10.255  -1.532  22.989  0.00  0.00    -0.329 N 
ATOM     15  H   UNL     1      10.832  -1.199  23.755  0.00  0.00    +0.145 HD
ATOM     16  H   UNL     1       9.947  -0.792  22.373  0.00  0.00    +0.145 HD
ATOM     17  N   UNL     1       8.317  -2.690  22.518  0.00  0.00    -0.295 N 
ATOM     18  H   UNL     1       8.322  -2.272  21.601  0.00  0.00    +0.172 HD
ATOM     19  C   UNL     1       7.313  -3.588  22.762  0.00  0.00    +0.260 A 
ATOM     20  O   UNL     1       6.447  -3.838  21.931  0.00  0.00    -0.267 OA
ATOM     21  C   UNL     1       7.390  -5.304  26.641  0.00  0.00    +0.093 A 
ATOM     22  N   UNL     1       7.177  -5.929  27.850  0.00  0.00    -0.215 NA
ENDROOT
TORSDOF 0
ENDMDL
MODEL 5
REMARK VINA RESULT:      -6.4      4.726      6.396
REMARK  Name = 
REMARK  0 active torsions:
REMARK  status: ('A' for Active; 'I' for Inactive)
REMARK                            x       y       z     vdW  Elec       q    Type
REMARK                         _______ _______ _______ _____ _____    ______ ____
ROOT
ATOM      1  N   UNL     1       1.259  -5.314  22.990  0.00  0.00    -0.329 N 
ATOM      2  H   UNL     1       0.498  -5.731  23.511  0.00  0.00    +0.145 HD
ATOM      3  H   UNL     1       1.191  -5.473  21.988  0.00  0.00    +0.145 HD
ATOM      4  C   UNL     1       2.503  -5.263  23.482  0.00  0.00    +0.191 A 
ATOM      5  N   UNL     1       2.721  -5.323  24.830  0.00  0.00    -0.326 N 
ATOM      6  H   UNL     1       2.004  -5.388  25.535  0.00  0.00    +0.169 HD
ATOM      7  C   UNL     1       4.074  -5.304  25.044  0.00  0.00    +0.068 A 
ATOM      8  C   UNL     1       4.838  -5.380  26.205  0.00  0.00    +0.043 A 
ATOM      9  C   UNL     1       6.229  -5.370  26.023  0.00  0.00    +0.067 A 
ATOM     10  C   UNL     1       6.830  -5.252  24.763  0.00  0.00    +0.082 A 
ATOM     11  C   UNL     1       6.018  -5.148  23.623  0.00  0.00    +0.058 A 
ATOM     12  N   UNL     1       8.230  -5.255  24.604  0.00  0.00    -0.216 NA
ATOM     13  C   UNL     1       8.972  -5.400  25.655  0.00  0.00    +0.194 A 
ATOM     14  N   UNL     1      10.323  -5.424  25.556  0.00  0.00    -0.329 N 
ATOM     15  H   UNL     1      10.638  -5.545  24.599  0.00  0.00    +0.145 HD
ATOM     16  H   UNL     1      10.823  -6.006  26.215  0.00  0.00    +0.145 HD
ATOM     17  N   UNL     1       8.458  -5.548  26.907  0.00  0.00    -0.295 N 
ATOM     18  H   UNL     1       9.071  -5.620  27.702  0.00  0.00    +0.172 HD
ATOM     19  C   UNL     1       7.117  -5.516  27.184  0.00  0.00    +0.260 A 
ATOM     20  O   UNL     1       6.687  -5.610  28.328  0.00  0.00    -0.267 OA
ATOM     21  C   UNL     1       4.620  -5.193  23.770  0.00  0.00    +0.093 A 
ATOM     22  N   UNL     1       3.626  -5.162  22.818  0.00  0.00    -0.215 NA
ENDROOT
TORSDOF 0
ENDMDL
MODEL 6
REMARK VINA RESULT:      -6.3      1.871      2.878
REMARK  Name = 
REMARK  0 active torsions:
REMARK  status: ('A' for Active; 'I' for Inactive)
REMARK                            x       y       z     vdW  Elec       q    Type
REMARK                         _______ _______ _______ _____ _____    ______ ____
ROOT
ATOM      1  N   UNL     1      11.047   3.825  22.985  0.00  0.00    -0.329 N 
ATOM      2  H   UNL     1      11.018   4.434  23.794  0.00  0.00    +0.145 HD
ATOM      3  H   UNL     1      10.891   4.317  22.109  0.00  0.00    +0.145 HD
ATOM      4  C   UNL     1      10.585   2.570  23.033  0.00  0.00    +0.191 A 
ATOM      5  N   UNL     1      10.495   1.907  24.224  0.00  0.00    -0.326 N 
ATOM      6  H   UNL     1      10.772   2.275  25.120  0.00  0.00    +0.169 HD
ATOM      7  C   UNL     1       9.944   0.675  23.985  0.00  0.00    +0.068 A 
ATOM      8  C   UNL     1       9.599  -0.375  24.831  0.00  0.00    +0.043 A 
ATOM      9  C   UNL     1       9.008  -1.487  24.214  0.00  0.00    +0.067 A 
ATOM     10  C   UNL     1       8.804  -1.572  22.831  0.00  0.00    +0.082 A 
ATOM     11  C   UNL     1       9.196  -0.500  22.014  0.00  0.00    +0.058 A 
ATOM     12  N   UNL     1       8.198  -2.695  22.235  0.00  0.00    -0.216 NA
ATOM     13  C   UNL     1       7.795  -3.659  22.999  0.00  0.00    +0.194 A 
ATOM     14  N   UNL     1       7.193  -4.756  22.479  0.00  0.00    -0.329 N 
ATOM     15  H   UNL     1       6.910  -4.619  21.514  0.00  0.00    +0.145 HD
ATOM     16  H   UNL     1       6.483  -5.202  23.043  0.00  0.00    +0.145 HD
ATOM     17  N   UNL     1       7.934  -3.634  24.353  0.00  0.00    -0.295 N 
ATOM     18  H   UNL     1       7.641  -4.422  24.907  0.00  0.00    +0.172 HD
ATOM     19  C   UNL     1       8.546  -2.616  25.034  0.00  0.00    +0.260 A 
ATOM     20  O   UNL     1       8.693  -2.643  26.250  0.00  0.00    -0.267 OA
ATOM     21  C   UNL     1       9.758   0.646  22.607  0.00  0.00    +0.093 A 
ATOM     22  N   UNL     1      10.169   1.830  22.037  0.00  0.00    -0.215 NA
ENDROOT
TORSDOF 0
ENDMDL
MODEL 7
REMARK VINA RESULT:      -6.2      2.671      5.867
REMARK  Name = 
REMARK  0 active torsions:
REMARK  status: ('A' for Active; 'I' for Inactive)
REMARK                            x       y       z     vdW  Elec       q    Type
REMARK                         _______ _______ _______ _____ _____    ______ ____
ROOT
ATOM      1  N   UNL     1       3.108  -6.771  23.146  0.00  0.00    -0.329 N 
ATOM      2  H   UNL     1       3.265  -7.758  23.314  0.00  0.00    +0.145 HD
ATOM      3  H   UNL     1       2.384  -6.594  22.455  0.00  0.00    +0.145 HD
ATOM      4  C   UNL     1       4.112  -5.886  23.171  0.00  0.00    +0.191 A 
ATOM      5  N   UNL     1       5.262  -6.156  23.858  0.00  0.00    -0.326 N 
ATOM      6  H   UNL     1       5.439  -6.991  24.395  0.00  0.00    +0.169 HD
ATOM      7  C   UNL     1       6.127  -5.112  23.669  0.00  0.00    +0.068 A 
ATOM      8  C   UNL     1       7.431  -4.886  24.102  0.00  0.00    +0.043 A 
ATOM      9  C   UNL     1       8.022  -3.692  23.665  0.00  0.00    +0.067 A 
ATOM     10  C   UNL     1       7.347  -2.753  22.874  0.00  0.00    +0.082 A 
ATOM     11  C   UNL     1       6.022  -3.010  22.487  0.00  0.00    +0.058 A 
ATOM     12  N   UNL     1       7.966  -1.565  22.438  0.00  0.00    -0.216 NA
ATOM     13  C   UNL     1       9.203  -1.358  22.758  0.00  0.00    +0.194 A 
ATOM     14  N   UNL     1       9.850  -0.238  22.353  0.00  0.00    -0.329 N 
ATOM     15  H   UNL     1       9.345   0.256  21.624  0.00  0.00    +0.145 HD
ATOM     16  H   UNL     1      10.839  -0.321  22.166  0.00  0.00    +0.145 HD
ATOM     17  N   UNL     1       9.930  -2.238  23.500  0.00  0.00    -0.295 N 
ATOM     18  H   UNL     1      10.878  -2.020  23.759  0.00  0.00    +0.172 HD
ATOM     19  C   UNL     1       9.420  -3.400  24.013  0.00  0.00    +0.260 A 
ATOM     20  O   UNL     1      10.089  -4.152  24.713  0.00  0.00    -0.267 OA
ATOM     21  C   UNL     1       5.414  -4.217  22.878  0.00  0.00    +0.093 A 
ATOM     22  N   UNL     1       4.164  -4.716  22.588  0.00  0.00    -0.215 NA
ENDROOT
TORSDOF 0
ENDMDL
MODEL 8
REMARK VINA RESULT:      -6.1      2.578      3.195
REMARK  Name = 
REMARK  0 active torsions:
REMARK  status: ('A' for Active; 'I' for Inactive)
REMARK                            x       y       z     vdW  Elec       q    Type
REMARK                         _______ _______ _______ _____ _____    ______ ____
ROOT
ATOM      1  N   UNL     1       7.334   4.914  21.802  0.00  0.00    -0.329 N 
ATOM      2  H   UNL     1       8.150   5.489  21.627  0.00  0.00    +0.145 HD
ATOM      3  H   UNL     1       6.588   5.414  22.280  0.00  0.00    +0.145 HD
ATOM      4  C   UNL     1       7.441   3.614  22.101  0.00  0.00    +0.191 A 
ATOM      5  N   UNL     1       8.551   2.906  21.738  0.00  0.00    -0.326 N 
ATOM      6  H   UNL     1       9.336   3.273  21.222  0.00  0.00    +0.169 HD
ATOM      7  C   UNL     1       8.417   1.628  22.215  0.00  0.00    +0.068 A 
ATOM      8  C   UNL     1       9.256   0.519  22.165  0.00  0.00    +0.043 A 
ATOM      9  C   UNL     1       8.785  -0.632  22.815  0.00  0.00    +0.067 A 
ATOM     10  C   UNL     1       7.536  -0.693  23.445  0.00  0.00    +0.082 A 
ATOM     11  C   UNL     1       6.711   0.443  23.443  0.00  0.00    +0.058 A 
ATOM     12  N   UNL     1       7.089  -1.858  24.101  0.00  0.00    -0.216 NA
ATOM     13  C   UNL     1       7.874  -2.885  24.140  0.00  0.00    +0.194 A 
ATOM     14  N   UNL     1       7.499  -4.025  24.769  0.00  0.00    -0.329 N 
ATOM     15  H   UNL     1       6.686  -3.890  25.361  0.00  0.00    +0.145 HD
ATOM     16  H   UNL     1       8.228  -4.567  25.213  0.00  0.00    +0.145 HD
ATOM     17  N   UNL     1       9.112  -2.890  23.575  0.00  0.00    -0.295 N 
ATOM     18  H   UNL     1       9.677  -3.724  23.596  0.00  0.00    +0.172 HD
ATOM     19  C   UNL     1       9.630  -1.833  22.876  0.00  0.00    +0.260 A 
ATOM     20  O   UNL     1      10.733  -1.882  22.342  0.00  0.00    -0.267 OA
ATOM     21  C   UNL     1       7.171   1.624  22.833  0.00  0.00    +0.093 A 
ATOM     22  N   UNL     1       6.582   2.865  22.743  0.00  0.00    -0.215 NA
ENDROOT
TORSDOF 0
ENDMDL
MODEL 9
REMARK VINA RESULT:      -6.0      2.352      3.158
REMARK  Name = 
REMARK  0 active torsions:
REMARK  status: ('A' for Active; 'I' for Inactive)
REMARK                            x       y       z     vdW  Elec       q    Type
REMARK                         _______ _______ _______ _____ _____    ______ ____
ROOT
ATOM      1  N   UNL     1      10.191  -1.250  21.933  0.00  0.00    -0.329 N 
ATOM      2  H   UNL     1      10.201  -1.243  20.920  0.00  0.00    +0.145 HD
ATOM      3  H   UNL     1      11.112  -1.121  22.342  0.00  0.00    +0.145 HD
ATOM      4  C   UNL     1       9.358  -2.041  22.621  0.00  0.00    +0.191 A 
ATOM      5  N   UNL     1       8.206  -2.502  22.051  0.00  0.00    -0.326 N 
ATOM      6  H   UNL     1       7.886  -2.284  21.120  0.00  0.00    +0.169 HD
ATOM      7  C   UNL     1       7.583  -3.323  22.954  0.00  0.00    +0.068 A 
ATOM      8  C   UNL     1       6.414  -4.076  22.882  0.00  0.00    +0.043 A 
ATOM      9  C   UNL     1       6.110  -4.842  24.017  0.00  0.00    +0.067 A 
ATOM     10  C   UNL     1       6.899  -4.833  25.175  0.00  0.00    +0.082 A 
ATOM     11  C   UNL     1       8.052  -4.034  25.212  0.00  0.00    +0.058 A 
ATOM     12  N   UNL     1       6.578  -5.619  26.299  0.00  0.00    -0.216 NA
ATOM     13  C   UNL     1       5.540  -6.390  26.241  0.00  0.00    +0.194 A 
ATOM     14  N   UNL     1       5.196  -7.176  27.288  0.00  0.00    -0.329 N 
ATOM     15  H   UNL     1       5.939  -7.251  27.976  0.00  0.00    +0.145 HD
ATOM     16  H   UNL     1       4.762  -8.064  27.075  0.00  0.00    +0.145 HD
ATOM     17  N   UNL     1       4.744  -6.471  25.139  0.00  0.00    -0.295 N 
ATOM     18  H   UNL     1       3.924  -7.056  25.149  0.00  0.00    +0.172 HD
ATOM     19  C   UNL     1       4.933  -5.722  24.009  0.00  0.00    +0.260 A 
ATOM     20  O   UNL     1       4.174  -5.788  23.049  0.00  0.00    -0.267 OA
ATOM     21  C   UNL     1       8.405  -3.284  24.075  0.00  0.00    +0.093 A 
ATOM     22  N   UNL     1       9.496  -2.476  23.848  0.00  0.00    -0.215 NA
ENDROOT
TORSDOF 0
ENDMDL
