MODEL 1
REMARK VINA RESULT:      -6.6      0.000      0.000
REMARK  Name = 
REMARK  7 active torsions:
REMARK  status: ('A' for Active; 'I' for Inactive)
REMARK    1  A    between atoms: C_1  and  C_2
REMARK    2  A    between atoms: C_3  and  C_4
REMARK    3  A    between atoms: C_3  and  C_14
REMARK    4  A    between atoms: C_4  and  C_7
REMARK    5  A    between atoms: C_5  and  C_6
REMARK    6  A    between atoms: C_10  and  O_11
REMARK    7  A    between atoms: C_17  and  O_18
REMARK                            x       y       z     vdW  Elec       q    Type
REMARK                         _______ _______ _______ _____ _____    ______ ____
ROOT
ATOM      1  C   UNL     1       7.443  -1.368  26.704  0.00  0.00    +0.036 C 
ATOM      2  C   UNL     1       6.836  -2.330  25.734  0.00  0.00    -0.021 C 
ATOM      3  C   UNL     1       7.386  -2.902  24.636  0.00  0.00    -0.015 C 
ENDROOT
BRANCH   3   4
ATOM      4  C   UNL     1       6.370  -3.650  23.852  0.00  0.00    -0.017 A 
ATOM      5  C   UNL     1       6.750  -4.742  23.056  0.00  0.00    +0.012 A 
ATOM      6  C   UNL     1       5.788  -5.637  22.570  0.00  0.00    +0.046 A 
ATOM      7  C   UNL     1       4.445  -5.445  22.890  0.00  0.00    +0.117 A 
ATOM      8  C   UNL     1       4.043  -4.341  23.629  0.00  0.00    +0.046 A 
ATOM      9  C   UNL     1       5.004  -3.444  24.105  0.00  0.00    +0.012 A 
BRANCH   7  10
ATOM     10  O   UNL     1       3.550  -6.394  22.497  0.00  0.00    -0.507 OA
ATOM     11  H   UNL     1       3.893  -7.263  22.764  0.00  0.00    +0.292 HD
ENDBRANCH   7  10
ENDBRANCH   3   4
BRANCH   3  12
ATOM     12  C   UNL     1       8.799  -2.717  24.242  0.00  0.00    -0.015 C 
ATOM     13  C   UNL     1       9.769  -3.587  24.614  0.00  0.00    -0.021 C 
ATOM     14  C   UNL     1       9.673  -4.936  25.247  0.00  0.00    +0.036 C 
BRANCH  12  15
ATOM     15  C   UNL     1       9.299  -1.527  23.478  0.00  0.00    -0.017 A 
ATOM     16  C   UNL     1       8.985  -1.334  22.126  0.00  0.00    +0.012 A 
ATOM     17  C   UNL     1       9.340  -0.146  21.470  0.00  0.00    +0.046 A 
ATOM     18  C   UNL     1       9.975   0.871  22.170  0.00  0.00    +0.117 A 
ATOM     19  C   UNL     1      10.349   0.692  23.493  0.00  0.00    +0.046 A 
ATOM     20  C   UNL     1      10.042  -0.514  24.126  0.00  0.00    +0.012 A 
BRANCH  18  21
ATOM     21  O   UNL     1      10.190   2.056  21.533  0.00  0.00    -0.507 OA
ATOM     22  H   UNL     1       9.401   2.263  21.006  0.00  0.00    +0.292 HD
ENDBRANCH  18  21
ENDBRANCH  12  15
ENDBRANCH   3  12
TORSDOF 5
ENDMDL
MODEL 2
REMARK VINA RESULT:      -6.5      0.284      6.239
REMARK  Name = 
REMARK  7 active torsions:
REMARK  status: ('A' for Active; 'I' for Inactive)
REMARK    1  A    between atoms: C_1  and  C_2
REMARK    2  A    between atoms: C_3  and  C_4
REMARK    3  A    between atoms: C_3  and  C_14
REMARK    4  A    between atoms: C_4  and  C_7
REMARK    5  A    between atoms: C_5  and  C_6
REMARK    6  A    between atoms: C_10  and  O_11
REMARK    7  A    between atoms: C_17  and  O_18
REMARK                            x       y       z     vdW  Elec       q    Type
REMARK                         _______ _______ _______ _____ _____    ______ ____
ROOT
ATOM      1  C   UNL     1       9.567  -4.834  25.222  0.00  0.00    +0.036 C 
ATOM      2  C   UNL     1       9.748  -3.496  24.581  0.00  0.00    -0.021 C 
ATOM      3  C   UNL     1       8.826  -2.536  24.325  0.00  0.00    -0.015 C 
ENDROOT
BRANCH   3   4
ATOM      4  C   UNL     1       9.403  -1.440  23.504  0.00  0.00    -0.017 A 
ATOM      5  C   UNL     1       9.036  -1.293  22.157  0.00  0.00    +0.012 A 
ATOM      6  C   UNL     1       9.318  -0.106  21.469  0.00  0.00    +0.046 A 
ATOM      7  C   UNL     1       9.956   0.940  22.133  0.00  0.00    +0.117 A 
ATOM      8  C   UNL     1      10.376   0.795  23.448  0.00  0.00    +0.046 A 
ATOM      9  C   UNL     1      10.102  -0.395  24.130  0.00  0.00    +0.012 A 
BRANCH   7  10
ATOM     10  O   UNL     1      10.113   2.120  21.470  0.00  0.00    -0.507 OA
ATOM     11  H   UNL     1      10.084   2.841  22.122  0.00  0.00    +0.292 HD
ENDBRANCH   7  10
ENDBRANCH   3   4
BRANCH   3  12
ATOM     12  C   UNL     1       7.412  -2.632  24.744  0.00  0.00    -0.015 C 
ATOM     13  C   UNL     1       6.950  -2.023  25.864  0.00  0.00    -0.021 C 
ATOM     14  C   UNL     1       7.596  -1.015  26.757  0.00  0.00    +0.036 C 
BRANCH  12  15
ATOM     15  C   UNL     1       6.389  -3.465  24.030  0.00  0.00    -0.017 A 
ATOM     16  C   UNL     1       6.721  -4.241  22.911  0.00  0.00    +0.012 A 
ATOM     17  C   UNL     1       5.786  -5.122  22.347  0.00  0.00    +0.046 A 
ATOM     18  C   UNL     1       4.530  -5.262  22.921  0.00  0.00    +0.117 A 
ATOM     19  C   UNL     1       4.150  -4.471  23.994  0.00  0.00    +0.046 A 
ATOM     20  C   UNL     1       5.066  -3.557  24.518  0.00  0.00    +0.012 A 
BRANCH  18  21
ATOM     21  O   UNL     1       3.696  -6.218  22.422  0.00  0.00    -0.507 OA
ATOM     22  H   UNL     1       3.683  -6.132  21.455  0.00  0.00    +0.292 HD
ENDBRANCH  18  21
ENDBRANCH  12  15
ENDBRANCH   3  12
TORSDOF 5
ENDMDL
MODEL 3
REMARK VINA RESULT:      -6.4      3.586      8.040
REMARK  Name = 
REMARK  7 active torsions:
REMARK  status: ('A' for Active; 'I' for Inactive)
REMARK    1  A    between atoms: C_1  and  C_2
REMARK    2  A    between atoms: C_3  and  C_4
REMARK    3  A    between atoms: C_3  and  C_14
REMARK    4  A    between atoms: C_4  and  C_7
REMARK    5  A    between atoms: C_5  and  C_6
REMARK    6  A    between atoms: C_10  and  O_11
REMARK    7  A    between atoms: C_17  and  O_18
REMARK                            x       y       z     vdW  Elec       q    Type
REMARK                         _______ _______ _______ _____ _____    ______ ____
ROOT
ATOM      1  C   UNL     1       7.242   2.247  26.274  0.00  0.00    +0.036 C 
ATOM      2  C   UNL     1       8.169   3.081  25.450  0.00  0.00    -0.021 C 
ATOM      3  C   UNL     1       8.580   2.897  24.172  0.00  0.00    -0.015 C 
ENDROOT
BRANCH   3   4
ATOM      4  C   UNL     1       9.651   3.861  23.807  0.00  0.00    -0.017 A 
ATOM      5  C   UNL     1       9.550   5.210  24.181  0.00  0.00    +0.012 A 
ATOM      6  C   UNL     1      10.671   6.050  24.124  0.00  0.00    +0.046 A 
ATOM      7  C   UNL     1      11.896   5.535  23.703  0.00  0.00    +0.117 A 
ATOM      8  C   UNL     1      12.003   4.218  23.276  0.00  0.00    +0.046 A 
ATOM      9  C   UNL     1      10.882   3.386  23.325  0.00  0.00    +0.012 A 
BRANCH   7  10
ATOM     10  O   UNL     1      12.989   6.346  23.767  0.00  0.00    -0.507 OA
ATOM     11  H   UNL     1      12.799   7.151  23.255  0.00  0.00    +0.292 HD
ENDBRANCH   7  10
ENDBRANCH   3   4
BRANCH   3  12
ATOM     12  C   UNL     1       8.077   1.814  23.302  0.00  0.00    -0.015 C 
ATOM     13  C   UNL     1       7.055   2.006  22.432  0.00  0.00    -0.021 C 
ATOM     14  C   UNL     1       6.383   3.263  21.987  0.00  0.00    +0.036 C 
BRANCH  12  15
ATOM     15  C   UNL     1       8.584   0.403  23.355  0.00  0.00    -0.017 A 
ATOM     16  C   UNL     1       9.734   0.006  22.659  0.00  0.00    +0.012 A 
ATOM     17  C   UNL     1      10.271  -1.277  22.837  0.00  0.00    +0.046 A 
ATOM     18  C   UNL     1       9.688  -2.156  23.739  0.00  0.00    +0.117 A 
ATOM     19  C   UNL     1       8.519  -1.816  24.403  0.00  0.00    +0.046 A 
ATOM     20  C   UNL     1       7.957  -0.557  24.181  0.00  0.00    +0.012 A 
BRANCH  18  21
ATOM     21  O   UNL     1      10.310  -3.345  23.978  0.00  0.00    -0.507 OA
ATOM     22  H   UNL     1      10.628  -3.340  24.896  0.00  0.00    +0.292 HD
ENDBRANCH  18  21
ENDBRANCH  12  15
ENDBRANCH   3  12
TORSDOF 5
ENDMDL
MODEL 4
REMARK VINA RESULT:      -6.4      1.243      6.232
REMARK  Name = 
REMARK  7 active torsions:
REMARK  status: ('A' for Active; 'I' for Inactive)
REMARK    1  A    between atoms: C_1  and  C_2
REMARK    2  A    between atoms: C_3  and  C_4
REMARK    3  A    between atoms: C_3  and  C_14
REMARK    4  A    between atoms: C_4  and  C_7
REMARK    5  A    between atoms: C_5  and  C_6
REMARK    6  A    between atoms: C_10  and  O_11
REMARK    7  A    between atoms: C_17  and  O_18
REMARK                            x       y       z     vdW  Elec       q    Type
REMARK                         _______ _______ _______ _____ _____    ______ ____
ROOT
ATOM      1  C   UNL     1       8.634  -3.549  26.422  0.00  0.00    +0.036 C 
ATOM      2  C   UNL     1       8.993  -2.399  25.538  0.00  0.00    -0.021 C 
ATOM      3  C   UNL     1       8.263  -1.807  24.562  0.00  0.00    -0.015 C 
ENDROOT
BRANCH   3   4
ATOM      4  C   UNL     1       9.075  -0.819  23.805  0.00  0.00    -0.017 A 
ATOM      5  C   UNL     1       9.111  -0.855  22.402  0.00  0.00    +0.012 A 
ATOM      6  C   UNL     1       9.604   0.236  21.675  0.00  0.00    +0.046 A 
ATOM      7  C   UNL     1      10.051   1.369  22.353  0.00  0.00    +0.117 A 
ATOM      8  C   UNL     1      10.075   1.403  23.740  0.00  0.00    +0.046 A 
ATOM      9  C   UNL     1       9.591   0.309  24.463  0.00  0.00    +0.012 A 
BRANCH   7  10
ATOM     10  O   UNL     1      10.418   2.455  21.614  0.00  0.00    -0.507 OA
ATOM     11  H   UNL     1      10.091   3.252  22.065  0.00  0.00    +0.292 HD
ENDBRANCH   7  10
ENDBRANCH   3   4
BRANCH   3  12
ATOM     12  C   UNL     1       6.865  -2.176  24.252  0.00  0.00    -0.015 C 
ATOM     13  C   UNL     1       5.813  -1.446  24.695  0.00  0.00    -0.021 C 
ATOM     14  C   UNL     1       5.769  -0.101  25.342  0.00  0.00    +0.036 C 
BRANCH  12  15
ATOM     15  C   UNL     1       6.482  -3.417  23.501  0.00  0.00    -0.017 A 
ATOM     16  C   UNL     1       5.164  -3.893  23.487  0.00  0.00    +0.012 A 
ATOM     17  C   UNL     1       4.799  -4.968  22.664  0.00  0.00    +0.046 A 
ATOM     18  C   UNL     1       5.737  -5.548  21.822  0.00  0.00    +0.117 A 
ATOM     19  C   UNL     1       7.062  -5.139  21.850  0.00  0.00    +0.046 A 
ATOM     20  C   UNL     1       7.431  -4.104  22.711  0.00  0.00    +0.012 A 
BRANCH  18  21
ATOM     21  O   UNL     1       5.316  -6.505  20.948  0.00  0.00    -0.507 OA
ATOM     22  H   UNL     1       4.390  -6.714  21.153  0.00  0.00    +0.292 HD
ENDBRANCH  18  21
ENDBRANCH  12  15
ENDBRANCH   3  12
TORSDOF 5
ENDMDL
MODEL 5
REMARK VINA RESULT:      -6.4      3.666      5.955
REMARK  Name = 
REMARK  7 active torsions:
REMARK  status: ('A' for Active; 'I' for Inactive)
REMARK    1  A    between atoms: C_1  and  C_2
REMARK    2  A    between atoms: C_3  and  C_4
REMARK    3  A    between atoms: C_3  and  C_14
REMARK    4  A    between atoms: C_4  and  C_7
REMARK    5  A    between atoms: C_5  and  C_6
REMARK    6  A    between atoms: C_10  and  O_11
REMARK    7  A    between atoms: C_17  and  O_18
REMARK                            x       y       z     vdW  Elec       q    Type
REMARK                         _______ _______ _______ _____ _____    ______ ____
ROOT
ATOM      1  C   UNL     1       6.846   2.724  21.871  0.00  0.00    +0.036 C 
ATOM      2  C   UNL     1       7.564   1.617  22.573  0.00  0.00    -0.021 C 
ATOM      3  C   UNL     1       8.392   1.675  23.644  0.00  0.00    -0.015 C 
ENDROOT
BRANCH   3   4
ATOM      4  C   UNL     1       9.036   0.361  23.900  0.00  0.00    -0.017 A 
ATOM      5  C   UNL     1       8.691  -0.391  25.034  0.00  0.00    +0.012 A 
ATOM      6  C   UNL     1       9.045  -1.743  25.126  0.00  0.00    +0.046 A 
ATOM      7  C   UNL     1       9.734  -2.347  24.075  0.00  0.00    +0.117 A 
ATOM      8  C   UNL     1      10.133  -1.608  22.970  0.00  0.00    +0.046 A 
ATOM      9  C   UNL     1       9.787  -0.257  22.885  0.00  0.00    +0.012 A 
BRANCH   7  10
ATOM     10  O   UNL     1       9.962  -3.689  24.145  0.00  0.00    -0.507 OA
ATOM     11  H   UNL     1      10.363  -3.973  23.306  0.00  0.00    +0.292 HD
ENDBRANCH   7  10
ENDBRANCH   3   4
BRANCH   3  12
ATOM     12  C   UNL     1       8.670   2.920  24.392  0.00  0.00    -0.015 C 
ATOM     13  C   UNL     1       7.901   3.321  25.433  0.00  0.00    -0.021 C 
ATOM     14  C   UNL     1       6.828   2.600  26.182  0.00  0.00    +0.036 C 
BRANCH  12  15
ATOM     15  C   UNL     1       9.761   3.882  24.026  0.00  0.00    -0.017 A 
ATOM     16  C   UNL     1       9.670   5.248  24.325  0.00  0.00    +0.012 A 
ATOM     17  C   UNL     1      10.760   6.104  24.105  0.00  0.00    +0.046 A 
ATOM     18  C   UNL     1      11.957   5.594  23.623  0.00  0.00    +0.117 A 
ATOM     19  C   UNL     1      12.064   4.259  23.265  0.00  0.00    +0.046 A 
ATOM     20  C   UNL     1      10.960   3.422  23.435  0.00  0.00    +0.012 A 
BRANCH  18  21
ATOM     21  O   UNL     1      13.029   6.431  23.541  0.00  0.00    -0.507 OA
ATOM     22  H   UNL     1      12.703   7.344  23.597  0.00  0.00    +0.292 HD
ENDBRANCH  18  21
ENDBRANCH  12  15
ENDBRANCH   3  12
TORSDOF 5
ENDMDL
MODEL 6
REMARK VINA RESULT:      -6.1      1.712      5.905
REMARK  Name = 
REMARK  7 active torsions:
REMARK  status: ('A' for Active; 'I' for Inactive)
REMARK    1  A    between atoms: C_1  and  C_2
REMARK    2  A    between atoms: C_3  and  C_4
REMARK    3  A    between atoms: C_3  and  C_14
REMARK    4  A    between atoms: C_4  and  C_7
REMARK    5  A    between atoms: C_5  and  C_6
REMARK    6  A    between atoms: C_10  and  O_11
REMARK    7  A    between atoms: C_17  and  O_18
REMARK                            x       y       z     vdW  Elec       q    Type
REMARK                         _______ _______ _______ _____ _____    ______ ____
ROOT
ATOM      1  C   UNL     1       5.313  -1.136  25.597  0.00  0.00    +0.036 C 
ATOM      2  C   UNL     1       6.462  -0.686  24.754  0.00  0.00    -0.021 C 
ATOM      3  C   UNL     1       7.459  -1.419  24.202  0.00  0.00    -0.015 C 
ENDROOT
BRANCH   3   4
ATOM      4  C   UNL     1       8.498  -0.547  23.597  0.00  0.00    -0.017 A 
ATOM      5  C   UNL     1       8.789  -0.634  22.227  0.00  0.00    +0.012 A 
ATOM      6  C   UNL     1       9.523   0.376  21.589  0.00  0.00    +0.046 A 
ATOM      7  C   UNL     1       9.956   1.479  22.323  0.00  0.00    +0.117 A 
ATOM      8  C   UNL     1       9.727   1.557  23.690  0.00  0.00    +0.046 A 
ATOM      9  C   UNL     1       9.002   0.544  24.325  0.00  0.00    +0.012 A 
BRANCH   7  10
ATOM     10  O   UNL     1      10.568   2.496  21.652  0.00  0.00    -0.507 OA
ATOM     11  H   UNL     1      10.051   3.306  21.794  0.00  0.00    +0.292 HD
ENDBRANCH   7  10
ENDBRANCH   3   4
BRANCH   3  12
ATOM     12  C   UNL     1       7.527  -2.894  24.281  0.00  0.00    -0.015 C 
ATOM     13  C   UNL     1       8.138  -3.532  25.309  0.00  0.00    -0.021 C 
ATOM     14  C   UNL     1       8.648  -3.007  26.611  0.00  0.00    +0.036 C 
BRANCH  12  15
ATOM     15  C   UNL     1       7.008  -3.808  23.211  0.00  0.00    -0.017 A 
ATOM     16  C   UNL     1       6.166  -3.345  22.191  0.00  0.00    +0.012 A 
ATOM     17  C   UNL     1       5.810  -4.180  21.121  0.00  0.00    +0.046 A 
ATOM     18  C   UNL     1       6.325  -5.467  21.044  0.00  0.00    +0.117 A 
ATOM     19  C   UNL     1       7.116  -5.975  22.063  0.00  0.00    +0.046 A 
ATOM     20  C   UNL     1       7.423  -5.158  23.152  0.00  0.00    +0.012 A 
BRANCH  18  21
ATOM     21  O   UNL     1       6.058  -6.203  19.928  0.00  0.00    -0.507 OA
ATOM     22  H   UNL     1       5.299  -5.800  19.476  0.00  0.00    +0.292 HD
ENDBRANCH  18  21
ENDBRANCH  12  15
ENDBRANCH   3  12
TORSDOF 5
ENDMDL
MODEL 7
REMARK VINA RESULT:      -5.9      1.999      6.247
REMARK  Name = 
REMARK  7 active torsions:
REMARK  status: ('A' for Active; 'I' for Inactive)
REMARK    1  A    between atoms: C_1  and  C_2
REMARK    2  A    between atoms: C_3  and  C_4
REMARK    3  A    between atoms: C_3  and  C_14
REMARK    4  A    between atoms: C_4  and  C_7
REMARK    5  A    between atoms: C_5  and  C_6
REMARK    6  A    between atoms: C_10  and  O_11
REMARK    7  A    between atoms: C_17  and  O_18
REMARK                            x       y       z     vdW  Elec       q    Type
REMARK                         _______ _______ _______ _____ _____    ______ ____
ROOT
ATOM      1  C   UNL     1       8.505  -2.101  26.353  0.00  0.00    +0.036 C 
ATOM      2  C   UNL     1       8.123  -0.891  25.564  0.00  0.00    -0.021 C 
ATOM      3  C   UNL     1       7.988  -0.749  24.224  0.00  0.00    -0.015 C 
ENDROOT
BRANCH   3   4
ATOM      4  C   UNL     1       7.776   0.674  23.851  0.00  0.00    -0.017 A 
ATOM      5  C   UNL     1       8.694   1.657  24.252  0.00  0.00    +0.012 A 
ATOM      6  C   UNL     1       8.683   2.926  23.657  0.00  0.00    +0.046 A 
ATOM      7  C   UNL     1       7.758   3.206  22.651  0.00  0.00    +0.117 A 
ATOM      8  C   UNL     1       6.807   2.266  22.280  0.00  0.00    +0.046 A 
ATOM      9  C   UNL     1       6.815   1.005  22.881  0.00  0.00    +0.012 A 
BRANCH   7  10
ATOM     10  O   UNL     1       7.848   4.408  22.016  0.00  0.00    -0.507 OA
ATOM     11  H   UNL     1       8.616   4.884  22.374  0.00  0.00    +0.292 HD
ENDBRANCH   7  10
ENDBRANCH   3   4
BRANCH   3  12
ATOM     12  C   UNL     1       8.125  -1.868  23.267  0.00  0.00    -0.015 C 
ATOM     13  C   UNL     1       9.123  -1.914  22.352  0.00  0.00    -0.021 C 
ATOM     14  C   UNL     1      10.352  -1.077  22.214  0.00  0.00    +0.036 C 
BRANCH  12  15
ATOM     15  C   UNL     1       7.143  -2.998  23.165  0.00  0.00    -0.017 A 
ATOM     16  C   UNL     1       5.762  -2.787  23.278  0.00  0.00    +0.012 A 
ATOM     17  C   UNL     1       4.856  -3.831  23.036  0.00  0.00    +0.046 A 
ATOM     18  C   UNL     1       5.322  -5.077  22.642  0.00  0.00    +0.117 A 
ATOM     19  C   UNL     1       6.682  -5.335  22.573  0.00  0.00    +0.046 A 
ATOM     20  C   UNL     1       7.581  -4.308  22.868  0.00  0.00    +0.012 A 
BRANCH  18  21
ATOM     21  O   UNL     1       4.408  -6.027  22.295  0.00  0.00    -0.507 OA
ATOM     22  H   UNL     1       4.691  -6.872  22.680  0.00  0.00    +0.292 HD
ENDBRANCH  18  21
ENDBRANCH  12  15
ENDBRANCH   3  12
TORSDOF 5
ENDMDL
MODEL 8
REMARK VINA RESULT:      -5.9      1.865      3.004
REMARK  Name = 
REMARK  7 active torsions:
REMARK  status: ('A' for Active; 'I' for Inactive)
REMARK    1  A    between atoms: C_1  and  C_2
REMARK    2  A    between atoms: C_3  and  C_4
REMARK    3  A    between atoms: C_3  and  C_14
REMARK    4  A    between atoms: C_4  and  C_7
REMARK    5  A    between atoms: C_5  and  C_6
REMARK    6  A    between atoms: C_10  and  O_11
REMARK    7  A    between atoms: C_17  and  O_18
REMARK                            x       y       z     vdW  Elec       q    Type
REMARK                         _______ _______ _______ _____ _____    ______ ____
ROOT
ATOM      1  C   UNL     1       7.416  -5.124  22.035  0.00  0.00    +0.036 C 
ATOM      2  C   UNL     1       6.723  -4.294  23.066  0.00  0.00    -0.021 C 
ATOM      3  C   UNL     1       7.245  -3.396  23.936  0.00  0.00    -0.015 C 
ENDROOT
BRANCH   3   4
ATOM      4  C   UNL     1       6.225  -2.937  24.914  0.00  0.00    -0.017 A 
ATOM      5  C   UNL     1       6.449  -1.787  25.687  0.00  0.00    +0.012 A 
ATOM      6  C   UNL     1       5.391  -1.171  26.369  0.00  0.00    +0.046 A 
ATOM      7  C   UNL     1       4.105  -1.701  26.267  0.00  0.00    +0.117 A 
ATOM      8  C   UNL     1       3.873  -2.868  25.553  0.00  0.00    +0.046 A 
ATOM      9  C   UNL     1       4.932  -3.486  24.882  0.00  0.00    +0.012 A 
BRANCH   7  10
ATOM     10  O   UNL     1       3.081  -1.015  26.849  0.00  0.00    -0.507 OA
ATOM     11  H   UNL     1       3.459  -0.264  27.338  0.00  0.00    +0.292 HD
ENDBRANCH   7  10
ENDBRANCH   3   4
BRANCH   3  12
ATOM     12  C   UNL     1       8.671  -3.006  23.948  0.00  0.00    -0.015 C 
ATOM     13  C   UNL     1       9.603  -3.708  24.637  0.00  0.00    -0.021 C 
ATOM     14  C   UNL     1       9.517  -5.040  25.307  0.00  0.00    +0.036 C 
BRANCH  12  15
ATOM     15  C   UNL     1       9.200  -1.773  23.278  0.00  0.00    -0.017 A 
ATOM     16  C   UNL     1       8.947  -1.502  21.926  0.00  0.00    +0.012 A 
ATOM     17  C   UNL     1       9.325  -0.277  21.358  0.00  0.00    +0.046 A 
ATOM     18  C   UNL     1       9.923   0.699  22.144  0.00  0.00    +0.117 A 
ATOM     19  C   UNL     1      10.237   0.444  23.470  0.00  0.00    +0.046 A 
ATOM     20  C   UNL     1       9.907  -0.798  24.017  0.00  0.00    +0.012 A 
BRANCH  18  21
ATOM     21  O   UNL     1      10.162   1.920  21.588  0.00  0.00    -0.507 OA
ATOM     22  H   UNL     1      10.221   1.806  20.625  0.00  0.00    +0.292 HD
ENDBRANCH  18  21
ENDBRANCH  12  15
ENDBRANCH   3  12
TORSDOF 5
ENDMDL
MODEL 9
REMARK VINA RESULT:      -5.9      2.376      3.282
REMARK  Name = 
REMARK  7 active torsions:
REMARK  status: ('A' for Active; 'I' for Inactive)
REMARK    1  A    between atoms: C_1  and  C_2
REMARK    2  A    between atoms: C_3  and  C_4
REMARK    3  A    between atoms: C_3  and  C_14
REMARK    4  A    between atoms: C_4  and  C_7
REMARK    5  A    between atoms: C_5  and  C_6
REMARK    6  A    between atoms: C_10  and  O_11
REMARK    7  A    between atoms: C_17  and  O_18
REMARK                            x       y       z     vdW  Elec       q    Type
REMARK                         _______ _______ _______ _____ _____    ______ ____
ROOT
ATOM      1  C   UNL     1       7.188  -5.345  21.801  0.00  0.00    +0.036 C 
ATOM      2  C   UNL     1       6.603  -5.016  23.136  0.00  0.00    -0.021 C 
ATOM      3  C   UNL     1       7.097  -4.222  24.117  0.00  0.00    -0.015 C 
ENDROOT
BRANCH   3   4
ATOM      4  C   UNL     1       6.282  -4.322  25.355  0.00  0.00    -0.017 A 
ATOM      5  C   UNL     1       6.100  -5.562  25.987  0.00  0.00    +0.012 A 
ATOM      6  C   UNL     1       5.611  -5.628  27.298  0.00  0.00    +0.046 A 
ATOM      7  C   UNL     1       5.314  -4.449  27.981  0.00  0.00    +0.117 A 
ATOM      8  C   UNL     1       5.434  -3.216  27.355  0.00  0.00    +0.046 A 
ATOM      9  C   UNL     1       5.914  -3.155  26.044  0.00  0.00    +0.012 A 
BRANCH   7  10
ATOM     10  O   UNL     1       4.949  -4.542  29.291  0.00  0.00    -0.507 OA
ATOM     11  H   UNL     1       5.575  -5.137  29.739  0.00  0.00    +0.292 HD
ENDBRANCH   7  10
ENDBRANCH   3   4
BRANCH   3  12
ATOM     12  C   UNL     1       8.341  -3.433  23.978  0.00  0.00    -0.015 C 
ATOM     13  C   UNL     1       9.479  -3.764  24.635  0.00  0.00    -0.021 C 
ATOM     14  C   UNL     1       9.833  -4.993  25.405  0.00  0.00    +0.036 C 
BRANCH  12  15
ATOM     15  C   UNL     1       8.437  -2.169  23.177  0.00  0.00    -0.017 A 
ATOM     16  C   UNL     1       7.442  -1.183  23.233  0.00  0.00    +0.012 A 
ATOM     17  C   UNL     1       7.619   0.051  22.591  0.00  0.00    +0.046 A 
ATOM     18  C   UNL     1       8.806   0.323  21.924  0.00  0.00    +0.117 A 
ATOM     19  C   UNL     1       9.787  -0.648  21.803  0.00  0.00    +0.046 A 
ATOM     20  C   UNL     1       9.583  -1.895  22.398  0.00  0.00    +0.012 A 
BRANCH  18  21
ATOM     21  O   UNL     1       8.991   1.576  21.422  0.00  0.00    -0.507 OA
ATOM     22  H   UNL     1       8.339   1.718  20.717  0.00  0.00    +0.292 HD
ENDBRANCH  18  21
ENDBRANCH  12  15
ENDBRANCH   3  12
TORSDOF 5
ENDMDL
