MODEL 1
REMARK VINA RESULT:      -6.4      0.000      0.000
REMARK  Name = 
REMARK  8 active torsions:
REMARK  status: ('A' for Active; 'I' for Inactive)
REMARK    1  A    between atoms: C_1  and  C_2
REMARK    2  A    between atoms: C_2  and  C_3
REMARK    3  A    between atoms: C_3  and  N_4
REMARK    4  A    between atoms: N_4  and  C_5
REMARK    5  A    between atoms: N_4  and  C_12
REMARK    6  A    between atoms: C_5  and  C_6
REMARK    7  A    between atoms: C_6  and  C_7
REMARK    8  A    between atoms: C_21  and  O_22
REMARK                            x       y       z     vdW  Elec       q    Type
REMARK                         _______ _______ _______ _____ _____    ______ ____
ROOT
ATOM      1  C   UNL     1       8.951  -2.647  23.924  0.00  0.00    +0.061 C 
ATOM      2  C   UNL     1       7.732  -3.439  23.331  0.00  0.00    +0.054 C 
ATOM      3  C   UNL     1       7.036  -4.356  24.322  0.00  0.00    -0.039 A 
ATOM      4  C   UNL     1       5.765  -4.867  24.022  0.00  0.00    +0.004 A 
ATOM      5  C   UNL     1       5.102  -5.700  24.925  0.00  0.00    +0.004 A 
ATOM      6  C   UNL     1       5.696  -6.032  26.140  0.00  0.00    +0.046 A 
ATOM      7  C   UNL     1       6.967  -5.545  26.432  0.00  0.00    +0.120 A 
ATOM      8  C   UNL     1       7.654  -4.731  25.526  0.00  0.00    -0.003 A 
ATOM      9  C   UNL     1       9.026  -4.234  25.867  0.00  0.00    +0.040 C 
ATOM     10  C   UNL     1       9.783  -3.717  24.651  0.00  0.00    +0.024 C 
ENDROOT
BRANCH   7  11
ATOM     11  O   UNL     1       7.572  -5.846  27.620  0.00  0.00    -0.506 OA
ATOM     12  H   UNL     1       6.982  -6.420  28.127  0.00  0.00    +0.292 HD
ENDBRANCH   7  11
BRANCH   1  13
ATOM     13  N   UNL     1       9.716  -1.835  22.903  0.00  0.00    -0.299 NA
BRANCH  13  14
ATOM     14  C   UNL     1       8.734  -1.141  22.007  0.00  0.00    +0.084 C 
BRANCH  14  16
ATOM     15  C   UNL     1       8.267   1.251  21.332  0.00  0.00    +0.005 C 
ATOM     16  C   UNL     1       9.226   0.071  21.192  0.00  0.00    +0.012 C 
ENDBRANCH  14  16
ENDBRANCH  13  14
BRANCH  13  17
ATOM     17  C   UNL     1      10.608  -0.809  23.523  0.00  0.00    +0.090 C 
BRANCH  17  18
ATOM     18  C   UNL     1      10.220   0.016  24.774  0.00  0.00    +0.058 C 
BRANCH  18  19
ATOM     19  C   UNL     1       9.882   1.461  24.529  0.00  0.00    -0.009 A 
ATOM     20  S   UNL     1       8.361   2.085  25.032  0.00  0.00    -0.102 S 
ATOM     21  C   UNL     1       8.671   3.608  24.321  0.00  0.00    +0.045 A 
ATOM     22  C   UNL     1       9.909   3.654  23.722  0.00  0.00    +0.008 A 
ATOM     23  C   UNL     1      10.612   2.421  23.857  0.00  0.00    +0.011 A 
ENDBRANCH  18  19
ENDBRANCH  17  18
ENDBRANCH  13  17
ENDBRANCH   1  13
TORSDOF 7
ENDMDL
MODEL 2
REMARK VINA RESULT:      -6.3      3.223      6.910
REMARK  Name = 
REMARK  8 active torsions:
REMARK  status: ('A' for Active; 'I' for Inactive)
REMARK    1  A    between atoms: C_1  and  C_2
REMARK    2  A    between atoms: C_2  and  C_3
REMARK    3  A    between atoms: C_3  and  N_4
REMARK    4  A    between atoms: N_4  and  C_5
REMARK    5  A    between atoms: N_4  and  C_12
REMARK    6  A    between atoms: C_5  and  C_6
REMARK    7  A    between atoms: C_6  and  C_7
REMARK    8  A    between atoms: C_21  and  O_22
REMARK                            x       y       z     vdW  Elec       q    Type
REMARK                         _______ _______ _______ _____ _____    ______ ____
ROOT
ATOM      1  C   UNL     1       8.960  -2.265  23.469  0.00  0.00    +0.061 C 
ATOM      2  C   UNL     1       8.802  -1.262  24.667  0.00  0.00    +0.054 C 
ATOM      3  C   UNL     1       8.946   0.200  24.285  0.00  0.00    -0.039 A 
ATOM      4  C   UNL     1       8.519   1.196  25.176  0.00  0.00    +0.004 A 
ATOM      5  C   UNL     1       8.628   2.546  24.838  0.00  0.00    +0.004 A 
ATOM      6  C   UNL     1       9.162   2.922  23.609  0.00  0.00    +0.046 A 
ATOM      7  C   UNL     1       9.608   1.937  22.732  0.00  0.00    +0.120 A 
ATOM      8  C   UNL     1       9.529   0.582  23.066  0.00  0.00    -0.003 A 
ATOM      9  C   UNL     1      10.029  -0.451  22.102  0.00  0.00    +0.040 C 
ATOM     10  C   UNL     1      10.244  -1.809  22.757  0.00  0.00    +0.024 C 
ENDROOT
BRANCH   7  11
ATOM     11  O   UNL     1      10.128   2.274  21.514  0.00  0.00    -0.506 OA
ATOM     12  H   UNL     1      10.838   1.653  21.300  0.00  0.00    +0.292 HD
ENDBRANCH   7  11
BRANCH   1  13
ATOM     13  N   UNL     1       8.943  -3.721  23.875  0.00  0.00    -0.299 NA
BRANCH  13  14
ATOM     14  C   UNL     1       8.879  -3.802  25.371  0.00  0.00    +0.084 C 
BRANCH  14  16
ATOM     15  C   UNL     1       7.299  -4.945  26.981  0.00  0.00    +0.005 C 
ATOM     16  C   UNL     1       8.459  -5.142  26.008  0.00  0.00    +0.012 C 
ENDBRANCH  14  16
ENDBRANCH  13  14
BRANCH  13  17
ATOM     17  C   UNL     1       7.784  -4.474  23.304  0.00  0.00    +0.090 C 
BRANCH  17  18
ATOM     18  C   UNL     1       6.494  -3.791  22.787  0.00  0.00    +0.058 C 
BRANCH  18  19
ATOM     19  C   UNL     1       5.387  -3.633  23.793  0.00  0.00    -0.009 A 
ATOM     20  S   UNL     1       3.977  -4.608  23.680  0.00  0.00    -0.102 S 
ATOM     21  C   UNL     1       3.218  -3.787  24.972  0.00  0.00    +0.045 A 
ATOM     22  C   UNL     1       4.020  -2.798  25.494  0.00  0.00    +0.008 A 
ATOM     23  C   UNL     1       5.276  -2.721  24.824  0.00  0.00    +0.011 A 
ENDBRANCH  18  19
ENDBRANCH  17  18
ENDBRANCH  13  17
ENDBRANCH   1  13
TORSDOF 7
ENDMDL
MODEL 3
REMARK VINA RESULT:      -6.2      1.936      3.010
REMARK  Name = 
REMARK  8 active torsions:
REMARK  status: ('A' for Active; 'I' for Inactive)
REMARK    1  A    between atoms: C_1  and  C_2
REMARK    2  A    between atoms: C_2  and  C_3
REMARK    3  A    between atoms: C_3  and  N_4
REMARK    4  A    between atoms: N_4  and  C_5
REMARK    5  A    between atoms: N_4  and  C_12
REMARK    6  A    between atoms: C_5  and  C_6
REMARK    7  A    between atoms: C_6  and  C_7
REMARK    8  A    between atoms: C_21  and  O_22
REMARK                            x       y       z     vdW  Elec       q    Type
REMARK                         _______ _______ _______ _____ _____    ______ ____
ROOT
ATOM      1  C   UNL     1       7.663  -2.759  23.280  0.00  0.00    +0.061 C 
ATOM      2  C   UNL     1       7.284  -3.313  24.699  0.00  0.00    +0.054 C 
ATOM      3  C   UNL     1       6.321  -4.486  24.680  0.00  0.00    -0.039 A 
ATOM      4  C   UNL     1       6.153  -5.267  25.833  0.00  0.00    +0.004 A 
ATOM      5  C   UNL     1       5.284  -6.359  25.832  0.00  0.00    +0.004 A 
ATOM      6  C   UNL     1       4.572  -6.688  24.682  0.00  0.00    +0.046 A 
ATOM      7  C   UNL     1       4.718  -5.902  23.542  0.00  0.00    +0.120 A 
ATOM      8  C   UNL     1       5.565  -4.790  23.536  0.00  0.00    -0.003 A 
ATOM      9  C   UNL     1       5.690  -3.959  22.295  0.00  0.00    +0.040 C 
ATOM     10  C   UNL     1       6.312  -2.595  22.563  0.00  0.00    +0.024 C 
ENDROOT
BRANCH   7  11
ATOM     11  O   UNL     1       4.039  -6.206  22.396  0.00  0.00    -0.506 OA
ATOM     12  H   UNL     1       3.282  -6.761  22.625  0.00  0.00    +0.292 HD
ENDBRANCH   7  11
BRANCH   1  13
ATOM     13  N   UNL     1       8.519  -1.513  23.310  0.00  0.00    -0.299 NA
BRANCH  13  14
ATOM     14  C   UNL     1       9.444  -1.595  24.488  0.00  0.00    +0.084 C 
BRANCH  14  16
ATOM     15  C   UNL     1       8.104   0.293  25.506  0.00  0.00    +0.005 C 
ATOM     16  C   UNL     1       9.455  -0.418  25.485  0.00  0.00    +0.012 C 
ENDBRANCH  14  16
ENDBRANCH  13  14
BRANCH  13  17
ATOM     17  C   UNL     1       9.335  -1.335  22.070  0.00  0.00    +0.090 C 
BRANCH  17  18
ATOM     18  C   UNL     1       9.388  -0.013  21.267  0.00  0.00    +0.058 C 
BRANCH  18  19
ATOM     19  C   UNL     1       9.211   1.249  22.066  0.00  0.00    -0.009 A 
ATOM     20  S   UNL     1       7.696   2.060  22.068  0.00  0.00    -0.102 S 
ATOM     21  C   UNL     1       8.309   3.355  23.000  0.00  0.00    +0.045 A 
ATOM     22  C   UNL     1       9.636   3.175  23.320  0.00  0.00    +0.008 A 
ATOM     23  C   UNL     1      10.149   1.954  22.794  0.00  0.00    +0.011 A 
ENDBRANCH  18  19
ENDBRANCH  17  18
ENDBRANCH  13  17
ENDBRANCH   1  13
TORSDOF 7
ENDMDL
MODEL 4
REMARK VINA RESULT:      -6.1      2.078      3.170
REMARK  Name = 
REMARK  8 active torsions:
REMARK  status: ('A' for Active; 'I' for Inactive)
REMARK    1  A    between atoms: C_1  and  C_2
REMARK    2  A    between atoms: C_2  and  C_3
REMARK    3  A    between atoms: C_3  and  N_4
REMARK    4  A    between atoms: N_4  and  C_5
REMARK    5  A    between atoms: N_4  and  C_12
REMARK    6  A    between atoms: C_5  and  C_6
REMARK    7  A    between atoms: C_6  and  C_7
REMARK    8  A    between atoms: C_21  and  O_22
REMARK                            x       y       z     vdW  Elec       q    Type
REMARK                         _______ _______ _______ _____ _____    ______ ____
ROOT
ATOM      1  C   UNL     1       6.882  -3.962  23.217  0.00  0.00    +0.061 C 
ATOM      2  C   UNL     1       6.628  -4.085  24.762  0.00  0.00    +0.054 C 
ATOM      3  C   UNL     1       5.735  -5.246  25.161  0.00  0.00    -0.039 A 
ATOM      4  C   UNL     1       5.687  -5.657  26.501  0.00  0.00    +0.004 A 
ATOM      5  C   UNL     1       4.884  -6.732  26.887  0.00  0.00    +0.004 A 
ATOM      6  C   UNL     1       4.120  -7.412  25.943  0.00  0.00    +0.046 A 
ATOM      7  C   UNL     1       4.147  -6.992  24.616  0.00  0.00    +0.120 A 
ATOM      8  C   UNL     1       4.926  -5.902  24.219  0.00  0.00    -0.003 A 
ATOM      9  C   UNL     1       4.922  -5.470  22.784  0.00  0.00    +0.040 C 
ATOM     10  C   UNL     1       5.481  -4.066  22.592  0.00  0.00    +0.024 C 
ENDROOT
BRANCH   7  11
ATOM     11  O   UNL     1       3.414  -7.646  23.665  0.00  0.00    -0.506 OA
ATOM     12  H   UNL     1       3.638  -7.278  22.799  0.00  0.00    +0.292 HD
ENDBRANCH   7  11
BRANCH   1  13
ATOM     13  N   UNL     1       7.665  -2.733  22.816  0.00  0.00    -0.299 NA
BRANCH  13  14
ATOM     14  C   UNL     1       6.739  -1.554  22.808  0.00  0.00    +0.084 C 
BRANCH  14  16
ATOM     15  C   UNL     1       6.627   0.821  23.669  0.00  0.00    +0.005 C 
ATOM     16  C   UNL     1       6.700  -0.653  24.059  0.00  0.00    +0.012 C 
ENDBRANCH  14  16
ENDBRANCH  13  14
BRANCH  13  17
ATOM     17  C   UNL     1       8.807  -2.441  23.736  0.00  0.00    +0.090 C 
BRANCH  17  18
ATOM     18  C   UNL     1      10.168  -1.882  23.257  0.00  0.00    +0.058 C 
BRANCH  18  19
ATOM     19  C   UNL     1      10.220  -0.399  23.011  0.00  0.00    -0.009 A 
ATOM     20  S   UNL     1      10.685   0.666  24.277  0.00  0.00    -0.102 S 
ATOM     21  C   UNL     1      10.371   2.050  23.325  0.00  0.00    +0.045 A 
ATOM     22  C   UNL     1       9.933   1.718  22.064  0.00  0.00    +0.008 A 
ATOM     23  C   UNL     1       9.862   0.306  21.879  0.00  0.00    +0.011 A 
ENDBRANCH  18  19
ENDBRANCH  17  18
ENDBRANCH  13  17
ENDBRANCH   1  13
TORSDOF 7
ENDMDL
MODEL 5
REMARK VINA RESULT:      -6.1      3.017      7.014
REMARK  Name = 
REMARK  8 active torsions:
REMARK  status: ('A' for Active; 'I' for Inactive)
REMARK    1  A    between atoms: C_1  and  C_2
REMARK    2  A    between atoms: C_2  and  C_3
REMARK    3  A    between atoms: C_3  and  N_4
REMARK    4  A    between atoms: N_4  and  C_5
REMARK    5  A    between atoms: N_4  and  C_12
REMARK    6  A    between atoms: C_5  and  C_6
REMARK    7  A    between atoms: C_6  and  C_7
REMARK    8  A    between atoms: C_21  and  O_22
REMARK                            x       y       z     vdW  Elec       q    Type
REMARK                         _______ _______ _______ _____ _____    ______ ____
ROOT
ATOM      1  C   UNL     1       7.929  -1.884  23.066  0.00  0.00    +0.061 C 
ATOM      2  C   UNL     1       8.003  -0.956  24.331  0.00  0.00    +0.054 C 
ATOM      3  C   UNL     1       8.541   0.438  24.057  0.00  0.00    -0.039 A 
ATOM      4  C   UNL     1       8.363   1.450  25.011  0.00  0.00    +0.004 A 
ATOM      5  C   UNL     1       8.836   2.742  24.773  0.00  0.00    +0.004 A 
ATOM      6  C   UNL     1       9.492   3.041  23.582  0.00  0.00    +0.046 A 
ATOM      7  C   UNL     1       9.690   2.033  22.642  0.00  0.00    +0.120 A 
ATOM      8  C   UNL     1       9.245   0.729  22.878  0.00  0.00    -0.003 A 
ATOM      9  C   UNL     1       9.486  -0.335  21.850  0.00  0.00    +0.040 C 
ATOM     10  C   UNL     1       9.312  -1.741  22.408  0.00  0.00    +0.024 C 
ENDROOT
BRANCH   7  11
ATOM     11  O   UNL     1      10.321   2.299  21.460  0.00  0.00    -0.506 OA
ATOM     12  H   UNL     1       9.652   2.381  20.766  0.00  0.00    +0.292 HD
ENDBRANCH   7  11
BRANCH   1  13
ATOM     13  N   UNL     1       7.515  -3.306  23.366  0.00  0.00    -0.299 NA
BRANCH  13  14
ATOM     14  C   UNL     1       7.248  -4.013  22.071  0.00  0.00    +0.084 C 
BRANCH  14  16
ATOM     15  C   UNL     1       5.679  -5.989  22.241  0.00  0.00    +0.005 C 
ATOM     16  C   UNL     1       7.135  -5.550  22.094  0.00  0.00    +0.012 C 
ENDBRANCH  14  16
ENDBRANCH  13  14
BRANCH  13  17
ATOM     17  C   UNL     1       8.553  -4.069  24.125  0.00  0.00    +0.090 C 
BRANCH  17  18
ATOM     18  C   UNL     1       8.337  -4.608  25.560  0.00  0.00    +0.058 C 
BRANCH  18  19
ATOM     19  C   UNL     1       6.906  -4.715  26.013  0.00  0.00    -0.009 A 
ATOM     20  S   UNL     1       6.180  -3.422  26.882  0.00  0.00    -0.102 S 
ATOM     21  C   UNL     1       4.739  -4.305  27.134  0.00  0.00    +0.045 A 
ATOM     22  C   UNL     1       4.795  -5.555  26.560  0.00  0.00    +0.008 A 
ATOM     23  C   UNL     1       6.039  -5.783  25.901  0.00  0.00    +0.011 A 
ENDBRANCH  18  19
ENDBRANCH  17  18
ENDBRANCH  13  17
ENDBRANCH   1  13
TORSDOF 7
ENDMDL
MODEL 6
REMARK VINA RESULT:      -6.0      3.422      7.818
REMARK  Name = 
REMARK  8 active torsions:
REMARK  status: ('A' for Active; 'I' for Inactive)
REMARK    1  A    between atoms: C_1  and  C_2
REMARK    2  A    between atoms: C_2  and  C_3
REMARK    3  A    between atoms: C_3  and  N_4
REMARK    4  A    between atoms: N_4  and  C_5
REMARK    5  A    between atoms: N_4  and  C_12
REMARK    6  A    between atoms: C_5  and  C_6
REMARK    7  A    between atoms: C_6  and  C_7
REMARK    8  A    between atoms: C_21  and  O_22
REMARK                            x       y       z     vdW  Elec       q    Type
REMARK                         _______ _______ _______ _____ _____    ______ ____
ROOT
ATOM      1  C   UNL     1       8.445   1.393  23.890  0.00  0.00    +0.061 C 
ATOM      2  C   UNL     1       9.570   2.484  23.993  0.00  0.00    +0.054 C 
ATOM      3  C   UNL     1       9.127   3.881  23.597  0.00  0.00    -0.039 A 
ATOM      4  C   UNL     1       9.922   4.985  23.940  0.00  0.00    +0.004 A 
ATOM      5  C   UNL     1       9.526   6.279  23.599  0.00  0.00    +0.004 A 
ATOM      6  C   UNL     1       8.333   6.491  22.912  0.00  0.00    +0.046 A 
ATOM      7  C   UNL     1       7.554   5.396  22.550  0.00  0.00    +0.120 A 
ATOM      8  C   UNL     1       7.949   4.092  22.862  0.00  0.00    -0.003 A 
ATOM      9  C   UNL     1       7.091   2.936  22.446  0.00  0.00    +0.040 C 
ATOM     10  C   UNL     1       7.833   1.607  22.496  0.00  0.00    +0.024 C 
ENDROOT
BRANCH   7  11
ATOM     11  O   UNL     1       6.373   5.573  21.884  0.00  0.00    -0.506 OA
ATOM     12  H   UNL     1       6.565   5.683  20.942  0.00  0.00    +0.292 HD
ENDBRANCH   7  11
BRANCH   1  13
ATOM     13  N   UNL     1       8.924  -0.015  24.163  0.00  0.00    -0.299 NA
BRANCH  13  14
ATOM     14  C   UNL     1      10.221  -0.230  23.443  0.00  0.00    +0.084 C 
BRANCH  14  16
ATOM     15  C   UNL     1       8.951  -1.815  21.937  0.00  0.00    +0.005 C 
ATOM     16  C   UNL     1      10.326  -1.426  22.476  0.00  0.00    +0.012 C 
ENDBRANCH  14  16
ENDBRANCH  13  14
BRANCH  13  17
ATOM     17  C   UNL     1       9.130  -0.291  25.618  0.00  0.00    +0.090 C 
BRANCH  17  18
ATOM     18  C   UNL     1       8.528  -1.515  26.348  0.00  0.00    +0.058 C 
BRANCH  18  19
ATOM     19  C   UNL     1       8.256  -2.723  25.492  0.00  0.00    -0.009 A 
ATOM     20  S   UNL     1       6.674  -3.005  24.883  0.00  0.00    -0.102 S 
ATOM     21  C   UNL     1       7.128  -4.507  24.203  0.00  0.00    +0.045 A 
ATOM     22  C   UNL     1       8.457  -4.788  24.419  0.00  0.00    +0.008 A 
ATOM     23  C   UNL     1       9.110  -3.752  25.148  0.00  0.00    +0.011 A 
ENDBRANCH  18  19
ENDBRANCH  17  18
ENDBRANCH  13  17
ENDBRANCH   1  13
TORSDOF 7
ENDMDL
MODEL 7
REMARK VINA RESULT:      -6.0      3.560      5.868
REMARK  Name = 
REMARK  8 active torsions:
REMARK  status: ('A' for Active; 'I' for Inactive)
REMARK    1  A    between atoms: C_1  and  C_2
REMARK    2  A    between atoms: C_2  and  C_3
REMARK    3  A    between atoms: C_3  and  N_4
REMARK    4  A    between atoms: N_4  and  C_5
REMARK    5  A    between atoms: N_4  and  C_12
REMARK    6  A    between atoms: C_5  and  C_6
REMARK    7  A    between atoms: C_6  and  C_7
REMARK    8  A    between atoms: C_21  and  O_22
REMARK                            x       y       z     vdW  Elec       q    Type
REMARK                         _______ _______ _______ _____ _____    ______ ____
ROOT
ATOM      1  C   UNL     1       9.764   2.978  23.667  0.00  0.00    +0.061 C 
ATOM      2  C   UNL     1       9.215   1.950  24.720  0.00  0.00    +0.054 C 
ATOM      3  C   UNL     1       9.397   0.494  24.330  0.00  0.00    -0.039 A 
ATOM      4  C   UNL     1       9.247  -0.509  25.299  0.00  0.00    +0.004 A 
ATOM      5  C   UNL     1       9.425  -1.852  24.965  0.00  0.00    +0.004 A 
ATOM      6  C   UNL     1       9.755  -2.214  23.662  0.00  0.00    +0.046 A 
ATOM      7  C   UNL     1       9.882  -1.224  22.692  0.00  0.00    +0.120 A 
ATOM      8  C   UNL     1       9.682   0.124  23.006  0.00  0.00    -0.003 A 
ATOM      9  C   UNL     1       9.815   1.163  21.934  0.00  0.00    +0.040 C 
ATOM     10  C   UNL     1       9.188   2.494  22.326  0.00  0.00    +0.024 C 
ENDROOT
BRANCH   7  11
ATOM     11  O   UNL     1      10.215  -1.547  21.407  0.00  0.00    -0.506 OA
ATOM     12  H   UNL     1      11.179  -1.598  21.342  0.00  0.00    +0.292 HD
ENDBRANCH   7  11
BRANCH   1  13
ATOM     13  N   UNL     1       9.467   4.422  24.001  0.00  0.00    -0.299 NA
BRANCH  13  14
ATOM     14  C   UNL     1      10.692   5.242  23.725  0.00  0.00    +0.084 C 
BRANCH  14  16
ATOM     15  C   UNL     1      12.940   5.422  22.582  0.00  0.00    +0.005 C 
ATOM     16  C   UNL     1      11.990   4.502  23.345  0.00  0.00    +0.012 C 
ENDBRANCH  14  16
ENDBRANCH  13  14
BRANCH  13  17
ATOM     17  C   UNL     1       8.327   4.982  23.210  0.00  0.00    +0.090 C 
BRANCH  17  18
ATOM     18  C   UNL     1       6.905   5.182  23.787  0.00  0.00    +0.058 C 
BRANCH  18  19
ATOM     19  C   UNL     1       6.233   3.947  24.322  0.00  0.00    -0.009 A 
ATOM     20  S   UNL     1       6.038   3.740  26.017  0.00  0.00    -0.102 S 
ATOM     21  C   UNL     1       5.388   2.171  25.822  0.00  0.00    +0.045 A 
ATOM     22  C   UNL     1       5.305   1.810  24.497  0.00  0.00    +0.008 A 
ATOM     23  C   UNL     1       5.777   2.840  23.633  0.00  0.00    +0.011 A 
ENDBRANCH  18  19
ENDBRANCH  17  18
ENDBRANCH  13  17
ENDBRANCH   1  13
TORSDOF 7
ENDMDL
MODEL 8
REMARK VINA RESULT:      -5.9      3.318      7.411
REMARK  Name = 
REMARK  8 active torsions:
REMARK  status: ('A' for Active; 'I' for Inactive)
REMARK    1  A    between atoms: C_1  and  C_2
REMARK    2  A    between atoms: C_2  and  C_3
REMARK    3  A    between atoms: C_3  and  N_4
REMARK    4  A    between atoms: N_4  and  C_5
REMARK    5  A    between atoms: N_4  and  C_12
REMARK    6  A    between atoms: C_5  and  C_6
REMARK    7  A    between atoms: C_6  and  C_7
REMARK    8  A    between atoms: C_21  and  O_22
REMARK                            x       y       z     vdW  Elec       q    Type
REMARK                         _______ _______ _______ _____ _____    ______ ____
ROOT
ATOM      1  C   UNL     1       9.524  -0.184  24.408  0.00  0.00    +0.061 C 
ATOM      2  C   UNL     1       8.513   0.658  25.265  0.00  0.00    +0.054 C 
ATOM      3  C   UNL     1       8.517   2.145  24.960  0.00  0.00    -0.039 A 
ATOM      4  C   UNL     1       7.462   2.950  25.413  0.00  0.00    +0.004 A 
ATOM      5  C   UNL     1       7.438   4.317  25.131  0.00  0.00    +0.004 A 
ATOM      6  C   UNL     1       8.465   4.899  24.393  0.00  0.00    +0.046 A 
ATOM      7  C   UNL     1       9.526   4.108  23.962  0.00  0.00    +0.120 A 
ATOM      8  C   UNL     1       9.576   2.743  24.258  0.00  0.00    -0.003 A 
ATOM      9  C   UNL     1      10.740   1.923  23.788  0.00  0.00    +0.040 C 
ATOM     10  C   UNL     1      10.850   0.589  24.514  0.00  0.00    +0.024 C 
ENDROOT
BRANCH   7  11
ATOM     11  O   UNL     1      10.544   4.649  23.227  0.00  0.00    -0.506 OA
ATOM     12  H   UNL     1      10.230   4.789  22.323  0.00  0.00    +0.292 HD
ENDBRANCH   7  11
BRANCH   1  13
ATOM     13  N   UNL     1       9.607  -1.641  24.804  0.00  0.00    -0.299 NA
BRANCH  13  14
ATOM     14  C   UNL     1       8.548  -1.922  25.827  0.00  0.00    +0.084 C 
BRANCH  14  16
ATOM     15  C   UNL     1       6.946  -3.790  26.410  0.00  0.00    +0.005 C 
ATOM     16  C   UNL     1       8.412  -3.365  26.353  0.00  0.00    +0.012 C 
ENDBRANCH  14  16
ENDBRANCH  13  14
BRANCH  13  17
ATOM     17  C   UNL     1       9.418  -2.571  23.649  0.00  0.00    +0.090 C 
BRANCH  17  18
ATOM     18  C   UNL     1       8.235  -2.470  22.656  0.00  0.00    +0.058 C 
BRANCH  18  19
ATOM     19  C   UNL     1       7.254  -3.610  22.683  0.00  0.00    -0.009 A 
ATOM     20  S   UNL     1       5.572  -3.301  22.521  0.00  0.00    -0.102 S 
ATOM     21  C   UNL     1       5.173  -4.942  22.782  0.00  0.00    +0.045 A 
ATOM     22  C   UNL     1       6.292  -5.719  22.976  0.00  0.00    +0.008 A 
ATOM     23  C   UNL     1       7.491  -4.953  22.902  0.00  0.00    +0.011 A 
ENDBRANCH  18  19
ENDBRANCH  17  18
ENDBRANCH  13  17
ENDBRANCH   1  13
TORSDOF 7
ENDMDL
MODEL 9
REMARK VINA RESULT:      -5.9      3.565      7.937
REMARK  Name = 
REMARK  8 active torsions:
REMARK  status: ('A' for Active; 'I' for Inactive)
REMARK    1  A    between atoms: C_1  and  C_2
REMARK    2  A    between atoms: C_2  and  C_3
REMARK    3  A    between atoms: C_3  and  N_4
REMARK    4  A    between atoms: N_4  and  C_5
REMARK    5  A    between atoms: N_4  and  C_12
REMARK    6  A    between atoms: C_5  and  C_6
REMARK    7  A    between atoms: C_6  and  C_7
REMARK    8  A    between atoms: C_21  and  O_22
REMARK                            x       y       z     vdW  Elec       q    Type
REMARK                         _______ _______ _______ _____ _____    ______ ____
ROOT
ATOM      1  C   UNL     1       9.451   1.616  23.412  0.00  0.00    +0.061 C 
ATOM      2  C   UNL     1      10.208   2.967  23.669  0.00  0.00    +0.054 C 
ATOM      3  C   UNL     1       9.370   4.212  23.436  0.00  0.00    -0.039 A 
ATOM      4  C   UNL     1       9.813   5.449  23.927  0.00  0.00    +0.004 A 
ATOM      5  C   UNL     1       9.050   6.603  23.738  0.00  0.00    +0.004 A 
ATOM      6  C   UNL     1       7.837   6.538  23.058  0.00  0.00    +0.046 A 
ATOM      7  C   UNL     1       7.405   5.316  22.550  0.00  0.00    +0.120 A 
ATOM      8  C   UNL     1       8.170   4.157  22.709  0.00  0.00    -0.003 A 
ATOM      9  C   UNL     1       7.681   2.861  22.139  0.00  0.00    +0.040 C 
ATOM     10  C   UNL     1       8.779   1.810  22.042  0.00  0.00    +0.024 C 
ENDROOT
BRANCH   7  11
ATOM     11  O   UNL     1       6.214   5.220  21.887  0.00  0.00    -0.506 OA
ATOM     12  H   UNL     1       6.276   5.729  21.067  0.00  0.00    +0.292 HD
ENDBRANCH   7  11
BRANCH   1  13
ATOM     13  N   UNL     1      10.324   0.387  23.521  0.00  0.00    -0.299 NA
BRANCH  13  14
ATOM     14  C   UNL     1      10.252  -0.132  24.926  0.00  0.00    +0.084 C 
BRANCH  14  16
ATOM     15  C   UNL     1       8.641  -1.128  26.600  0.00  0.00    +0.005 C 
ATOM     16  C   UNL     1       8.941   0.075  25.709  0.00  0.00    +0.012 C 
ENDBRANCH  14  16
ENDBRANCH  13  14
BRANCH  13  17
ATOM     17  C   UNL     1       9.916  -0.705  22.584  0.00  0.00    +0.090 C 
BRANCH  17  18
ATOM     18  C   UNL     1       9.652  -2.162  23.036  0.00  0.00    +0.058 C 
BRANCH  18  19
ATOM     19  C   UNL     1       8.207  -2.569  23.130  0.00  0.00    -0.009 A 
ATOM     20  S   UNL     1       7.794  -4.202  23.470  0.00  0.00    -0.102 S 
ATOM     21  C   UNL     1       6.124  -3.896  23.275  0.00  0.00    +0.045 A 
ATOM     22  C   UNL     1       5.876  -2.577  22.969  0.00  0.00    +0.008 A 
ATOM     23  C   UNL     1       7.076  -1.811  22.902  0.00  0.00    +0.011 A 
ENDBRANCH  18  19
ENDBRANCH  17  18
ENDBRANCH  13  17
ENDBRANCH   1  13
TORSDOF 7
ENDMDL
