MODEL 1
REMARK VINA RESULT:      -7.9      0.000      0.000
REMARK  Name = 
REMARK  6 active torsions:
REMARK  status: ('A' for Active; 'I' for Inactive)
REMARK    1  A    between atoms: C_1  and  O_2
REMARK    2  A    between atoms: O_2  and  C_3
REMARK    3  A    between atoms: C_5  and  C_9
REMARK    4  A    between atoms: C_11  and  C_15
REMARK    5  A    between atoms: C_15  and  C_16
REMARK    6  A    between atoms: N_20  and  C_21
REMARK                            x       y       z     vdW  Elec       q    Type
REMARK                         _______ _______ _______ _____ _____    ______ ____
ROOT
ATOM      1  C   UNL     1       9.623   1.948  23.036  0.00  0.00    -0.017 A 
ATOM      2  C   UNL     1       9.653   1.601  21.681  0.00  0.00    +0.008 A 
ATOM      3  C   UNL     1       9.345   0.301  21.266  0.00  0.00    +0.001 A 
ATOM      4  C   UNL     1       9.008  -0.683  22.200  0.00  0.00    +0.007 A 
ATOM      5  C   UNL     1       8.971  -0.383  23.568  0.00  0.00    -0.004 A 
ATOM      6  C   UNL     1       9.262   0.939  23.950  0.00  0.00    +0.016 A 
ENDROOT
BRANCH   5   7
ATOM      7  C   UNL     1       8.659  -1.448  24.643  0.00  0.00    +0.157 C 
ATOM      8  N   UNL     1       7.214  -1.667  24.720  0.00  0.00    -0.105 NA
ATOM      9  C   UNL     1       6.660  -2.819  24.706  0.00  0.00    +0.372 C 
ATOM     10  N   UNL     1       5.301  -2.822  24.760  0.00  0.00    -0.251 N 
ATOM     11  H   UNL     1       4.949  -1.910  25.039  0.00  0.00    +0.241 HD
ATOM     12  H   UNL     1       4.864  -3.574  25.274  0.00  0.00    +0.241 HD
ATOM     13  N   UNL     1       7.358  -3.997  24.648  0.00  0.00    -0.165 N 
ATOM     14  C   UNL     1       6.660  -5.274  24.663  0.00  0.00    +0.238 C 
ATOM     15  C   UNL     1       8.736  -4.013  24.632  0.00  0.00    +0.281 C 
ATOM     16  O   UNL     1       9.397  -5.044  24.766  0.00  0.00    -0.257 OA
ATOM     17  C   UNL     1       9.440  -2.721  24.333  0.00  0.00    +0.166 C 
ATOM     18  C   UNL     1       9.061  -0.869  26.016  0.00  0.00    +0.061 C 
ENDBRANCH   5   7
BRANCH   1  23
ATOM     19  C   UNL     1      11.695   5.071  23.633  0.00  0.00    +0.121 A 
ATOM     20  C   UNL     1      10.763   5.920  24.223  0.00  0.00    +0.045 A 
ATOM     21  C   UNL     1       9.471   5.465  24.479  0.00  0.00    +0.004 A 
ATOM     22  C   UNL     1       9.101   4.163  24.127  0.00  0.00    +0.009 A 
ATOM     23  C   UNL     1      10.024   3.282  23.540  0.00  0.00    -0.014 A 
ATOM     24  C   UNL     1      11.338   3.752  23.349  0.00  0.00    +0.054 A 
BRANCH  19  26
ATOM     25  C   UNL     1      13.292   5.608  21.992  0.00  0.00    +0.277 C 
ATOM     26  O   UNL     1      12.929   5.605  23.372  0.00  0.00    -0.495 OA
ENDBRANCH  19  26
ENDBRANCH   1  23
TORSDOF 3
ENDMDL
MODEL 2
REMARK VINA RESULT:      -7.4      1.545      2.063
REMARK  Name = 
REMARK  6 active torsions:
REMARK  status: ('A' for Active; 'I' for Inactive)
REMARK    1  A    between atoms: C_1  and  O_2
REMARK    2  A    between atoms: O_2  and  C_3
REMARK    3  A    between atoms: C_5  and  C_9
REMARK    4  A    between atoms: C_11  and  C_15
REMARK    5  A    between atoms: C_15  and  C_16
REMARK    6  A    between atoms: N_20  and  C_21
REMARK                            x       y       z     vdW  Elec       q    Type
REMARK                         _______ _______ _______ _____ _____    ______ ____
ROOT
ATOM      1  C   UNL     1       9.543   0.296  23.940  0.00  0.00    -0.017 A 
ATOM      2  C   UNL     1      10.332  -0.492  23.094  0.00  0.00    +0.008 A 
ATOM      3  C   UNL     1      10.202  -1.885  23.084  0.00  0.00    +0.001 A 
ATOM      4  C   UNL     1       9.286  -2.521  23.927  0.00  0.00    +0.007 A 
ATOM      5  C   UNL     1       8.480  -1.773  24.796  0.00  0.00    -0.004 A 
ATOM      6  C   UNL     1       8.617  -0.374  24.763  0.00  0.00    +0.016 A 
ENDROOT
BRANCH   5   7
ATOM      7  C   UNL     1       7.493  -2.431  25.786  0.00  0.00    +0.157 C 
ATOM      8  N   UNL     1       6.258  -2.792  25.089  0.00  0.00    -0.105 NA
ATOM      9  C   UNL     1       5.697  -3.938  25.167  0.00  0.00    +0.372 C 
ATOM     10  N   UNL     1       4.567  -4.096  24.426  0.00  0.00    -0.251 N 
ATOM     11  H   UNL     1       4.217  -3.196  24.108  0.00  0.00    +0.241 HD
ATOM     12  H   UNL     1       3.838  -4.673  24.820  0.00  0.00    +0.241 HD
ATOM     13  N   UNL     1       6.171  -4.964  25.942  0.00  0.00    -0.165 N 
ATOM     14  C   UNL     1       5.465  -6.236  26.003  0.00  0.00    +0.238 C 
ATOM     15  C   UNL     1       7.292  -4.810  26.728  0.00  0.00    +0.281 C 
ATOM     16  O   UNL     1       7.641  -5.637  27.572  0.00  0.00    -0.257 OA
ATOM     17  C   UNL     1       8.170  -3.622  26.456  0.00  0.00    +0.166 C 
ATOM     18  C   UNL     1       7.083  -1.366  26.825  0.00  0.00    +0.061 C 
ENDBRANCH   5   7
BRANCH   1  23
ATOM     19  C   UNL     1      10.973   3.785  23.517  0.00  0.00    +0.121 A 
ATOM     20  C   UNL     1       9.931   4.577  23.991  0.00  0.00    +0.045 A 
ATOM     21  C   UNL     1       8.779   3.980  24.500  0.00  0.00    +0.004 A 
ATOM     22  C   UNL     1       8.659   2.587  24.518  0.00  0.00    +0.009 A 
ATOM     23  C   UNL     1       9.698   1.764  24.057  0.00  0.00    -0.014 A 
ATOM     24  C   UNL     1      10.873   2.396  23.604  0.00  0.00    +0.054 A 
BRANCH  19  26
ATOM     25  C   UNL     1      12.455   5.599  23.728  0.00  0.00    +0.277 C 
ATOM     26  O   UNL     1      12.052   4.446  22.991  0.00  0.00    -0.495 OA
ENDBRANCH  19  26
ENDBRANCH   1  23
TORSDOF 3
ENDMDL
MODEL 3
REMARK VINA RESULT:      -7.3      3.850      5.856
REMARK  Name = 
REMARK  6 active torsions:
REMARK  status: ('A' for Active; 'I' for Inactive)
REMARK    1  A    between atoms: C_1  and  O_2
REMARK    2  A    between atoms: O_2  and  C_3
REMARK    3  A    between atoms: C_5  and  C_9
REMARK    4  A    between atoms: C_11  and  C_15
REMARK    5  A    between atoms: C_15  and  C_16
REMARK    6  A    between atoms: N_20  and  C_21
REMARK                            x       y       z     vdW  Elec       q    Type
REMARK                         _______ _______ _______ _____ _____    ______ ____
ROOT
ATOM      1  C   UNL     1       8.513  -3.060  23.942  0.00  0.00    -0.017 A 
ATOM      2  C   UNL     1       9.654  -3.628  24.522  0.00  0.00    +0.008 A 
ATOM      3  C   UNL     1       9.552  -4.744  25.359  0.00  0.00    +0.001 A 
ATOM      4  C   UNL     1       8.306  -5.311  25.642  0.00  0.00    +0.007 A 
ATOM      5  C   UNL     1       7.137  -4.773  25.089  0.00  0.00    -0.004 A 
ATOM      6  C   UNL     1       7.276  -3.667  24.231  0.00  0.00    +0.016 A 
ENDROOT
BRANCH   5   7
ATOM      7  C   UNL     1       5.733  -5.329  25.414  0.00  0.00    +0.157 C 
ATOM      8  N   UNL     1       5.837  -6.376  26.432  0.00  0.00    -0.105 NA
ATOM      9  C   UNL     1       5.115  -6.427  27.485  0.00  0.00    +0.372 C 
ATOM     10  N   UNL     1       5.374  -7.462  28.329  0.00  0.00    -0.251 N 
ATOM     11  H   UNL     1       5.947  -8.166  27.871  0.00  0.00    +0.241 HD
ATOM     12  H   UNL     1       4.586  -7.867  28.814  0.00  0.00    +0.241 HD
ATOM     13  N   UNL     1       4.129  -5.521  27.776  0.00  0.00    -0.165 N 
ATOM     14  C   UNL     1       3.328  -5.658  28.983  0.00  0.00    +0.238 C 
ATOM     15  C   UNL     1       3.827  -4.489  26.913  0.00  0.00    +0.281 C 
ATOM     16  O   UNL     1       2.836  -3.770  27.047  0.00  0.00    -0.257 OA
ATOM     17  C   UNL     1       4.820  -4.181  25.829  0.00  0.00    +0.166 C 
ATOM     18  C   UNL     1       5.198  -6.036  24.150  0.00  0.00    +0.061 C 
ENDBRANCH   5   7
BRANCH   1  23
ATOM     19  C   UNL     1       7.648   0.397  22.639  0.00  0.00    +0.121 A 
ATOM     20  C   UNL     1       8.721   0.657  21.792  0.00  0.00    +0.045 A 
ATOM     21  C   UNL     1       9.705  -0.311  21.598  0.00  0.00    +0.004 A 
ATOM     22  C   UNL     1       9.627  -1.536  22.267  0.00  0.00    +0.009 A 
ATOM     23  C   UNL     1       8.550  -1.829  23.120  0.00  0.00    -0.014 A 
ATOM     24  C   UNL     1       7.542  -0.854  23.248  0.00  0.00    +0.054 A 
BRANCH  19  26
ATOM     25  C   UNL     1       7.051   2.604  22.086  0.00  0.00    +0.277 C 
ATOM     26  O   UNL     1       6.747   1.415  22.813  0.00  0.00    -0.495 OA
ENDBRANCH  19  26
ENDBRANCH   1  23
TORSDOF 3
ENDMDL
MODEL 4
REMARK VINA RESULT:      -7.2      3.549      7.920
REMARK  Name = 
REMARK  6 active torsions:
REMARK  status: ('A' for Active; 'I' for Inactive)
REMARK    1  A    between atoms: C_1  and  O_2
REMARK    2  A    between atoms: O_2  and  C_3
REMARK    3  A    between atoms: C_5  and  C_9
REMARK    4  A    between atoms: C_11  and  C_15
REMARK    5  A    between atoms: C_15  and  C_16
REMARK    6  A    between atoms: N_20  and  C_21
REMARK                            x       y       z     vdW  Elec       q    Type
REMARK                         _______ _______ _______ _____ _____    ______ ____
ROOT
ATOM      1  C   UNL     1       7.618  -1.252  23.061  0.00  0.00    -0.017 A 
ATOM      2  C   UNL     1       8.496  -1.810  22.125  0.00  0.00    +0.008 A 
ATOM      3  C   UNL     1       9.594  -1.086  21.650  0.00  0.00    +0.001 A 
ATOM      4  C   UNL     1       9.834   0.218  22.095  0.00  0.00    +0.007 A 
ATOM      5  C   UNL     1       8.978   0.820  23.027  0.00  0.00    -0.004 A 
ATOM      6  C   UNL     1       7.898   0.056  23.503  0.00  0.00    +0.016 A 
ENDROOT
BRANCH   5   7
ATOM      7  C   UNL     1       9.168   2.276  23.507  0.00  0.00    +0.157 C 
ATOM      8  N   UNL     1       8.530   3.197  22.566  0.00  0.00    -0.105 NA
ATOM      9  C   UNL     1       7.737   4.139  22.908  0.00  0.00    +0.372 C 
ATOM     10  N   UNL     1       7.220   4.876  21.888  0.00  0.00    -0.251 N 
ATOM     11  H   UNL     1       7.733   4.709  21.026  0.00  0.00    +0.241 HD
ATOM     12  H   UNL     1       7.076   5.861  22.062  0.00  0.00    +0.241 HD
ATOM     13  N   UNL     1       7.409   4.422  24.207  0.00  0.00    -0.165 N 
ATOM     14  C   UNL     1       6.518   5.528  24.525  0.00  0.00    +0.238 C 
ATOM     15  C   UNL     1       7.953   3.710  25.255  0.00  0.00    +0.281 C 
ATOM     16  O   UNL     1       7.830   4.048  26.433  0.00  0.00    -0.257 OA
ATOM     17  C   UNL     1       8.634   2.411  24.929  0.00  0.00    +0.166 C 
ATOM     18  C   UNL     1      10.675   2.603  23.445  0.00  0.00    +0.061 C 
ENDBRANCH   5   7
BRANCH   1  23
ATOM     19  C   UNL     1       4.783  -3.764  23.271  0.00  0.00    +0.121 A 
ATOM     20  C   UNL     1       4.232  -3.467  24.514  0.00  0.00    +0.045 A 
ATOM     21  C   UNL     1       4.746  -2.413  25.268  0.00  0.00    +0.004 A 
ATOM     22  C   UNL     1       5.825  -1.665  24.788  0.00  0.00    +0.009 A 
ATOM     23  C   UNL     1       6.393  -1.937  23.533  0.00  0.00    -0.014 A 
ATOM     24  C   UNL     1       5.814  -2.969  22.769  0.00  0.00    +0.054 A 
BRANCH  19  26
ATOM     25  C   UNL     1       3.176  -5.482  23.293  0.00  0.00    +0.277 C 
ATOM     26  O   UNL     1       4.254  -4.842  22.611  0.00  0.00    -0.495 OA
ENDBRANCH  19  26
ENDBRANCH   1  23
TORSDOF 3
ENDMDL
MODEL 5
REMARK VINA RESULT:      -7.2      3.824      9.426
REMARK  Name = 
REMARK  6 active torsions:
REMARK  status: ('A' for Active; 'I' for Inactive)
REMARK    1  A    between atoms: C_1  and  O_2
REMARK    2  A    between atoms: O_2  and  C_3
REMARK    3  A    between atoms: C_5  and  C_9
REMARK    4  A    between atoms: C_11  and  C_15
REMARK    5  A    between atoms: C_15  and  C_16
REMARK    6  A    between atoms: N_20  and  C_21
REMARK                            x       y       z     vdW  Elec       q    Type
REMARK                         _______ _______ _______ _____ _____    ______ ____
ROOT
ATOM      1  C   UNL     1       5.468  -5.972  24.904  0.00  0.00    -0.017 A 
ATOM      2  C   UNL     1       5.300  -6.197  23.533  0.00  0.00    +0.008 A 
ATOM      3  C   UNL     1       6.243  -5.732  22.609  0.00  0.00    +0.001 A 
ATOM      4  C   UNL     1       7.371  -5.025  23.037  0.00  0.00    +0.007 A 
ATOM      5  C   UNL     1       7.578  -4.772  24.399  0.00  0.00    -0.004 A 
ATOM      6  C   UNL     1       6.625  -5.274  25.304  0.00  0.00    +0.016 A 
ENDROOT
BRANCH   5   7
ATOM      7  C   UNL     1       8.778  -3.949  24.917  0.00  0.00    +0.157 C 
ATOM      8  N   UNL     1       9.464  -3.309  23.793  0.00  0.00    -0.105 NA
ATOM      9  C   UNL     1       9.785  -2.073  23.758  0.00  0.00    +0.372 C 
ATOM     10  N   UNL     1      10.394  -1.653  22.616  0.00  0.00    -0.251 N 
ATOM     11  H   UNL     1      10.709  -2.447  22.063  0.00  0.00    +0.241 HD
ATOM     12  H   UNL     1      11.109  -0.946  22.712  0.00  0.00    +0.241 HD
ATOM     13  N   UNL     1       9.553  -1.198  24.785  0.00  0.00    -0.165 N 
ATOM     14  C   UNL     1       9.971   0.193  24.685  0.00  0.00    +0.238 C 
ATOM     15  C   UNL     1       8.971  -1.614  25.964  0.00  0.00    +0.281 C 
ATOM     16  O   UNL     1       8.915  -0.908  26.972  0.00  0.00    -0.257 OA
ATOM     17  C   UNL     1       8.292  -2.954  25.965  0.00  0.00    +0.166 C 
ATOM     18  C   UNL     1       9.804  -4.933  25.518  0.00  0.00    +0.061 C 
ENDBRANCH   5   7
BRANCH   1  23
ATOM     19  C   UNL     1       3.940  -6.914  28.247  0.00  0.00    +0.121 A 
ATOM     20  C   UNL     1       2.579  -6.841  27.967  0.00  0.00    +0.045 A 
ATOM     21  C   UNL     1       2.150  -6.536  26.676  0.00  0.00    +0.004 A 
ATOM     22  C   UNL     1       3.084  -6.285  25.665  0.00  0.00    +0.009 A 
ATOM     23  C   UNL     1       4.463  -6.363  25.918  0.00  0.00    -0.014 A 
ATOM     24  C   UNL     1       4.864  -6.732  27.217  0.00  0.00    +0.054 A 
BRANCH  19  26
ATOM     25  C   UNL     1       5.189  -6.230  30.119  0.00  0.00    +0.277 C 
ATOM     26  O   UNL     1       4.283  -7.173  29.548  0.00  0.00    -0.495 OA
ENDBRANCH  19  26
ENDBRANCH   1  23
TORSDOF 3
ENDMDL
MODEL 6
REMARK VINA RESULT:      -7.2      2.086      3.072
REMARK  Name = 
REMARK  6 active torsions:
REMARK  status: ('A' for Active; 'I' for Inactive)
REMARK    1  A    between atoms: C_1  and  O_2
REMARK    2  A    between atoms: O_2  and  C_3
REMARK    3  A    between atoms: C_5  and  C_9
REMARK    4  A    between atoms: C_11  and  C_15
REMARK    5  A    between atoms: C_15  and  C_16
REMARK    6  A    between atoms: N_20  and  C_21
REMARK                            x       y       z     vdW  Elec       q    Type
REMARK                         _______ _______ _______ _____ _____    ______ ____
ROOT
ATOM      1  C   UNL     1       8.822   0.662  23.697  0.00  0.00    -0.017 A 
ATOM      2  C   UNL     1       9.746   0.747  22.650  0.00  0.00    +0.008 A 
ATOM      3  C   UNL     1      10.067  -0.379  21.884  0.00  0.00    +0.001 A 
ATOM      4  C   UNL     1       9.478  -1.618  22.156  0.00  0.00    +0.007 A 
ATOM      5  C   UNL     1       8.552  -1.751  23.198  0.00  0.00    -0.004 A 
ATOM      6  C   UNL     1       8.231  -0.595  23.933  0.00  0.00    +0.016 A 
ENDROOT
BRANCH   5   7
ATOM      7  C   UNL     1       7.915  -3.108  23.574  0.00  0.00    +0.157 C 
ATOM      8  N   UNL     1       8.941  -4.012  24.094  0.00  0.00    -0.105 NA
ATOM      9  C   UNL     1       8.828  -4.680  25.177  0.00  0.00    +0.372 C 
ATOM     10  N   UNL     1       9.899  -5.448  25.513  0.00  0.00    -0.251 N 
ATOM     11  H   UNL     1      10.531  -5.550  24.723  0.00  0.00    +0.241 HD
ATOM     12  H   UNL     1       9.706  -6.331  25.964  0.00  0.00    +0.241 HD
ATOM     13  N   UNL     1       7.712  -4.654  25.972  0.00  0.00    -0.165 N 
ATOM     14  C   UNL     1       7.643  -5.463  27.181  0.00  0.00    +0.238 C 
ATOM     15  C   UNL     1       6.603  -3.912  25.628  0.00  0.00    +0.281 C 
ATOM     16  O   UNL     1       5.523  -4.006  26.213  0.00  0.00    -0.257 OA
ATOM     17  C   UNL     1       6.772  -2.873  24.555  0.00  0.00    +0.166 C 
ATOM     18  C   UNL     1       7.405  -3.768  22.274  0.00  0.00    +0.061 C 
ENDBRANCH   5   7
BRANCH   1  23
ATOM     19  C   UNL     1       8.625   4.201  25.050  0.00  0.00    +0.121 A 
ATOM     20  C   UNL     1       7.723   4.053  26.099  0.00  0.00    +0.045 A 
ATOM     21  C   UNL     1       7.214   2.793  26.407  0.00  0.00    +0.004 A 
ATOM     22  C   UNL     1       7.592   1.678  25.652  0.00  0.00    +0.009 A 
ATOM     23  C   UNL     1       8.509   1.797  24.595  0.00  0.00    -0.014 A 
ATOM     24  C   UNL     1       9.050   3.074  24.347  0.00  0.00    +0.054 A 
BRANCH  19  26
ATOM     25  C   UNL     1      10.155   5.558  23.888  0.00  0.00    +0.277 C 
ATOM     26  O   UNL     1       9.044   5.478  24.780  0.00  0.00    -0.495 OA
ENDBRANCH  19  26
ENDBRANCH   1  23
TORSDOF 3
ENDMDL
MODEL 7
REMARK VINA RESULT:      -7.1      2.860      8.395
REMARK  Name = 
REMARK  6 active torsions:
REMARK  status: ('A' for Active; 'I' for Inactive)
REMARK    1  A    between atoms: C_1  and  O_2
REMARK    2  A    between atoms: O_2  and  C_3
REMARK    3  A    between atoms: C_5  and  C_9
REMARK    4  A    between atoms: C_11  and  C_15
REMARK    5  A    between atoms: C_15  and  C_16
REMARK    6  A    between atoms: N_20  and  C_21
REMARK                            x       y       z     vdW  Elec       q    Type
REMARK                         _______ _______ _______ _____ _____    ______ ____
ROOT
ATOM      1  C   UNL     1       7.558  -2.457  24.275  0.00  0.00    -0.017 A 
ATOM      2  C   UNL     1       7.987  -2.441  25.608  0.00  0.00    +0.008 A 
ATOM      3  C   UNL     1       8.667  -1.336  26.129  0.00  0.00    +0.001 A 
ATOM      4  C   UNL     1       8.940  -0.224  25.327  0.00  0.00    +0.007 A 
ATOM      5  C   UNL     1       8.535  -0.198  23.986  0.00  0.00    -0.004 A 
ATOM      6  C   UNL     1       7.832  -1.314  23.499  0.00  0.00    +0.016 A 
ENDROOT
BRANCH   5   7
ATOM      7  C   UNL     1       8.861   0.983  23.043  0.00  0.00    +0.157 C 
ATOM      8  N   UNL     1       7.622   1.544  22.503  0.00  0.00    -0.105 NA
ATOM      9  C   UNL     1       7.340   2.790  22.498  0.00  0.00    +0.372 C 
ATOM     10  N   UNL     1       6.127   3.120  21.976  0.00  0.00    -0.251 N 
ATOM     11  H   UNL     1       5.734   2.340  21.458  0.00  0.00    +0.241 HD
ATOM     12  H   UNL     1       6.071   3.988  21.463  0.00  0.00    +0.241 HD
ATOM     13  N   UNL     1       8.182   3.761  22.971  0.00  0.00    -0.165 N 
ATOM     14  C   UNL     1       7.806   5.166  22.909  0.00  0.00    +0.238 C 
ATOM     15  C   UNL     1       9.430   3.449  23.468  0.00  0.00    +0.281 C 
ATOM     16  O   UNL     1      10.282   4.299  23.729  0.00  0.00    -0.257 OA
ATOM     17  C   UNL     1       9.704   2.008  23.794  0.00  0.00    +0.166 C 
ATOM     18  C   UNL     1       9.623   0.420  21.825  0.00  0.00    +0.061 C 
ENDBRANCH   5   7
BRANCH   1  23
ATOM     19  C   UNL     1       4.861  -4.759  22.924  0.00  0.00    +0.121 A 
ATOM     20  C   UNL     1       5.614  -5.695  22.222  0.00  0.00    +0.045 A 
ATOM     21  C   UNL     1       7.005  -5.615  22.228  0.00  0.00    +0.004 A 
ATOM     22  C   UNL     1       7.647  -4.584  22.922  0.00  0.00    +0.009 A 
ATOM     23  C   UNL     1       6.913  -3.632  23.646  0.00  0.00    -0.014 A 
ATOM     24  C   UNL     1       5.511  -3.775  23.670  0.00  0.00    +0.054 A 
BRANCH  19  26
ATOM     25  C   UNL     1       2.999  -6.184  23.113  0.00  0.00    +0.277 C 
ATOM     26  O   UNL     1       3.499  -4.877  22.832  0.00  0.00    -0.495 OA
ENDBRANCH  19  26
ENDBRANCH   1  23
TORSDOF 3
ENDMDL
MODEL 8
REMARK VINA RESULT:      -7.0      3.350      8.121
REMARK  Name = 
REMARK  6 active torsions:
REMARK  status: ('A' for Active; 'I' for Inactive)
REMARK    1  A    between atoms: C_1  and  O_2
REMARK    2  A    between atoms: O_2  and  C_3
REMARK    3  A    between atoms: C_5  and  C_9
REMARK    4  A    between atoms: C_11  and  C_15
REMARK    5  A    between atoms: C_15  and  C_16
REMARK    6  A    between atoms: N_20  and  C_21
REMARK                            x       y       z     vdW  Elec       q    Type
REMARK                         _______ _______ _______ _____ _____    ______ ____
ROOT
ATOM      1  C   UNL     1       8.381  -1.474  23.056  0.00  0.00    -0.017 A 
ATOM      2  C   UNL     1       9.257  -1.451  21.964  0.00  0.00    +0.008 A 
ATOM      3  C   UNL     1       9.801  -0.246  21.506  0.00  0.00    +0.001 A 
ATOM      4  C   UNL     1       9.473   0.964  22.124  0.00  0.00    +0.007 A 
ATOM      5  C   UNL     1       8.596   0.991  23.216  0.00  0.00    -0.004 A 
ATOM      6  C   UNL     1       8.087  -0.240  23.668  0.00  0.00    +0.016 A 
ENDROOT
BRANCH   5   7
ATOM      7  C   UNL     1       8.160   2.307  23.898  0.00  0.00    +0.157 C 
ATOM      8  N   UNL     1       9.278   3.251  23.916  0.00  0.00    -0.105 NA
ATOM      9  C   UNL     1       9.195   4.470  23.542  0.00  0.00    +0.372 C 
ATOM     10  N   UNL     1      10.349   5.188  23.606  0.00  0.00    -0.251 N 
ATOM     11  H   UNL     1      11.045   4.702  24.165  0.00  0.00    +0.241 HD
ATOM     12  H   UNL     1      10.268   6.163  23.858  0.00  0.00    +0.241 HD
ATOM     13  N   UNL     1       8.035   5.053  23.105  0.00  0.00    -0.165 N 
ATOM     14  C   UNL     1       8.009   6.456  22.718  0.00  0.00    +0.238 C 
ATOM     15  C   UNL     1       6.849   4.351  23.070  0.00  0.00    +0.281 C 
ATOM     16  O   UNL     1       5.758   4.885  22.861  0.00  0.00    -0.257 OA
ATOM     17  C   UNL     1       6.926   2.856  23.191  0.00  0.00    +0.166 C 
ATOM     18  C   UNL     1       7.860   1.996  25.380  0.00  0.00    +0.061 C 
ENDBRANCH   5   7
BRANCH   1  23
ATOM     19  C   UNL     1       7.017  -5.014  23.093  0.00  0.00    +0.121 A 
ATOM     20  C   UNL     1       6.692  -5.178  24.436  0.00  0.00    +0.045 A 
ATOM     21  C   UNL     1       6.865  -4.121  25.328  0.00  0.00    +0.004 A 
ATOM     22  C   UNL     1       7.382  -2.901  24.880  0.00  0.00    +0.009 A 
ATOM     23  C   UNL     1       7.709  -2.705  23.529  0.00  0.00    -0.014 A 
ATOM     24  C   UNL     1       7.467  -3.772  22.642  0.00  0.00    +0.054 A 
BRANCH  19  26
ATOM     25  C   UNL     1       6.205  -5.850  21.050  0.00  0.00    +0.277 C 
ATOM     26  O   UNL     1       6.863  -6.113  22.289  0.00  0.00    -0.495 OA
ENDBRANCH  19  26
ENDBRANCH   1  23
TORSDOF 3
ENDMDL
MODEL 9
REMARK VINA RESULT:      -7.0      3.480      4.429
REMARK  Name = 
REMARK  6 active torsions:
REMARK  status: ('A' for Active; 'I' for Inactive)
REMARK    1  A    between atoms: C_1  and  O_2
REMARK    2  A    between atoms: O_2  and  C_3
REMARK    3  A    between atoms: C_5  and  C_9
REMARK    4  A    between atoms: C_11  and  C_15
REMARK    5  A    between atoms: C_15  and  C_16
REMARK    6  A    between atoms: N_20  and  C_21
REMARK                            x       y       z     vdW  Elec       q    Type
REMARK                         _______ _______ _______ _____ _____    ______ ____
ROOT
ATOM      1  C   UNL     1       8.183   0.336  22.527  0.00  0.00    -0.017 A 
ATOM      2  C   UNL     1       9.536   0.366  22.171  0.00  0.00    +0.008 A 
ATOM      3  C   UNL     1      10.309  -0.800  22.193  0.00  0.00    +0.001 A 
ATOM      4  C   UNL     1       9.747  -2.021  22.579  0.00  0.00    +0.007 A 
ATOM      5  C   UNL     1       8.398  -2.097  22.949  0.00  0.00    -0.004 A 
ATOM      6  C   UNL     1       7.642  -0.912  22.893  0.00  0.00    +0.016 A 
ENDROOT
BRANCH   5   7
ATOM      7  C   UNL     1       7.744  -3.410  23.436  0.00  0.00    +0.157 C 
ATOM      8  N   UNL     1       8.766  -4.295  23.997  0.00  0.00    -0.105 NA
ATOM      9  C   UNL     1       8.666  -4.880  25.129  0.00  0.00    +0.372 C 
ATOM     10  N   UNL     1       9.730  -5.644  25.496  0.00  0.00    -0.251 N 
ATOM     11  H   UNL     1      10.341  -5.816  24.701  0.00  0.00    +0.241 HD
ATOM     12  H   UNL     1       9.531  -6.488  26.014  0.00  0.00    +0.241 HD
ATOM     13  N   UNL     1       7.570  -4.775  25.945  0.00  0.00    -0.165 N 
ATOM     14  C   UNL     1       7.515  -5.492  27.210  0.00  0.00    +0.238 C 
ATOM     15  C   UNL     1       6.468  -4.036  25.572  0.00  0.00    +0.281 C 
ATOM     16  O   UNL     1       5.400  -4.066  26.186  0.00  0.00    -0.257 OA
ATOM     17  C   UNL     1       6.630  -3.081  24.424  0.00  0.00    +0.166 C 
ATOM     18  C   UNL     1       7.192  -4.151  22.200  0.00  0.00    +0.061 C 
ENDBRANCH   5   7
BRANCH   1  23
ATOM     19  C   UNL     1       5.482   2.745  23.667  0.00  0.00    +0.121 A 
ATOM     20  C   UNL     1       5.858   3.918  23.019  0.00  0.00    +0.045 A 
ATOM     21  C   UNL     1       6.961   3.920  22.166  0.00  0.00    +0.004 A 
ATOM     22  C   UNL     1       7.703   2.750  21.974  0.00  0.00    +0.009 A 
ATOM     23  C   UNL     1       7.340   1.550  22.607  0.00  0.00    -0.014 A 
ATOM     24  C   UNL     1       6.186   1.566  23.415  0.00  0.00    +0.054 A 
BRANCH  19  26
ATOM     25  C   UNL     1       4.512   1.997  25.675  0.00  0.00    +0.277 C 
ATOM     26  O   UNL     1       4.416   2.835  24.523  0.00  0.00    -0.495 OA
ENDBRANCH  19  26
ENDBRANCH   1  23
TORSDOF 3
ENDMDL
