MODEL 1
REMARK VINA RESULT:      40.8      0.000      0.000
REMARK  Name = 
REMARK  31 active torsions:
REMARK  status: ('A' for Active; 'I' for Inactive)
REMARK    1  A    between atoms: C_1  and  C_2
REMARK    2  A    between atoms: C_2  and  C_3
REMARK    3  A    between atoms: C_3  and  C_4
REMARK    4  A    between atoms: C_4  and  C_5
REMARK    5  A    between atoms: C_5  and  O_6
REMARK    6  A    between atoms: O_6  and  C_7
REMARK    7  A    between atoms: C_10  and  C_13
REMARK    8  A    between atoms: C_15  and  C_18
REMARK    9  A    between atoms: C_21  and  C_24
REMARK   10  A    between atoms: N_26  and  C_27
REMARK   11  A    between atoms: C_30  and  O_32
REMARK   12  A    between atoms: C_33  and  O_35
REMARK   13  A    between atoms: C_41  and  O_43
REMARK   14  A    between atoms: C_44  and  C_46
REMARK   15  A    between atoms: C_51  and  C_98
REMARK   16  A    between atoms: C_56  and  C_80
REMARK   17  A    between atoms: C_64  and  O_66
REMARK   18  A    between atoms: C_71  and  C_76
REMARK   19  A    between atoms: C_76  and  C_78
REMARK   20  A    between atoms: C_76  and  O_79
REMARK   21  A    between atoms: C_80  and  O_82
REMARK   22  A    between atoms: C_80  and  C_83
REMARK   23  A    between atoms: C_83  and  O_85
REMARK   24  A    between atoms: C_83  and  C_86
REMARK   25  A    between atoms: C_88  and  O_89
REMARK   26  A    between atoms: O_89  and  S_90
REMARK   27  A    between atoms: S_90  and  O_91
REMARK   28  A    between atoms: C_94  and  O_95
REMARK   29  A    between atoms: C_98  and  O_100
REMARK   30  A    between atoms: C_98  and  C_101
REMARK   31  A    between atoms: C_101  and  C_102
REMARK                            x       y       z     vdW  Elec       q    Type
REMARK                         _______ _______ _______ _____ _____    ______ ____
ROOT
ATOM      1  C   UNL     1       8.058   2.139  26.524  0.00  0.00    +0.162 C 
ATOM      2  C   UNL     1       6.549   2.772  26.208  0.00  0.00    +0.234 C 
ATOM      3  O   UNL     1       6.409   3.390  25.136  0.00  0.00    -0.274 OA
ATOM      4  N   UNL     1       5.329   2.569  26.851  0.00  0.00    -0.300 N 
ATOM      5  H   UNL     1       4.724   2.513  26.039  0.00  0.00    +0.150 HD
ATOM      6  C   UNL     1       4.490   1.919  27.981  0.00  0.00    +0.187 C 
ATOM      7  C   UNL     1       2.933   2.377  28.211  0.00  0.00    +0.239 C 
ATOM      8  O   UNL     1       2.374   2.134  29.296  0.00  0.00    -0.273 OA
ATOM      9  N   UNL     1       2.070   2.646  27.180  0.00  0.00    -0.286 N 
ATOM     10  C   UNL     1       1.379   1.615  26.368  0.00  0.00    +0.164 C 
ATOM     11  C   UNL     1       2.076   1.813  25.022  0.00  0.00    +0.065 C 
ATOM     12  C   UNL     1       2.125   3.349  24.920  0.00  0.00    +0.134 C 
ATOM     13  C   UNL     1       1.119   0.127  26.770  0.00  0.00    +0.234 C 
ATOM     14  O   UNL     1       0.466  -0.635  26.080  0.00  0.00    -0.274 OA
ATOM     15  N   UNL     1       1.736  -0.286  27.930  0.00  0.00    -0.300 N 
ATOM     16  H   UNL     1       2.453   0.337  28.248  0.00  0.00    +0.150 HD
ATOM     17  C   UNL     1       2.168  -1.663  28.146  0.00  0.00    +0.190 C 
ATOM     18  C   UNL     1       2.945  -2.051  26.890  0.00  0.00    +0.237 C 
ATOM     19  O   UNL     1       3.765  -1.250  26.438  0.00  0.00    -0.274 OA
ATOM     20  N   UNL     1       2.643  -3.227  26.300  0.00  0.00    -0.300 N 
ATOM     21  H   UNL     1       1.659  -3.253  26.029  0.00  0.00    +0.150 HD
ATOM     22  C   UNL     1       3.528  -3.988  25.416  0.00  0.00    +0.188 C 
ATOM     23  C   UNL     1       3.907  -5.311  26.111  0.00  0.00    +0.239 C 
ATOM     24  O   UNL     1       3.404  -6.330  25.598  0.00  0.00    -0.273 OA
ATOM     25  N   UNL     1       4.728  -5.497  27.218  0.00  0.00    -0.285 N 
ATOM     26  C   UNL     1       5.289  -4.618  28.291  0.00  0.00    +0.191 C 
ATOM     27  C   UNL     1       6.076  -5.634  29.173  0.00  0.00    +0.148 C 
ATOM     28  C   UNL     1       4.956  -6.679  29.286  0.00  0.00    +0.034 C 
ATOM     29  C   UNL     1       5.172  -7.971  30.040  0.00  0.00    +0.012 C 
ATOM     30  C   UNL     1       5.889  -3.220  28.178  0.00  0.00    +0.238 C 
ATOM     31  O   UNL     1       5.137  -2.301  28.549  0.00  0.00    -0.274 OA
ATOM     32  N   UNL     1       7.124  -2.895  27.628  0.00  0.00    -0.287 N 
ATOM     33  H   UNL     1       7.918  -3.316  28.093  0.00  0.00    +0.151 HD
ATOM     34  C   UNL     1       7.220  -1.471  27.403  0.00  0.00    +0.231 C 
ATOM     35  C   UNL     1       8.386  -0.681  26.720  0.00  0.00    +0.163 C 
ATOM     36  C   UNL     1       4.589  -6.841  27.815  0.00  0.00    +0.114 C 
ATOM     37  C   UNL     1       2.286   3.828  26.369  0.00  0.00    +0.140 C 
ATOM     38  C   UNL     1       7.700   0.680  26.404  0.00  0.00    +0.067 C 
ENDROOT
BRANCH   1  40
ATOM     39  C   UNL     1       9.460   3.899  25.095  0.00  0.00    +0.245 C 
ATOM     40  N   UNL     1       9.223   2.615  25.628  0.00  0.00    -0.300 N 
ATOM     41  H   UNL     1       9.855   1.882  25.324  0.00  0.00    +0.150 HD
ATOM     42  O   UNL     1       8.856   4.898  25.477  0.00  0.00    -0.270 OA
BRANCH  39  46
ATOM     43  C   UNL     1      12.457   4.581  21.875  0.00  0.00    +0.004 A 
ATOM     44  C   UNL     1      11.066   4.618  21.639  0.00  0.00    +0.011 A 
ATOM     45  C   UNL     1      10.106   4.367  22.663  0.00  0.00    +0.014 A 
ATOM     46  C   UNL     1      10.489   4.086  23.967  0.00  0.00    +0.037 A 
ATOM     47  C   UNL     1      11.886   4.143  24.226  0.00  0.00    +0.014 A 
ATOM     48  C   UNL     1      12.849   4.387  23.205  0.00  0.00    +0.011 A 
BRANCH  43  52
ATOM     49  C   UNL     1      14.656   4.319  18.894  0.00  0.00    +0.168 A 
ATOM     50  O   UNL     1      14.559   5.651  19.140  0.00  0.00    -0.354 OA
ATOM     51  N   UNL     1      13.809   5.881  20.277  0.00  0.00    -0.078 NA
ATOM     52  C   UNL     1      13.422   4.679  20.741  0.00  0.00    +0.114 A 
ATOM     53  C   UNL     1      14.008   3.653  19.924  0.00  0.00    +0.081 A 
BRANCH  49  57
ATOM     54  C   UNL     1      16.769   3.160  15.308  0.00  0.00    +0.121 A 
ATOM     55  C   UNL     1      16.053   4.363  15.361  0.00  0.00    +0.046 A 
ATOM     56  C   UNL     1      15.359   4.757  16.520  0.00  0.00    +0.015 A 
ATOM     57  C   UNL     1      15.370   3.943  17.653  0.00  0.00    +0.020 A 
ATOM     58  C   UNL     1      16.081   2.744  17.600  0.00  0.00    +0.015 A 
ATOM     59  C   UNL     1      16.790   2.348  16.436  0.00  0.00    +0.046 A 
BRANCH  54  60
ATOM     60  O   UNL     1      17.403   2.878  14.123  0.00  0.00    -0.492 OA
BRANCH  60  61
ATOM     61  C   UNL     1      16.720   3.276  12.930  0.00  0.00    +0.229 C 
BRANCH  61  62
ATOM     62  C   UNL     1      16.899   4.776  12.696  0.00  0.00    +0.041 C 
BRANCH  62  63
ATOM     63  C   UNL     1      18.372   5.172  12.596  0.00  0.00    +0.003 C 
BRANCH  63  65
ATOM     64  C   UNL     1      19.987   7.096  12.526  0.00  0.00    +0.004 C 
ATOM     65  C   UNL     1      18.565   6.667  12.848  0.00  0.00    -0.003 C 
ENDBRANCH  63  65
ENDBRANCH  62  63
ENDBRANCH  61  62
ENDBRANCH  60  61
ENDBRANCH  54  60
ENDBRANCH  49  57
ENDBRANCH  43  52
ENDBRANCH  39  46
ENDBRANCH   1  40
BRANCH  35  66
ATOM     66  O   UNL     1       9.561  -0.553  27.486  0.00  0.00    -0.387 OA
ATOM     67  H   UNL     1      10.033   0.193  27.049  0.00  0.00    +0.210 HD
ENDBRANCH  35  66
BRANCH  34  68
ATOM     68  O   UNL     1       6.182  -1.249  26.452  0.00  0.00    -0.372 OA
ATOM     69  H   UNL     1       6.265  -0.321  26.146  0.00  0.00    +0.212 HD
ENDBRANCH  34  68
BRANCH  27  70
ATOM     70  O   UNL     1       6.471  -5.164  30.445  0.00  0.00    -0.389 OA
ATOM     71  H   UNL     1       7.061  -4.398  30.306  0.00  0.00    +0.210 HD
ENDBRANCH  27  70
BRANCH  12  72
ATOM     72  O   UNL     1       0.914   3.840  24.344  0.00  0.00    -0.390 OA
ATOM     73  H   UNL     1       0.739   4.741  24.670  0.00  0.00    +0.210 HD
ENDBRANCH  12  72
BRANCH   6  74
ATOM     74  C   UNL     1       5.027   1.711  29.440  0.00  0.00    +0.141 C 
ATOM     75  C   UNL     1       4.685   0.376  30.149  0.00  0.00    +0.040 C 
BRANCH  74  76
ATOM     76  O   UNL     1       6.477   1.757  29.379  0.00  0.00    -0.390 OA
ATOM     77  H   UNL     1       6.786   0.908  28.981  0.00  0.00    +0.210 HD
ENDBRANCH  74  76
ENDBRANCH   6  74
BRANCH  17  78
ATOM     78  C   UNL     1       1.287  -2.640  28.952  0.00  0.00    +0.176 C 
BRANCH  78  79
ATOM     79  O   UNL     1       2.047  -3.335  29.941  0.00  0.00    -0.387 OA
ATOM     80  H   UNL     1       1.814  -2.923  30.797  0.00  0.00    +0.210 HD
ENDBRANCH  78  79
BRANCH  78  81
ATOM     81  C   UNL     1       0.594  -3.620  27.953  0.00  0.00    +0.175 C 
BRANCH  81  82
ATOM     82  C   UNL     1       0.735  -5.123  28.071  0.00  0.00    -0.013 A 
ATOM     83  C   UNL     1       0.956  -5.820  29.265  0.00  0.00    +0.010 A 
ATOM     84  C   UNL     1       1.062  -7.218  29.256  0.00  0.00    +0.049 A 
ATOM     85  C   UNL     1       0.916  -7.926  28.066  0.00  0.00    +0.161 A 
ATOM     86  C   UNL     1       0.655  -7.254  26.869  0.00  0.00    +0.200 A 
ATOM     87  C   UNL     1       0.608  -5.866  26.880  0.00  0.00    +0.058 A 
BRANCH  85  88
ATOM     88  O   UNL     1       1.012  -9.289  28.109  0.00  0.00    -0.503 OA
ATOM     89  H   UNL     1       1.948  -9.509  28.268  0.00  0.00    +0.292 HD
ENDBRANCH  85  88
BRANCH  86  90
ATOM     90  O   UNL     1       0.461  -8.028  25.750  0.00  0.00    -0.321 OA
BRANCH  90  91
ATOM     91  S   UNL     1       1.707  -8.807  25.053  0.00  0.00    +0.251 S 
ATOM     92  O   UNL     1       1.442 -10.236  25.051  0.00  0.00    -0.108 OA
ATOM     93  O   UNL     1       2.958  -8.276  25.539  0.00  0.00    -0.108 OA
BRANCH  91  94
ATOM     94  O   UNL     1       1.644  -8.315  23.519  0.00  0.00    -0.222 OA
ATOM     95  H   UNL     1       2.215  -8.930  23.012  0.00  0.00    +0.248 HD
ENDBRANCH  91  94
ENDBRANCH  90  91
ENDBRANCH  86  90
ENDBRANCH  81  82
BRANCH  81  96
ATOM     96  O   UNL     1       1.039  -3.308  26.624  0.00  0.00    -0.385 OA
ATOM     97  H   UNL     1       1.185  -4.163  26.175  0.00  0.00    +0.210 HD
ENDBRANCH  81  96
ENDBRANCH  78  81
ENDBRANCH  17  78
BRANCH  22  98
ATOM     98  C   UNL     1       4.640  -3.286  24.606  0.00  0.00    +0.152 C 
BRANCH  98  99
ATOM     99  O   UNL     1       4.008  -2.513  23.565  0.00  0.00    -0.389 OA
ATOM    100  H   UNL     1       4.666  -2.325  22.872  0.00  0.00    +0.210 HD
ENDBRANCH  98  99
BRANCH  98 101
ATOM    101  C   UNL     1       5.599  -4.279  23.942  0.00  0.00    +0.129 C 
BRANCH 101 102
ATOM    102  C   UNL     1       6.775  -4.775  24.769  0.00  0.00    +0.213 C 
ATOM    103  O   UNL     1       6.798  -5.905  25.244  0.00  0.00    -0.276 OA
ATOM    104  N   UNL     1       7.824  -3.933  24.995  0.00  0.00    -0.329 N 
ATOM    105  H   UNL     1       8.537  -4.288  25.624  0.00  0.00    +0.145 HD
ATOM    106  H   UNL     1       7.759  -2.921  24.918  0.00  0.00    +0.145 HD
ENDBRANCH 101 102
ENDBRANCH  98 101
ENDBRANCH  22  98
TORSDOF 28
ENDMDL
