MODEL 1
REMARK VINA RESULT:      -6.8      0.000      0.000
REMARK  Name = 
REMARK  5 active torsions:
REMARK  status: ('A' for Active; 'I' for Inactive)
REMARK    1  A    between atoms: C_1  and  C_2
REMARK    2  A    between atoms: C_4  and  C_5
REMARK    3  A    between atoms: N_8  and  S_9
REMARK    4  A    between atoms: S_9  and  C_12
REMARK    5  A    between atoms: C_15  and  N_16
REMARK                            x       y       z     vdW  Elec       q    Type
REMARK                         _______ _______ _______ _____ _____    ______ ____
ROOT
ATOM      1  S   UNL     1       9.295  -1.721  23.129  0.00  0.00    +0.075 S 
ATOM      2  O   UNL     1       9.823  -2.210  21.875  0.00  0.00    -0.150 OA
ATOM      3  O   UNL     1       9.762  -2.271  24.388  0.00  0.00    -0.150 OA
ENDROOT
BRANCH   1   8
ATOM      4  C   UNL     1       6.226  -5.765  20.867  0.00  0.00    +0.066 C 
ATOM      5  C   UNL     1       6.451  -5.028  22.154  0.00  0.00    +0.044 A 
ATOM      6  N   UNL     1       6.901  -3.757  22.069  0.00  0.00    -0.219 NA
ATOM      7  C   UNL     1       7.144  -3.153  23.235  0.00  0.00    +0.235 A 
ATOM      8  N   UNL     1       7.622  -1.846  23.166  0.00  0.00    -0.184 N 
ATOM      9  H   UNL     1       7.201  -1.341  22.395  0.00  0.00    +0.177 HD
ATOM     10  N   UNL     1       6.955  -3.657  24.453  0.00  0.00    -0.219 NA
ATOM     11  C   UNL     1       6.476  -4.912  24.507  0.00  0.00    +0.044 A 
ATOM     12  C   UNL     1       6.229  -5.477  25.873  0.00  0.00    +0.066 C 
ATOM     13  C   UNL     1       6.210  -5.648  23.368  0.00  0.00    +0.046 A 
ENDBRANCH   1   8
BRANCH   1  14
ATOM     14  C   UNL     1       9.613   0.032  23.202  0.00  0.00    +0.109 A 
ATOM     15  C   UNL     1       9.475   0.712  24.415  0.00  0.00    +0.030 A 
ATOM     16  C   UNL     1       9.697   2.092  24.462  0.00  0.00    +0.024 A 
ATOM     17  C   UNL     1      10.072   2.798  23.315  0.00  0.00    +0.025 A 
ATOM     18  C   UNL     1      10.103   2.122  22.090  0.00  0.00    +0.024 A 
ATOM     19  C   UNL     1       9.895   0.738  22.029  0.00  0.00    +0.030 A 
BRANCH  17  20
ATOM     20  N   UNL     1      10.181   4.192  23.351  0.00  0.00    -0.358 N 
ATOM     21  H   UNL     1      10.850   4.570  22.688  0.00  0.00    +0.142 HD
ATOM     22  H   UNL     1       9.289   4.676  23.313  0.00  0.00    +0.142 HD
ENDBRANCH  17  20
ENDBRANCH   1  14
TORSDOF 3
ENDMDL
MODEL 2
REMARK VINA RESULT:      -6.7      1.423      1.615
REMARK  Name = 
REMARK  5 active torsions:
REMARK  status: ('A' for Active; 'I' for Inactive)
REMARK    1  A    between atoms: C_1  and  C_2
REMARK    2  A    between atoms: C_4  and  C_5
REMARK    3  A    between atoms: N_8  and  S_9
REMARK    4  A    between atoms: S_9  and  C_12
REMARK    5  A    between atoms: C_15  and  N_16
REMARK                            x       y       z     vdW  Elec       q    Type
REMARK                         _______ _______ _______ _____ _____    ______ ____
ROOT
ATOM      1  S   UNL     1       8.608  -2.344  24.851  0.00  0.00    +0.075 S 
ATOM      2  O   UNL     1       9.295  -3.527  24.383  0.00  0.00    -0.150 OA
ATOM      3  O   UNL     1       8.696  -1.944  26.242  0.00  0.00    -0.150 OA
ENDROOT
BRANCH   1   8
ATOM      4  C   UNL     1       6.187  -5.623  21.073  0.00  0.00    +0.066 C 
ATOM      5  C   UNL     1       6.113  -5.226  22.518  0.00  0.00    +0.044 A 
ATOM      6  N   UNL     1       6.543  -3.987  22.841  0.00  0.00    -0.219 NA
ATOM      7  C   UNL     1       6.516  -3.690  24.143  0.00  0.00    +0.235 A 
ATOM      8  N   UNL     1       6.969  -2.420  24.497  0.00  0.00    -0.184 N 
ATOM      9  H   UNL     1       6.713  -1.731  23.799  0.00  0.00    +0.177 HD
ATOM     10  N   UNL     1       6.080  -4.467  25.134  0.00  0.00    -0.219 NA
ATOM     11  C   UNL     1       5.628  -5.682  24.778  0.00  0.00    +0.044 A 
ATOM     12  C   UNL     1       5.105  -6.551  25.881  0.00  0.00    +0.066 C 
ATOM     13  C   UNL     1       5.629  -6.112  23.464  0.00  0.00    +0.046 A 
ENDBRANCH   1   8
BRANCH   1  14
ATOM     14  C   UNL     1       9.206  -0.961  23.895  0.00  0.00    +0.109 A 
ATOM     15  C   UNL     1       9.896   0.075  24.531  0.00  0.00    +0.030 A 
ATOM     16  C   UNL     1      10.337   1.172  23.784  0.00  0.00    +0.024 A 
ATOM     17  C   UNL     1      10.113   1.237  22.406  0.00  0.00    +0.025 A 
ATOM     18  C   UNL     1       9.331   0.245  21.804  0.00  0.00    +0.024 A 
ATOM     19  C   UNL     1       8.891  -0.865  22.537  0.00  0.00    +0.030 A 
BRANCH  17  20
ATOM     20  N   UNL     1      10.460   2.389  21.691  0.00  0.00    -0.358 N 
ATOM     21  H   UNL     1      11.070   2.213  20.899  0.00  0.00    +0.142 HD
ATOM     22  H   UNL     1       9.668   2.973  21.442  0.00  0.00    +0.142 HD
ENDBRANCH  17  20
ENDBRANCH   1  14
TORSDOF 3
ENDMDL
MODEL 3
REMARK VINA RESULT:      -6.7      2.246      3.155
REMARK  Name = 
REMARK  5 active torsions:
REMARK  status: ('A' for Active; 'I' for Inactive)
REMARK    1  A    between atoms: C_1  and  C_2
REMARK    2  A    between atoms: C_4  and  C_5
REMARK    3  A    between atoms: N_8  and  S_9
REMARK    4  A    between atoms: S_9  and  C_12
REMARK    5  A    between atoms: C_15  and  N_16
REMARK                            x       y       z     vdW  Elec       q    Type
REMARK                         _______ _______ _______ _____ _____    ______ ____
ROOT
ATOM      1  S   UNL     1      10.147   0.018  24.400  0.00  0.00    +0.075 S 
ATOM      2  O   UNL     1      11.435   0.640  24.606  0.00  0.00    -0.150 OA
ATOM      3  O   UNL     1       9.416  -0.548  25.517  0.00  0.00    -0.150 OA
ENDROOT
BRANCH   1   8
ATOM      4  C   UNL     1       9.281  -5.406  25.243  0.00  0.00    +0.066 C 
ATOM      5  C   UNL     1       8.868  -4.264  24.362  0.00  0.00    +0.044 A 
ATOM      6  N   UNL     1       9.763  -3.269  24.180  0.00  0.00    -0.219 NA
ATOM      7  C   UNL     1       9.340  -2.243  23.438  0.00  0.00    +0.235 A 
ATOM      8  N   UNL     1      10.246  -1.201  23.250  0.00  0.00    -0.184 N 
ATOM      9  H   UNL     1      11.194  -1.549  23.166  0.00  0.00    +0.177 HD
ATOM     10  N   UNL     1       8.156  -2.121  22.839  0.00  0.00    -0.219 NA
ATOM     11  C   UNL     1       7.298  -3.141  23.011  0.00  0.00    +0.044 A 
ATOM     12  C   UNL     1       5.975  -3.030  22.315  0.00  0.00    +0.066 C 
ATOM     13  C   UNL     1       7.613  -4.247  23.779  0.00  0.00    +0.046 A 
ENDBRANCH   1   8
BRANCH   1  14
ATOM     14  C   UNL     1       9.071   1.237  23.665  0.00  0.00    +0.109 A 
ATOM     15  C   UNL     1       8.945   1.303  22.275  0.00  0.00    +0.030 A 
ATOM     16  C   UNL     1       8.124   2.279  21.702  0.00  0.00    +0.024 A 
ATOM     17  C   UNL     1       7.412   3.177  22.502  0.00  0.00    +0.025 A 
ATOM     18  C   UNL     1       7.630   3.165  23.885  0.00  0.00    +0.024 A 
ATOM     19  C   UNL     1       8.442   2.187  24.474  0.00  0.00    +0.030 A 
BRANCH  17  20
ATOM     20  N   UNL     1       6.684   4.218  21.915  0.00  0.00    -0.358 N 
ATOM     21  H   UNL     1       6.818   5.118  22.363  0.00  0.00    +0.142 HD
ATOM     22  H   UNL     1       6.785   4.274  20.906  0.00  0.00    +0.142 HD
ENDBRANCH  17  20
ENDBRANCH   1  14
TORSDOF 3
ENDMDL
MODEL 4
REMARK VINA RESULT:      -6.5      2.869      3.534
REMARK  Name = 
REMARK  5 active torsions:
REMARK  status: ('A' for Active; 'I' for Inactive)
REMARK    1  A    between atoms: C_1  and  C_2
REMARK    2  A    between atoms: C_4  and  C_5
REMARK    3  A    between atoms: N_8  and  S_9
REMARK    4  A    between atoms: S_9  and  C_12
REMARK    5  A    between atoms: C_15  and  N_16
REMARK                            x       y       z     vdW  Elec       q    Type
REMARK                         _______ _______ _______ _____ _____    ______ ____
ROOT
ATOM      1  S   UNL     1       8.954  -2.976  24.311  0.00  0.00    +0.075 S 
ATOM      2  O   UNL     1       7.718  -3.487  23.761  0.00  0.00    -0.150 OA
ATOM      3  O   UNL     1      10.177  -3.750  24.214  0.00  0.00    -0.150 OA
ENDROOT
BRANCH   1   8
ATOM      4  C   UNL     1       4.240  -1.547  26.883  0.00  0.00    +0.066 C 
ATOM      5  C   UNL     1       5.395  -2.499  26.973  0.00  0.00    +0.044 A 
ATOM      6  N   UNL     1       6.571  -2.095  26.443  0.00  0.00    -0.219 NA
ATOM      7  C   UNL     1       7.561  -2.990  26.490  0.00  0.00    +0.235 A 
ATOM      8  N   UNL     1       8.777  -2.596  25.937  0.00  0.00    -0.184 N 
ATOM      9  H   UNL     1       8.955  -1.613  26.103  0.00  0.00    +0.177 HD
ATOM     10  N   UNL     1       7.516  -4.207  27.030  0.00  0.00    -0.219 NA
ATOM     11  C   UNL     1       6.343  -4.569  27.578  0.00  0.00    +0.044 A 
ATOM     12  C   UNL     1       6.291  -5.924  28.217  0.00  0.00    +0.066 C 
ATOM     13  C   UNL     1       5.239  -3.738  27.569  0.00  0.00    +0.046 A 
ENDBRANCH   1   8
BRANCH   1  14
ATOM     14  C   UNL     1       9.289  -1.412  23.522  0.00  0.00    +0.109 A 
ATOM     15  C   UNL     1       9.169  -1.295  22.134  0.00  0.00    +0.030 A 
ATOM     16  C   UNL     1       9.461  -0.075  21.516  0.00  0.00    +0.024 A 
ATOM     17  C   UNL     1       9.854   1.035  22.270  0.00  0.00    +0.025 A 
ATOM     18  C   UNL     1      10.071   0.872  23.643  0.00  0.00    +0.024 A 
ATOM     19  C   UNL     1       9.773  -0.341  24.278  0.00  0.00    +0.030 A 
BRANCH  17  20
ATOM     20  N   UNL     1      10.251   2.214  21.630  0.00  0.00    -0.358 N 
ATOM     21  H   UNL     1       9.481   2.829  21.387  0.00  0.00    +0.142 HD
ATOM     22  H   UNL     1      11.000   2.708  22.105  0.00  0.00    +0.142 HD
ENDBRANCH  17  20
ENDBRANCH   1  14
TORSDOF 3
ENDMDL
MODEL 5
REMARK VINA RESULT:      -6.4      1.911      6.708
REMARK  Name = 
REMARK  5 active torsions:
REMARK  status: ('A' for Active; 'I' for Inactive)
REMARK    1  A    between atoms: C_1  and  C_2
REMARK    2  A    between atoms: C_4  and  C_5
REMARK    3  A    between atoms: N_8  and  S_9
REMARK    4  A    between atoms: S_9  and  C_12
REMARK    5  A    between atoms: C_15  and  N_16
REMARK                            x       y       z     vdW  Elec       q    Type
REMARK                         _______ _______ _______ _____ _____    ______ ____
ROOT
ATOM      1  S   UNL     1       9.208  -2.039  23.588  0.00  0.00    +0.075 S 
ATOM      2  O   UNL     1       8.778  -1.292  24.749  0.00  0.00    -0.150 OA
ATOM      3  O   UNL     1      10.455  -2.779  23.609  0.00  0.00    -0.150 OA
ENDROOT
BRANCH   1   8
ATOM      4  C   UNL     1       6.103   2.463  22.597  0.00  0.00    +0.066 C 
ATOM      5  C   UNL     1       7.527   1.993  22.642  0.00  0.00    +0.044 A 
ATOM      6  N   UNL     1       7.756   0.688  22.380  0.00  0.00    -0.219 NA
ATOM      7  C   UNL     1       9.028   0.294  22.486  0.00  0.00    +0.235 A 
ATOM      8  N   UNL     1       9.281  -1.052  22.231  0.00  0.00    -0.184 N 
ATOM      9  H   UNL     1       8.687  -1.404  21.491  0.00  0.00    +0.177 HD
ATOM     10  N   UNL     1      10.080   1.054  22.784  0.00  0.00    -0.219 NA
ATOM     11  C   UNL     1       9.826   2.355  23.009  0.00  0.00    +0.044 A 
ATOM     12  C   UNL     1      11.007   3.227  23.313  0.00  0.00    +0.066 C 
ATOM     13  C   UNL     1       8.547   2.876  22.953  0.00  0.00    +0.046 A 
ENDBRANCH   1   8
BRANCH   1  14
ATOM     14  C   UNL     1       7.931  -3.225  23.207  0.00  0.00    +0.109 A 
ATOM     15  C   UNL     1       7.932  -4.472  23.837  0.00  0.00    +0.030 A 
ATOM     16  C   UNL     1       6.946  -5.410  23.514  0.00  0.00    +0.024 A 
ATOM     17  C   UNL     1       5.949  -5.110  22.582  0.00  0.00    +0.025 A 
ATOM     18  C   UNL     1       6.023  -3.899  21.884  0.00  0.00    +0.024 A 
ATOM     19  C   UNL     1       6.998  -2.945  22.205  0.00  0.00    +0.030 A 
BRANCH  17  20
ATOM     20  N   UNL     1       5.037  -6.095  22.186  0.00  0.00    -0.358 N 
ATOM     21  H   UNL     1       5.121  -6.365  21.211  0.00  0.00    +0.142 HD
ATOM     22  H   UNL     1       5.005  -6.899  22.804  0.00  0.00    +0.142 HD
ENDBRANCH  17  20
ENDBRANCH   1  14
TORSDOF 3
ENDMDL
MODEL 6
REMARK VINA RESULT:      -6.4      1.961      2.949
REMARK  Name = 
REMARK  5 active torsions:
REMARK  status: ('A' for Active; 'I' for Inactive)
REMARK    1  A    between atoms: C_1  and  C_2
REMARK    2  A    between atoms: C_4  and  C_5
REMARK    3  A    between atoms: N_8  and  S_9
REMARK    4  A    between atoms: S_9  and  C_12
REMARK    5  A    between atoms: C_15  and  N_16
REMARK                            x       y       z     vdW  Elec       q    Type
REMARK                         _______ _______ _______ _____ _____    ______ ____
ROOT
ATOM      1  S   UNL     1       8.291  -1.462  25.903  0.00  0.00    +0.075 S 
ATOM      2  O   UNL     1       8.895  -1.040  27.147  0.00  0.00    -0.150 OA
ATOM      3  O   UNL     1       6.848  -1.492  25.759  0.00  0.00    -0.150 OA
ENDROOT
BRANCH   1   8
ATOM      4  C   UNL     1       5.473  -6.228  26.386  0.00  0.00    +0.066 C 
ATOM      5  C   UNL     1       6.237  -5.399  25.396  0.00  0.00    +0.044 A 
ATOM      6  N   UNL     1       7.211  -4.598  25.881  0.00  0.00    -0.219 NA
ATOM      7  C   UNL     1       7.829  -3.833  24.979  0.00  0.00    +0.235 A 
ATOM      8  N   UNL     1       8.828  -2.991  25.463  0.00  0.00    -0.184 N 
ATOM      9  H   UNL     1       9.344  -3.428  26.217  0.00  0.00    +0.177 HD
ATOM     10  N   UNL     1       7.612  -3.808  23.665  0.00  0.00    -0.219 NA
ATOM     11  C   UNL     1       6.659  -4.639  23.206  0.00  0.00    +0.044 A 
ATOM     12  C   UNL     1       6.429  -4.643  21.725  0.00  0.00    +0.066 C 
ATOM     13  C   UNL     1       5.933  -5.461  24.048  0.00  0.00    +0.046 A 
ENDBRANCH   1   8
BRANCH   1  14
ATOM     14  C   UNL     1       8.900  -0.388  24.616  0.00  0.00    +0.109 A 
ATOM     15  C   UNL     1      10.072   0.346  24.821  0.00  0.00    +0.030 A 
ATOM     16  C   UNL     1      10.530   1.209  23.821  0.00  0.00    +0.024 A 
ATOM     17  C   UNL     1       9.842   1.334  22.611  0.00  0.00    +0.025 A 
ATOM     18  C   UNL     1       8.616   0.673  22.463  0.00  0.00    +0.024 A 
ATOM     19  C   UNL     1       8.150  -0.203  23.451  0.00  0.00    +0.030 A 
BRANCH  17  20
ATOM     20  N   UNL     1      10.247   2.282  21.666  0.00  0.00    -0.358 N 
ATOM     21  H   UNL     1       9.480   2.720  21.167  0.00  0.00    +0.142 HD
ATOM     22  H   UNL     1      10.909   2.964  22.024  0.00  0.00    +0.142 HD
ENDBRANCH  17  20
ENDBRANCH   1  14
TORSDOF 3
ENDMDL
MODEL 7
REMARK VINA RESULT:      -6.4      2.074      2.343
REMARK  Name = 
REMARK  5 active torsions:
REMARK  status: ('A' for Active; 'I' for Inactive)
REMARK    1  A    between atoms: C_1  and  C_2
REMARK    2  A    between atoms: C_4  and  C_5
REMARK    3  A    between atoms: N_8  and  S_9
REMARK    4  A    between atoms: S_9  and  C_12
REMARK    5  A    between atoms: C_15  and  N_16
REMARK                            x       y       z     vdW  Elec       q    Type
REMARK                         _______ _______ _______ _____ _____    ______ ____
ROOT
ATOM      1  S   UNL     1       9.915  -0.040  24.093  0.00  0.00    +0.075 S 
ATOM      2  O   UNL     1      10.339  -0.880  22.996  0.00  0.00    -0.150 OA
ATOM      3  O   UNL     1      10.876   0.436  25.070  0.00  0.00    -0.150 OA
ENDROOT
BRANCH   1   8
ATOM      4  C   UNL     1       5.921  -3.344  22.089  0.00  0.00    +0.066 C 
ATOM      5  C   UNL     1       6.984  -3.279  23.146  0.00  0.00    +0.044 A 
ATOM      6  N   UNL     1       7.326  -2.054  23.604  0.00  0.00    -0.219 NA
ATOM      7  C   UNL     1       8.315  -2.031  24.501  0.00  0.00    +0.235 A 
ATOM      8  N   UNL     1       8.689  -0.775  24.975  0.00  0.00    -0.184 N 
ATOM      9  H   UNL     1       7.887  -0.163  25.066  0.00  0.00    +0.177 HD
ATOM     10  N   UNL     1       8.963  -3.078  25.008  0.00  0.00    -0.219 NA
ATOM     11  C   UNL     1       8.580  -4.286  24.557  0.00  0.00    +0.044 A 
ATOM     12  C   UNL     1       9.279  -5.474  25.145  0.00  0.00    +0.066 C 
ATOM     13  C   UNL     1       7.584  -4.436  23.610  0.00  0.00    +0.046 A 
ENDBRANCH   1   8
BRANCH   1  14
ATOM     14  C   UNL     1       9.151   1.413  23.395  0.00  0.00    +0.109 A 
ATOM     15  C   UNL     1       9.363   2.661  23.988  0.00  0.00    +0.030 A 
ATOM     16  C   UNL     1       8.739   3.794  23.456  0.00  0.00    +0.024 A 
ATOM     17  C   UNL     1       7.920   3.697  22.327  0.00  0.00    +0.025 A 
ATOM     18  C   UNL     1       7.635   2.428  21.810  0.00  0.00    +0.024 A 
ATOM     19  C   UNL     1       8.261   1.286  22.326  0.00  0.00    +0.030 A 
BRANCH  17  20
ATOM     20  N   UNL     1       7.214   4.817  21.873  0.00  0.00    -0.358 N 
ATOM     21  H   UNL     1       7.343   5.011  20.885  0.00  0.00    +0.142 HD
ATOM     22  H   UNL     1       6.235   4.822  22.140  0.00  0.00    +0.142 HD
ENDBRANCH  17  20
ENDBRANCH   1  14
TORSDOF 3
ENDMDL
MODEL 8
REMARK VINA RESULT:      -6.3      2.364      6.985
REMARK  Name = 
REMARK  5 active torsions:
REMARK  status: ('A' for Active; 'I' for Inactive)
REMARK    1  A    between atoms: C_1  and  C_2
REMARK    2  A    between atoms: C_4  and  C_5
REMARK    3  A    between atoms: N_8  and  S_9
REMARK    4  A    between atoms: S_9  and  C_12
REMARK    5  A    between atoms: C_15  and  N_16
REMARK                            x       y       z     vdW  Elec       q    Type
REMARK                         _______ _______ _______ _____ _____    ______ ____
ROOT
ATOM      1  S   UNL     1       8.727  -4.067  24.833  0.00  0.00    +0.075 S 
ATOM      2  O   UNL     1       8.548  -3.305  26.048  0.00  0.00    -0.150 OA
ATOM      3  O   UNL     1       9.844  -4.982  24.696  0.00  0.00    -0.150 OA
ENDROOT
BRANCH   1   8
ATOM      4  C   UNL     1       6.145   0.818  24.239  0.00  0.00    +0.066 C 
ATOM      5  C   UNL     1       7.495   0.172  24.132  0.00  0.00    +0.044 A 
ATOM      6  N   UNL     1       7.527  -1.144  23.825  0.00  0.00    -0.219 NA
ATOM      7  C   UNL     1       8.742  -1.697  23.796  0.00  0.00    +0.235 A 
ATOM      8  N   UNL     1       8.794  -3.057  23.493  0.00  0.00    -0.184 N 
ATOM      9  H   UNL     1       8.089  -3.309  22.811  0.00  0.00    +0.177 HD
ATOM     10  N   UNL     1       9.907  -1.086  23.999  0.00  0.00    -0.219 NA
ATOM     11  C   UNL     1       9.846   0.229  24.271  0.00  0.00    +0.044 A 
ATOM     12  C   UNL     1      11.154   0.935  24.469  0.00  0.00    +0.066 C 
ATOM     13  C   UNL     1       8.645   0.909  24.353  0.00  0.00    +0.046 A 
ENDBRANCH   1   8
BRANCH   1  14
ATOM     14  C   UNL     1       7.252  -5.039  24.584  0.00  0.00    +0.109 A 
ATOM     15  C   UNL     1       6.813  -5.313  23.286  0.00  0.00    +0.030 A 
ATOM     16  C   UNL     1       5.640  -6.051  23.095  0.00  0.00    +0.024 A 
ATOM     17  C   UNL     1       4.912  -6.534  24.186  0.00  0.00    +0.025 A 
ATOM     18  C   UNL     1       5.307  -6.163  25.476  0.00  0.00    +0.024 A 
ATOM     19  C   UNL     1       6.485  -5.434  25.684  0.00  0.00    +0.030 A 
BRANCH  17  20
ATOM     20  N   UNL     1       3.683  -7.173  23.983  0.00  0.00    -0.358 N 
ATOM     21  H   UNL     1       3.153  -7.324  24.836  0.00  0.00    +0.142 HD
ATOM     22  H   UNL     1       3.118  -6.757  23.250  0.00  0.00    +0.142 HD
ENDBRANCH  17  20
ENDBRANCH   1  14
TORSDOF 3
ENDMDL
MODEL 9
REMARK VINA RESULT:      -6.3      1.809      2.851
REMARK  Name = 
REMARK  5 active torsions:
REMARK  status: ('A' for Active; 'I' for Inactive)
REMARK    1  A    between atoms: C_1  and  C_2
REMARK    2  A    between atoms: C_4  and  C_5
REMARK    3  A    between atoms: N_8  and  S_9
REMARK    4  A    between atoms: S_9  and  C_12
REMARK    5  A    between atoms: C_15  and  N_16
REMARK                            x       y       z     vdW  Elec       q    Type
REMARK                         _______ _______ _______ _____ _____    ______ ____
ROOT
ATOM      1  S   UNL     1       7.846  -0.277  23.736  0.00  0.00    +0.075 S 
ATOM      2  O   UNL     1       7.722  -0.612  25.137  0.00  0.00    -0.150 OA
ATOM      3  O   UNL     1       6.663  -0.114  22.911  0.00  0.00    -0.150 OA
ENDROOT
BRANCH   1   8
ATOM      4  C   UNL     1       9.184  -5.374  25.500  0.00  0.00    +0.066 C 
ATOM      5  C   UNL     1       8.618  -4.641  24.321  0.00  0.00    +0.044 A 
ATOM      6  N   UNL     1       9.005  -3.357  24.147  0.00  0.00    -0.219 NA
ATOM      7  C   UNL     1       8.437  -2.719  23.121  0.00  0.00    +0.235 A 
ATOM      8  N   UNL     1       8.814  -1.391  22.935  0.00  0.00    -0.184 N 
ATOM      9  H   UNL     1       9.792  -1.252  23.158  0.00  0.00    +0.177 HD
ATOM     10  N   UNL     1       7.570  -3.223  22.244  0.00  0.00    -0.219 NA
ATOM     11  C   UNL     1       7.228  -4.511  22.423  0.00  0.00    +0.044 A 
ATOM     12  C   UNL     1       6.278  -5.097  21.423  0.00  0.00    +0.066 C 
ATOM     13  C   UNL     1       7.731  -5.268  23.464  0.00  0.00    +0.046 A 
ENDBRANCH   1   8
BRANCH   1  14
ATOM     14  C   UNL     1       8.747   1.258  23.626  0.00  0.00    +0.109 A 
ATOM     15  C   UNL     1       9.835   1.362  22.754  0.00  0.00    +0.030 A 
ATOM     16  C   UNL     1      10.557   2.558  22.692  0.00  0.00    +0.024 A 
ATOM     17  C   UNL     1      10.195   3.656  23.477  0.00  0.00    +0.025 A 
ATOM     18  C   UNL     1       9.172   3.501  24.419  0.00  0.00    +0.024 A 
ATOM     19  C   UNL     1       8.432   2.313  24.485  0.00  0.00    +0.030 A 
BRANCH  17  20
ATOM     20  N   UNL     1      10.993   4.806  23.488  0.00  0.00    -0.358 N 
ATOM     21  H   UNL     1      10.464   5.673  23.489  0.00  0.00    +0.142 HD
ATOM     22  H   UNL     1      11.717   4.798  24.200  0.00  0.00    +0.142 HD
ENDBRANCH  17  20
ENDBRANCH   1  14
TORSDOF 3
ENDMDL
