MODEL 1
REMARK VINA RESULT:      -6.7      0.000      0.000
REMARK  Name = 
REMARK  6 active torsions:
REMARK  status: ('A' for Active; 'I' for Inactive)
REMARK    1  A    between atoms: N_10  and  C_11
REMARK    2  A    between atoms: C_15  and  O_17
REMARK    3  A    between atoms: O_17  and  P_18
REMARK    4  A    between atoms: P_18  and  O_19
REMARK    5  A    between atoms: P_18  and  O_20
REMARK    6  A    between atoms: C_22  and  O_24
REMARK                            x       y       z     vdW  Elec       q    Type
REMARK                         _______ _______ _______ _____ _____    ______ ____
ROOT
ATOM      1  C   UNL     1       9.264  -2.402  23.286  0.00  0.00    +0.253 C 
ATOM      2  C   UNL     1       9.188  -1.686  21.933  0.00  0.00    +0.196 C 
ATOM      3  C   UNL     1       8.446  -0.386  22.238  0.00  0.00    +0.189 C 
ATOM      4  C   UNL     1       8.490  -0.275  23.759  0.00  0.00    +0.197 C 
ATOM      5  O   UNL     1       9.355  -1.321  24.241  0.00  0.00    -0.351 OA
ENDROOT
BRANCH   1  13
ATOM      6  N   UNL     1       5.280  -6.196  25.855  0.00  0.00    -0.341 N 
ATOM      7  H   UNL     1       4.557  -5.784  25.276  0.00  0.00    +0.144 HD
ATOM      8  H   UNL     1       5.032  -6.462  26.800  0.00  0.00    +0.144 HD
ATOM      9  C   UNL     1       6.492  -5.522  25.799  0.00  0.00    +0.147 A 
ATOM     10  C   UNL     1       6.847  -4.658  24.749  0.00  0.00    +0.147 A 
ATOM     11  N   UNL     1       6.181  -4.251  23.614  0.00  0.00    -0.231 NA
ATOM     12  C   UNL     1       7.014  -3.434  23.009  0.00  0.00    +0.203 A 
ATOM     13  N   UNL     1       8.189  -3.276  23.709  0.00  0.00    -0.286 N 
ATOM     14  C   UNL     1       8.096  -4.056  24.826  0.00  0.00    +0.167 A 
ATOM     15  N   UNL     1       9.009  -4.218  25.801  0.00  0.00    -0.216 NA
ATOM     16  C   UNL     1       8.549  -5.048  26.760  0.00  0.00    +0.225 A 
ATOM     17  N   UNL     1       7.365  -5.691  26.817  0.00  0.00    -0.219 NA
ENDBRANCH   1  13
BRANCH   2  18
ATOM     18  O   UNL     1      10.520  -1.361  21.461  0.00  0.00    -0.385 OA
ATOM     19  H   UNL     1      10.488  -0.426  21.171  0.00  0.00    +0.210 HD
ENDBRANCH   2  18
BRANCH   3  20
ATOM     20  O   UNL     1       9.123   0.740  21.668  0.00  0.00    -0.278 OA
BRANCH  20  21
ATOM     21  P   UNL     1       9.358   2.052  22.771  0.00  0.00    +0.473 P 
ATOM     22  O   UNL     1       9.569   3.226  23.758  0.00  0.00    -0.228 OA
BRANCH  21  23
ATOM     23  O   UNL     1       8.208   2.812  21.884  0.00  0.00    -0.303 OA
ATOM     24  H   UNL     1       8.501   2.926  20.963  0.00  0.00    +0.222 HD
ENDBRANCH  21  23
BRANCH  21  25
ATOM     25  O   UNL     1      10.573   2.493  21.767  0.00  0.00    -0.303 OA
ATOM     26  H   UNL     1      10.157   2.606  20.891  0.00  0.00    +0.222 HD
ENDBRANCH  21  25
ENDBRANCH  20  21
ENDBRANCH   3  20
TORSDOF 6
ENDMDL
MODEL 2
REMARK VINA RESULT:      -6.7      4.914      7.414
REMARK  Name = 
REMARK  6 active torsions:
REMARK  status: ('A' for Active; 'I' for Inactive)
REMARK    1  A    between atoms: N_10  and  C_11
REMARK    2  A    between atoms: C_15  and  O_17
REMARK    3  A    between atoms: O_17  and  P_18
REMARK    4  A    between atoms: P_18  and  O_19
REMARK    5  A    between atoms: P_18  and  O_20
REMARK    6  A    between atoms: C_22  and  O_24
REMARK                            x       y       z     vdW  Elec       q    Type
REMARK                         _______ _______ _______ _____ _____    ______ ____
ROOT
ATOM      1  C   UNL     1       8.564  -4.246  25.936  0.00  0.00    +0.253 C 
ATOM      2  C   UNL     1       7.553  -4.804  26.945  0.00  0.00    +0.196 C 
ATOM      3  C   UNL     1       6.315  -5.113  26.104  0.00  0.00    +0.189 C 
ATOM      4  C   UNL     1       6.820  -5.076  24.664  0.00  0.00    +0.197 C 
ATOM      5  O   UNL     1       8.254  -4.955  24.715  0.00  0.00    -0.351 OA
ENDROOT
BRANCH   1  13
ATOM      6  N   UNL     1       9.150   1.437  23.881  0.00  0.00    -0.341 N 
ATOM      7  H   UNL     1       8.327   1.687  24.419  0.00  0.00    +0.144 HD
ATOM      8  H   UNL     1       9.272   1.876  22.977  0.00  0.00    +0.144 HD
ATOM      9  C   UNL     1       9.398   0.072  23.842  0.00  0.00    +0.147 A 
ATOM     10  C   UNL     1       8.876  -0.835  24.779  0.00  0.00    +0.147 A 
ATOM     11  N   UNL     1       8.048  -0.674  25.869  0.00  0.00    -0.231 NA
ATOM     12  C   UNL     1       7.903  -1.883  26.363  0.00  0.00    +0.203 A 
ATOM     13  N   UNL     1       8.585  -2.830  25.633  0.00  0.00    -0.286 N 
ATOM     14  C   UNL     1       9.215  -2.172  24.615  0.00  0.00    +0.167 A 
ATOM     15  N   UNL     1       9.998  -2.692  23.652  0.00  0.00    -0.216 NA
ATOM     16  C   UNL     1      10.419  -1.732  22.803  0.00  0.00    +0.225 A 
ATOM     17  N   UNL     1      10.165  -0.408  22.838  0.00  0.00    -0.219 NA
ENDBRANCH   1  13
BRANCH   2  18
ATOM     18  O   UNL     1       8.046  -6.040  27.518  0.00  0.00    -0.385 OA
ATOM     19  H   UNL     1       7.592  -6.144  28.380  0.00  0.00    +0.210 HD
ENDBRANCH   2  18
BRANCH   3  20
ATOM     20  O   UNL     1       5.813  -6.422  26.389  0.00  0.00    -0.278 OA
BRANCH  20  21
ATOM     21  P   UNL     1       4.528  -6.448  27.548  0.00  0.00    +0.473 P 
ATOM     22  O   UNL     1       3.378  -6.470  28.583  0.00  0.00    -0.228 OA
BRANCH  21  23
ATOM     23  O   UNL     1       5.434  -7.580  28.312  0.00  0.00    -0.303 OA
ATOM     24  H   UNL     1       5.680  -8.296  27.700  0.00  0.00    +0.222 HD
ENDBRANCH  21  23
BRANCH  21  25
ATOM     25  O   UNL     1       3.830  -7.534  26.542  0.00  0.00    -0.303 OA
ATOM     26  H   UNL     1       3.384  -7.002  25.855  0.00  0.00    +0.222 HD
ENDBRANCH  21  25
ENDBRANCH  20  21
ENDBRANCH   3  20
TORSDOF 6
ENDMDL
MODEL 3
REMARK VINA RESULT:      -6.7      4.363      6.863
REMARK  Name = 
REMARK  6 active torsions:
REMARK  status: ('A' for Active; 'I' for Inactive)
REMARK    1  A    between atoms: N_10  and  C_11
REMARK    2  A    between atoms: C_15  and  O_17
REMARK    3  A    between atoms: O_17  and  P_18
REMARK    4  A    between atoms: P_18  and  O_19
REMARK    5  A    between atoms: P_18  and  O_20
REMARK    6  A    between atoms: C_22  and  O_24
REMARK                            x       y       z     vdW  Elec       q    Type
REMARK                         _______ _______ _______ _____ _____    ______ ____
ROOT
ATOM      1  C   UNL     1       8.116  -0.938  23.141  0.00  0.00    +0.253 C 
ATOM      2  C   UNL     1       8.807  -2.214  22.646  0.00  0.00    +0.196 C 
ATOM      3  C   UNL     1       9.655  -2.666  23.835  0.00  0.00    +0.189 C 
ATOM      4  C   UNL     1       9.108  -1.865  25.013  0.00  0.00    +0.197 C 
ATOM      5  O   UNL     1       7.929  -1.177  24.555  0.00  0.00    -0.351 OA
ENDROOT
BRANCH   1  13
ATOM      6  N   UNL     1      10.373   4.696  23.322  0.00  0.00    -0.341 N 
ATOM      7  H   UNL     1      11.153   4.371  22.762  0.00  0.00    +0.144 HD
ATOM      8  H   UNL     1      10.563   5.382  24.041  0.00  0.00    +0.144 HD
ATOM      9  C   UNL     1       9.545   3.675  23.772  0.00  0.00    +0.147 A 
ATOM     10  C   UNL     1       9.497   2.402  23.178  0.00  0.00    +0.147 A 
ATOM     11  N   UNL     1      10.179   1.842  22.121  0.00  0.00    -0.231 NA
ATOM     12  C   UNL     1       9.711   0.617  22.029  0.00  0.00    +0.203 A 
ATOM     13  N   UNL     1       8.765   0.348  22.992  0.00  0.00    -0.286 N 
ATOM     14  C   UNL     1       8.616   1.484  23.735  0.00  0.00    +0.167 A 
ATOM     15  N   UNL     1       7.798   1.687  24.784  0.00  0.00    -0.216 NA
ATOM     16  C   UNL     1       7.949   2.932  25.280  0.00  0.00    +0.225 A 
ATOM     17  N   UNL     1       8.764   3.916  24.848  0.00  0.00    -0.219 NA
ENDBRANCH   1  13
BRANCH   2  18
ATOM     18  O   UNL     1       7.824  -3.239  22.359  0.00  0.00    -0.385 OA
ATOM     19  H   UNL     1       7.004  -2.970  22.822  0.00  0.00    +0.210 HD
ENDBRANCH   2  18
BRANCH   3  20
ATOM     20  O   UNL     1       9.473  -4.062  24.095  0.00  0.00    -0.278 OA
BRANCH  20  21
ATOM     21  P   UNL     1       8.875  -4.411  25.681  0.00  0.00    +0.473 P 
ATOM     22  O   UNL     1       8.340  -4.722  27.099  0.00  0.00    -0.228 OA
BRANCH  21  23
ATOM     23  O   UNL     1       9.789  -5.766  25.569  0.00  0.00    -0.303 OA
ATOM     24  H   UNL     1      10.475  -5.779  26.259  0.00  0.00    +0.222 HD
ENDBRANCH  21  23
BRANCH  21  25
ATOM     25  O   UNL     1       7.601  -5.079  24.901  0.00  0.00    -0.303 OA
ATOM     26  H   UNL     1       7.284  -5.792  25.487  0.00  0.00    +0.222 HD
ENDBRANCH  21  25
ENDBRANCH  20  21
ENDBRANCH   3  20
TORSDOF 6
ENDMDL
MODEL 4
REMARK VINA RESULT:      -6.6      4.193      6.886
REMARK  Name = 
REMARK  6 active torsions:
REMARK  status: ('A' for Active; 'I' for Inactive)
REMARK    1  A    between atoms: N_10  and  C_11
REMARK    2  A    between atoms: C_15  and  O_17
REMARK    3  A    between atoms: O_17  and  P_18
REMARK    4  A    between atoms: P_18  and  O_19
REMARK    5  A    between atoms: P_18  and  O_20
REMARK    6  A    between atoms: C_22  and  O_24
REMARK                            x       y       z     vdW  Elec       q    Type
REMARK                         _______ _______ _______ _____ _____    ______ ____
ROOT
ATOM      1  C   UNL     1       7.449  -2.855  23.285  0.00  0.00    +0.253 C 
ATOM      2  C   UNL     1       8.062  -4.228  23.584  0.00  0.00    +0.196 C 
ATOM      3  C   UNL     1       8.470  -4.144  25.054  0.00  0.00    +0.189 C 
ATOM      4  C   UNL     1       7.736  -2.913  25.578  0.00  0.00    +0.197 C 
ATOM      5  O   UNL     1       6.843  -2.470  24.540  0.00  0.00    -0.351 OA
ENDROOT
BRANCH   1  13
ATOM      6  N   UNL     1      10.218   2.292  21.640  0.00  0.00    -0.341 N 
ATOM      7  H   UNL     1      11.107   1.839  21.820  0.00  0.00    +0.144 HD
ATOM      8  H   UNL     1      10.134   3.273  21.876  0.00  0.00    +0.144 HD
ATOM      9  C   UNL     1       9.120   1.553  22.057  0.00  0.00    +0.147 A 
ATOM     10  C   UNL     1       9.162   0.167  22.283  0.00  0.00    +0.147 A 
ATOM     11  N   UNL     1      10.178  -0.760  22.193  0.00  0.00    -0.231 NA
ATOM     12  C   UNL     1       9.621  -1.903  22.526  0.00  0.00    +0.203 A 
ATOM     13  N   UNL     1       8.290  -1.761  22.847  0.00  0.00    -0.286 N 
ATOM     14  C   UNL     1       7.981  -0.438  22.693  0.00  0.00    +0.167 A 
ATOM     15  N   UNL     1       6.795   0.163  22.894  0.00  0.00    -0.216 NA
ATOM     16  C   UNL     1       6.884   1.490  22.668  0.00  0.00    +0.225 A 
ATOM     17  N   UNL     1       7.957   2.207  22.276  0.00  0.00    -0.219 NA
ENDBRANCH   1  13
BRANCH   2  18
ATOM     18  O   UNL     1       7.062  -5.267  23.438  0.00  0.00    -0.385 OA
ATOM     19  H   UNL     1       6.731  -5.458  24.340  0.00  0.00    +0.210 HD
ENDBRANCH   2  18
BRANCH   3  20
ATOM     20  O   UNL     1       8.026  -5.296  25.778  0.00  0.00    -0.278 OA
BRANCH  20  21
ATOM     21  P   UNL     1       6.890  -4.943  27.034  0.00  0.00    +0.473 P 
ATOM     22  O   UNL     1       5.872  -4.628  28.157  0.00  0.00    -0.228 OA
BRANCH  21  23
ATOM     23  O   UNL     1       7.621  -6.169  27.840  0.00  0.00    -0.303 OA
ATOM     24  H   UNL     1       7.817  -5.911  28.758  0.00  0.00    +0.222 HD
ENDBRANCH  21  23
BRANCH  21  25
ATOM     25  O   UNL     1       5.886  -5.942  26.213  0.00  0.00    -0.303 OA
ATOM     26  H   UNL     1       5.396  -6.438  26.898  0.00  0.00    +0.222 HD
ENDBRANCH  21  25
ENDBRANCH  20  21
ENDBRANCH   3  20
TORSDOF 6
ENDMDL
MODEL 5
REMARK VINA RESULT:      -6.6      0.898      1.834
REMARK  Name = 
REMARK  6 active torsions:
REMARK  status: ('A' for Active; 'I' for Inactive)
REMARK    1  A    between atoms: N_10  and  C_11
REMARK    2  A    between atoms: C_15  and  O_17
REMARK    3  A    between atoms: O_17  and  P_18
REMARK    4  A    between atoms: P_18  and  O_19
REMARK    5  A    between atoms: P_18  and  O_20
REMARK    6  A    between atoms: C_22  and  O_24
REMARK                            x       y       z     vdW  Elec       q    Type
REMARK                         _______ _______ _______ _____ _____    ______ ____
ROOT
ATOM      1  C   UNL     1       9.565  -2.392  23.694  0.00  0.00    +0.253 C 
ATOM      2  C   UNL     1       9.058  -1.851  22.352  0.00  0.00    +0.196 C 
ATOM      3  C   UNL     1       8.337  -0.554  22.720  0.00  0.00    +0.189 C 
ATOM      4  C   UNL     1       8.801  -0.257  24.143  0.00  0.00    +0.197 C 
ATOM      5  O   UNL     1       9.842  -1.199  24.462  0.00  0.00    -0.351 OA
ENDROOT
BRANCH   1  13
ATOM      6  N   UNL     1       5.664  -6.292  26.231  0.00  0.00    -0.341 N 
ATOM      7  H   UNL     1       6.266  -6.321  27.046  0.00  0.00    +0.144 HD
ATOM      8  H   UNL     1       5.209  -7.152  25.952  0.00  0.00    +0.144 HD
ATOM      9  C   UNL     1       6.217  -5.615  25.152  0.00  0.00    +0.147 A 
ATOM     10  C   UNL     1       7.266  -4.689  25.277  0.00  0.00    +0.147 A 
ATOM     11  N   UNL     1       7.988  -4.242  26.362  0.00  0.00    -0.231 NA
ATOM     12  C   UNL     1       8.842  -3.376  25.864  0.00  0.00    +0.203 A 
ATOM     13  N   UNL     1       8.721  -3.251  24.499  0.00  0.00    -0.286 N 
ATOM     14  C   UNL     1       7.712  -4.086  24.108  0.00  0.00    +0.167 A 
ATOM     15  N   UNL     1       7.242  -4.292  22.865  0.00  0.00    -0.216 NA
ATOM     16  C   UNL     1       6.258  -5.213  22.869  0.00  0.00    +0.225 A 
ATOM     17  N   UNL     1       5.733  -5.879  23.918  0.00  0.00    -0.219 NA
ENDBRANCH   1  13
BRANCH   2  18
ATOM     18  O   UNL     1      10.175  -1.531  21.485  0.00  0.00    -0.385 OA
ATOM     19  H   UNL     1       9.787  -1.243  20.633  0.00  0.00    +0.210 HD
ENDBRANCH   2  18
BRANCH   3  20
ATOM     20  O   UNL     1       8.740   0.520  21.864  0.00  0.00    -0.278 OA
BRANCH  20  21
ATOM     21  P   UNL     1       9.136   1.980  22.704  0.00  0.00    +0.473 P 
ATOM     22  O   UNL     1       9.491   3.285  23.456  0.00  0.00    -0.228 OA
BRANCH  21  23
ATOM     23  O   UNL     1       7.892   2.631  21.860  0.00  0.00    -0.303 OA
ATOM     24  H   UNL     1       7.714   3.542  22.154  0.00  0.00    +0.222 HD
ENDBRANCH  21  23
BRANCH  21  25
ATOM     25  O   UNL     1      10.216   2.216  21.497  0.00  0.00    -0.303 OA
ATOM     26  H   UNL     1      10.634   3.077  21.688  0.00  0.00    +0.222 HD
ENDBRANCH  21  25
ENDBRANCH  20  21
ENDBRANCH   3  20
TORSDOF 6
ENDMDL
MODEL 6
REMARK VINA RESULT:      -6.4      4.473      6.856
REMARK  Name = 
REMARK  6 active torsions:
REMARK  status: ('A' for Active; 'I' for Inactive)
REMARK    1  A    between atoms: N_10  and  C_11
REMARK    2  A    between atoms: C_15  and  O_17
REMARK    3  A    between atoms: O_17  and  P_18
REMARK    4  A    between atoms: P_18  and  O_19
REMARK    5  A    between atoms: P_18  and  O_20
REMARK    6  A    between atoms: C_22  and  O_24
REMARK                            x       y       z     vdW  Elec       q    Type
REMARK                         _______ _______ _______ _____ _____    ______ ____
ROOT
ATOM      1  C   UNL     1       9.257  -3.319  24.400  0.00  0.00    +0.253 C 
ATOM      2  C   UNL     1       8.543  -3.248  25.755  0.00  0.00    +0.196 C 
ATOM      3  C   UNL     1       7.098  -3.630  25.437  0.00  0.00    +0.189 C 
ATOM      4  C   UNL     1       7.170  -4.248  24.043  0.00  0.00    +0.197 C 
ATOM      5  O   UNL     1       8.563  -4.378  23.703  0.00  0.00    -0.351 OA
ENDROOT
BRANCH   1  13
ATOM      6  N   UNL     1       9.846   1.968  21.474  0.00  0.00    -0.341 N 
ATOM      7  H   UNL     1       9.755   1.463  20.600  0.00  0.00    +0.144 HD
ATOM      8  H   UNL     1      10.491   2.748  21.502  0.00  0.00    +0.144 HD
ATOM      9  C   UNL     1       9.968   1.145  22.585  0.00  0.00    +0.147 A 
ATOM     10  C   UNL     1       9.565  -0.201  22.597  0.00  0.00    +0.147 A 
ATOM     11  N   UNL     1       9.017  -1.017  21.631  0.00  0.00    -0.231 NA
ATOM     12  C   UNL     1       8.853  -2.178  22.224  0.00  0.00    +0.203 A 
ATOM     13  N   UNL     1       9.287  -2.162  23.530  0.00  0.00    -0.286 N 
ATOM     14  C   UNL     1       9.745  -0.899  23.784  0.00  0.00    +0.167 A 
ATOM     15  N   UNL     1      10.261  -0.421  24.930  0.00  0.00    -0.216 NA
ATOM     16  C   UNL     1      10.630   0.869  24.791  0.00  0.00    +0.225 A 
ATOM     17  N   UNL     1      10.522   1.662  23.705  0.00  0.00    -0.219 NA
ENDBRANCH   1  13
BRANCH   2  18
ATOM     18  O   UNL     1       9.093  -4.231  26.666  0.00  0.00    -0.385 OA
ATOM     19  H   UNL     1       8.339  -4.574  27.188  0.00  0.00    +0.210 HD
ENDBRANCH   2  18
BRANCH   3  20
ATOM     20  O   UNL     1       6.610  -4.610  26.357  0.00  0.00    -0.278 OA
BRANCH  20  21
ATOM     21  P   UNL     1       5.599  -5.815  25.634  0.00  0.00    +0.473 P 
ATOM     22  O   UNL     1       4.697  -6.893  24.987  0.00  0.00    -0.228 OA
BRANCH  21  23
ATOM     23  O   UNL     1       4.360  -4.935  26.246  0.00  0.00    -0.303 OA
ATOM     24  H   UNL     1       3.845  -4.520  25.532  0.00  0.00    +0.222 HD
ENDBRANCH  21  23
BRANCH  21  25
ATOM     25  O   UNL     1       5.834  -6.646  27.024  0.00  0.00    -0.303 OA
ATOM     26  H   UNL     1       6.735  -6.410  27.319  0.00  0.00    +0.222 HD
ENDBRANCH  21  25
ENDBRANCH  20  21
ENDBRANCH   3  20
TORSDOF 6
ENDMDL
MODEL 7
REMARK VINA RESULT:      -6.4      4.198      6.664
REMARK  Name = 
REMARK  6 active torsions:
REMARK  status: ('A' for Active; 'I' for Inactive)
REMARK    1  A    between atoms: N_10  and  C_11
REMARK    2  A    between atoms: C_15  and  O_17
REMARK    3  A    between atoms: O_17  and  P_18
REMARK    4  A    between atoms: P_18  and  O_19
REMARK    5  A    between atoms: P_18  and  O_20
REMARK    6  A    between atoms: C_22  and  O_24
REMARK                            x       y       z     vdW  Elec       q    Type
REMARK                         _______ _______ _______ _____ _____    ______ ____
ROOT
ATOM      1  C   UNL     1       9.228  -2.425  23.823  0.00  0.00    +0.253 C 
ATOM      2  C   UNL     1       8.539  -3.579  24.560  0.00  0.00    +0.196 C 
ATOM      3  C   UNL     1       7.174  -3.694  23.884  0.00  0.00    +0.189 C 
ATOM      4  C   UNL     1       7.321  -2.884  22.599  0.00  0.00    +0.197 C 
ATOM      5  O   UNL     1       8.709  -2.520  22.477  0.00  0.00    -0.351 OA
ENDROOT
BRANCH   1  13
ATOM      6  N   UNL     1       8.782   3.545  24.837  0.00  0.00    -0.341 N 
ATOM      7  H   UNL     1       8.086   3.344  25.546  0.00  0.00    +0.144 HD
ATOM      8  H   UNL     1       8.650   4.373  24.269  0.00  0.00    +0.144 HD
ATOM      9  C   UNL     1       9.143   2.439  24.080  0.00  0.00    +0.147 A 
ATOM     10  C   UNL     1       8.940   1.114  24.502  0.00  0.00    +0.147 A 
ATOM     11  N   UNL     1       8.375   0.576  25.638  0.00  0.00    -0.231 NA
ATOM     12  C   UNL     1       8.463  -0.725  25.474  0.00  0.00    +0.203 A 
ATOM     13  N   UNL     1       9.044  -1.060  24.273  0.00  0.00    -0.286 N 
ATOM     14  C   UNL     1       9.357   0.109  23.639  0.00  0.00    +0.167 A 
ATOM     15  N   UNL     1       9.942   0.270  22.439  0.00  0.00    -0.216 NA
ATOM     16  C   UNL     1      10.064   1.578  22.133  0.00  0.00    +0.225 A 
ATOM     17  N   UNL     1       9.699   2.650  22.866  0.00  0.00    -0.219 NA
ENDBRANCH   1  13
BRANCH   2  18
ATOM     18  O   UNL     1       9.267  -4.815  24.350  0.00  0.00    -0.385 OA
ATOM     19  H   UNL     1       8.758  -5.515  24.809  0.00  0.00    +0.210 HD
ENDBRANCH   2  18
BRANCH   3  20
ATOM     20  O   UNL     1       6.877  -5.053  23.548  0.00  0.00    -0.278 OA
BRANCH  20  21
ATOM     21  P   UNL     1       6.371  -5.279  21.910  0.00  0.00    +0.473 P 
ATOM     22  O   UNL     1       5.918  -5.482  20.443  0.00  0.00    -0.228 OA
BRANCH  21  23
ATOM     23  O   UNL     1       5.316  -6.364  22.539  0.00  0.00    -0.303 OA
ATOM     24  H   UNL     1       4.466  -6.336  22.065  0.00  0.00    +0.222 HD
ENDBRANCH  21  23
BRANCH  21  25
ATOM     25  O   UNL     1       7.596  -6.361  21.828  0.00  0.00    -0.303 OA
ATOM     26  H   UNL     1       7.284  -7.145  22.319  0.00  0.00    +0.222 HD
ENDBRANCH  21  25
ENDBRANCH  20  21
ENDBRANCH   3  20
TORSDOF 6
ENDMDL
MODEL 8
REMARK VINA RESULT:      -6.4      4.236      6.792
REMARK  Name = 
REMARK  6 active torsions:
REMARK  status: ('A' for Active; 'I' for Inactive)
REMARK    1  A    between atoms: N_10  and  C_11
REMARK    2  A    between atoms: C_15  and  O_17
REMARK    3  A    between atoms: O_17  and  P_18
REMARK    4  A    between atoms: P_18  and  O_19
REMARK    5  A    between atoms: P_18  and  O_20
REMARK    6  A    between atoms: C_22  and  O_24
REMARK                            x       y       z     vdW  Elec       q    Type
REMARK                         _______ _______ _______ _____ _____    ______ ____
ROOT
ATOM      1  C   UNL     1       8.884  -2.563  23.250  0.00  0.00    +0.253 C 
ATOM      2  C   UNL     1       8.843  -3.228  24.630  0.00  0.00    +0.196 C 
ATOM      3  C   UNL     1       7.372  -3.597  24.825  0.00  0.00    +0.189 C 
ATOM      4  C   UNL     1       6.766  -3.473  23.430  0.00  0.00    +0.197 C 
ATOM      5  O   UNL     1       7.849  -3.248  22.508  0.00  0.00    -0.351 OA
ENDROOT
BRANCH   1  13
ATOM      6  N   UNL     1       8.807   3.505  23.034  0.00  0.00    -0.341 N 
ATOM      7  H   UNL     1       8.076   3.443  22.334  0.00  0.00    +0.144 HD
ATOM      8  H   UNL     1       9.496   4.239  22.930  0.00  0.00    +0.144 HD
ATOM      9  C   UNL     1       9.383   2.282  23.349  0.00  0.00    +0.147 A 
ATOM     10  C   UNL     1       8.761   1.047  23.098  0.00  0.00    +0.147 A 
ATOM     11  N   UNL     1       7.556   0.713  22.520  0.00  0.00    -0.231 NA
ATOM     12  C   UNL     1       7.516  -0.600  22.558  0.00  0.00    +0.203 A 
ATOM     13  N   UNL     1       8.651  -1.139  23.120  0.00  0.00    -0.286 N 
ATOM     14  C   UNL     1       9.458  -0.094  23.473  0.00  0.00    +0.167 A 
ATOM     15  N   UNL     1      10.668  -0.143  24.057  0.00  0.00    -0.216 NA
ATOM     16  C   UNL     1      11.173   1.096  24.226  0.00  0.00    +0.225 A 
ATOM     17  N   UNL     1      10.615   2.282  23.906  0.00  0.00    -0.219 NA
ENDBRANCH   1  13
BRANCH   2  18
ATOM     18  O   UNL     1       9.630  -4.445  24.625  0.00  0.00    -0.385 OA
ATOM     19  H   UNL     1       9.110  -5.110  25.122  0.00  0.00    +0.210 HD
ENDBRANCH   2  18
BRANCH   3  20
ATOM     20  O   UNL     1       7.236  -4.949  25.274  0.00  0.00    -0.278 OA
BRANCH  20  21
ATOM     21  P   UNL     1       6.855  -5.098  26.955  0.00  0.00    +0.473 P 
ATOM     22  O   UNL     1       6.513  -5.230  28.459  0.00  0.00    -0.228 OA
BRANCH  21  23
ATOM     23  O   UNL     1       8.257  -5.940  27.049  0.00  0.00    -0.303 OA
ATOM     24  H   UNL     1       8.726  -5.740  27.878  0.00  0.00    +0.222 HD
ENDBRANCH  21  23
BRANCH  21  25
ATOM     25  O   UNL     1       5.980  -6.403  26.497  0.00  0.00    -0.303 OA
ATOM     26  H   UNL     1       5.119  -6.309  26.950  0.00  0.00    +0.222 HD
ENDBRANCH  21  25
ENDBRANCH  20  21
ENDBRANCH   3  20
TORSDOF 6
ENDMDL
MODEL 9
REMARK VINA RESULT:      -6.3      4.811      6.955
REMARK  Name = 
REMARK  6 active torsions:
REMARK  status: ('A' for Active; 'I' for Inactive)
REMARK    1  A    between atoms: N_10  and  C_11
REMARK    2  A    between atoms: C_15  and  O_17
REMARK    3  A    between atoms: O_17  and  P_18
REMARK    4  A    between atoms: P_18  and  O_19
REMARK    5  A    between atoms: P_18  and  O_20
REMARK    6  A    between atoms: C_22  and  O_24
REMARK                            x       y       z     vdW  Elec       q    Type
REMARK                         _______ _______ _______ _____ _____    ______ ____
ROOT
ATOM      1  C   UNL     1       8.365  -4.531  24.318  0.00  0.00    +0.253 C 
ATOM      2  C   UNL     1       8.112  -4.844  25.798  0.00  0.00    +0.196 C 
ATOM      3  C   UNL     1       6.604  -5.081  25.878  0.00  0.00    +0.189 C 
ATOM      4  C   UNL     1       6.174  -5.264  24.425  0.00  0.00    +0.197 C 
ATOM      5  O   UNL     1       7.371  -5.322  23.627  0.00  0.00    -0.351 OA
ENDROOT
BRANCH   1  13
ATOM      6  N   UNL     1       8.225   1.429  23.167  0.00  0.00    -0.341 N 
ATOM      7  H   UNL     1       8.331   1.213  22.183  0.00  0.00    +0.144 HD
ATOM      8  H   UNL     1       8.697   2.251  23.522  0.00  0.00    +0.144 HD
ATOM      9  C   UNL     1       8.383   0.329  24.000  0.00  0.00    +0.147 A 
ATOM     10  C   UNL     1       8.252  -0.999  23.560  0.00  0.00    +0.147 A 
ATOM     11  N   UNL     1       7.984  -1.547  22.325  0.00  0.00    -0.231 NA
ATOM     12  C   UNL     1       7.986  -2.846  22.525  0.00  0.00    +0.203 A 
ATOM     13  N   UNL     1       8.263  -3.170  23.834  0.00  0.00    -0.286 N 
ATOM     14  C   UNL     1       8.433  -1.995  24.510  0.00  0.00    +0.167 A 
ATOM     15  N   UNL     1       8.717  -1.824  25.813  0.00  0.00    -0.216 NA
ATOM     16  C   UNL     1       8.840  -0.514  26.111  0.00  0.00    +0.225 A 
ATOM     17  N   UNL     1       8.699   0.551  25.296  0.00  0.00    -0.219 NA
ENDBRANCH   1  13
BRANCH   2  18
ATOM     18  O   UNL     1       8.795  -6.064  26.177  0.00  0.00    -0.385 OA
ATOM     19  H   UNL     1       8.201  -6.528  26.804  0.00  0.00    +0.210 HD
ENDBRANCH   2  18
BRANCH   3  20
ATOM     20  O   UNL     1       6.309  -6.278  26.606  0.00  0.00    -0.278 OA
BRANCH  20  21
ATOM     21  P   UNL     1       5.816  -6.004  28.242  0.00  0.00    +0.473 P 
ATOM     22  O   UNL     1       5.374  -5.759  29.705  0.00  0.00    -0.228 OA
BRANCH  21  23
ATOM     23  O   UNL     1       7.318  -6.533  28.630  0.00  0.00    -0.303 OA
ATOM     24  H   UNL     1       7.855  -5.810  28.999  0.00  0.00    +0.222 HD
ENDBRANCH  21  23
BRANCH  21  25
ATOM     25  O   UNL     1       5.192  -7.514  28.159  0.00  0.00    -0.303 OA
ATOM     26  H   UNL     1       4.906  -7.626  27.232  0.00  0.00    +0.222 HD
ENDBRANCH  21  25
ENDBRANCH  20  21
ENDBRANCH   3  20
TORSDOF 6
ENDMDL
