MODEL 1
REMARK VINA RESULT:      -5.1      0.000      0.000
REMARK  Name = 
REMARK  6 active torsions:
REMARK  status: ('A' for Active; 'I' for Inactive)
REMARK    1  A    between atoms: C_1  and  N_2
REMARK    2  A    between atoms: C_3  and  C_5
REMARK    3  A    between atoms: C_8  and  C_9
REMARK    4  A    between atoms: C_9  and  O_10
REMARK    5  A    between atoms: C_14  and  N_15
REMARK    6  A    between atoms: C_16  and  C_17
REMARK                            x       y       z     vdW  Elec       q    Type
REMARK                         _______ _______ _______ _____ _____    ______ ____
ROOT
ATOM      1  C   UNL     1       6.778  -1.170  24.810  0.00  0.00    +0.065 A 
ATOM      2  C   UNL     1       6.975   0.072  25.466  0.00  0.00    +0.049 A 
ATOM      3  I   UNL     1       6.069   0.456  27.390  0.00  0.00    -0.041 I 
ATOM      4  C   UNL     1       7.943   0.989  24.993  0.00  0.00    +0.061 A 
ATOM      5  C   UNL     1       8.806   0.599  23.939  0.00  0.00    +0.051 A 
ATOM      6  I   UNL     1      10.388   1.965  23.391  0.00  0.00    -0.041 I 
ATOM      7  C   UNL     1       8.650  -0.641  23.285  0.00  0.00    +0.088 A 
ATOM      8  C   UNL     1       7.605  -1.507  23.701  0.00  0.00    +0.042 A 
ATOM      9  I   UNL     1       7.187  -3.290  22.547  0.00  0.00    -0.042 I 
ENDROOT
BRANCH   1  13
ATOM     10  C   UNL     1       5.447  -4.223  26.636  0.00  0.00    +0.128 C 
ATOM     11  N   UNL     1       6.304  -3.155  26.167  0.00  0.00    -0.314 N 
ATOM     12  H   UNL     1       7.299  -3.330  26.166  0.00  0.00    +0.149 HD
ATOM     13  C   UNL     1       5.798  -2.170  25.340  0.00  0.00    +0.246 C 
ATOM     14  O   UNL     1       4.619  -2.108  25.020  0.00  0.00    -0.270 OA
ENDBRANCH   1  13
BRANCH   4  15
ATOM     15  N   UNL     1       8.244   2.185  25.683  0.00  0.00    -0.284 N 
ATOM     16  H   UNL     1       9.205   2.298  25.982  0.00  0.00    +0.155 HD
ATOM     17  C   UNL     1       7.720   3.445  25.515  0.00  0.00    +0.214 C 
ATOM     18  O   UNL     1       8.318   4.392  26.030  0.00  0.00    -0.276 OA
ATOM     19  C   UNL     1       6.493   3.697  24.681  0.00  0.00    +0.109 C 
ENDBRANCH   4  15
BRANCH   7  20
ATOM     20  C   UNL     1       9.647  -1.100  22.272  0.00  0.00    +0.339 C 
ATOM     21  O   UNL     1      10.585  -1.826  22.553  0.00  0.00    -0.245 OA
BRANCH  20  22
ATOM     22  O   UNL     1       9.401  -0.673  21.016  0.00  0.00    -0.477 OA
ATOM     23  H   UNL     1      10.009  -1.000  20.325  0.00  0.00    +0.295 HD
ENDBRANCH  20  22
ENDBRANCH   7  20
TORSDOF 4
ENDMDL
MODEL 2
REMARK VINA RESULT:      -5.0      4.099      6.731
REMARK  Name = 
REMARK  6 active torsions:
REMARK  status: ('A' for Active; 'I' for Inactive)
REMARK    1  A    between atoms: C_1  and  N_2
REMARK    2  A    between atoms: C_3  and  C_5
REMARK    3  A    between atoms: C_8  and  C_9
REMARK    4  A    between atoms: C_9  and  O_10
REMARK    5  A    between atoms: C_14  and  N_15
REMARK    6  A    between atoms: C_16  and  C_17
REMARK                            x       y       z     vdW  Elec       q    Type
REMARK                         _______ _______ _______ _____ _____    ______ ____
ROOT
ATOM      1  C   UNL     1       6.842  -3.909  24.376  0.00  0.00    +0.065 A 
ATOM      2  C   UNL     1       6.415  -3.413  25.634  0.00  0.00    +0.049 A 
ATOM      3  I   UNL     1       7.307  -1.634  26.477  0.00  0.00    -0.041 I 
ATOM      4  C   UNL     1       5.252  -3.930  26.253  0.00  0.00    +0.061 A 
ATOM      5  C   UNL     1       4.444  -4.851  25.542  0.00  0.00    +0.051 A 
ATOM      6  I   UNL     1       2.581  -5.455  26.457  0.00  0.00    -0.041 I 
ATOM      7  C   UNL     1       4.831  -5.342  24.277  0.00  0.00    +0.088 A 
ATOM      8  C   UNL     1       6.055  -4.895  23.715  0.00  0.00    +0.042 A 
ATOM      9  I   UNL     1       6.791  -5.826  21.905  0.00  0.00    -0.042 I 
ENDROOT
BRANCH   1  13
ATOM     10  C   UNL     1       8.881  -1.769  21.991  0.00  0.00    +0.128 C 
ATOM     11  N   UNL     1       7.797  -2.313  22.778  0.00  0.00    -0.314 N 
ATOM     12  H   UNL     1       6.860  -2.195  22.416  0.00  0.00    +0.149 HD
ATOM     13  C   UNL     1       8.037  -3.325  23.688  0.00  0.00    +0.246 C 
ATOM     14  O   UNL     1       9.156  -3.761  23.922  0.00  0.00    -0.270 OA
ENDBRANCH   1  13
BRANCH   4  15
ATOM     15  N   UNL     1       4.734  -3.386  27.450  0.00  0.00    -0.284 N 
ATOM     16  H   UNL     1       3.888  -2.836  27.362  0.00  0.00    +0.155 HD
ATOM     17  C   UNL     1       4.749  -3.907  28.722  0.00  0.00    +0.214 C 
ATOM     18  O   UNL     1       4.003  -3.399  29.563  0.00  0.00    -0.276 OA
ATOM     19  C   UNL     1       5.589  -5.100  29.090  0.00  0.00    +0.109 C 
ENDBRANCH   4  15
BRANCH   7  20
ATOM     20  C   UNL     1       3.908  -6.203  23.478  0.00  0.00    +0.339 C 
ATOM     21  O   UNL     1       3.121  -5.749  22.665  0.00  0.00    -0.245 OA
BRANCH  20  22
ATOM     22  O   UNL     1       4.045  -7.526  23.706  0.00  0.00    -0.477 OA
ATOM     23  H   UNL     1       3.929  -7.815  24.631  0.00  0.00    +0.295 HD
ENDBRANCH  20  22
ENDBRANCH   7  20
TORSDOF 4
ENDMDL
MODEL 3
REMARK VINA RESULT:      -5.0      4.098      6.434
REMARK  Name = 
REMARK  6 active torsions:
REMARK  status: ('A' for Active; 'I' for Inactive)
REMARK    1  A    between atoms: C_1  and  N_2
REMARK    2  A    between atoms: C_3  and  C_5
REMARK    3  A    between atoms: C_8  and  C_9
REMARK    4  A    between atoms: C_9  and  O_10
REMARK    5  A    between atoms: C_14  and  N_15
REMARK    6  A    between atoms: C_16  and  C_17
REMARK                            x       y       z     vdW  Elec       q    Type
REMARK                         _______ _______ _______ _____ _____    ______ ____
ROOT
ATOM      1  C   UNL     1       4.750  -5.230  24.619  0.00  0.00    +0.065 A 
ATOM      2  C   UNL     1       6.020  -4.907  24.075  0.00  0.00    +0.049 A 
ATOM      3  I   UNL     1       6.680  -5.793  22.217  0.00  0.00    -0.041 I 
ATOM      4  C   UNL     1       6.778  -3.838  24.607  0.00  0.00    +0.061 A 
ATOM      5  C   UNL     1       6.199  -3.008  25.599  0.00  0.00    +0.051 A 
ATOM      6  I   UNL     1       7.327  -1.277  26.232  0.00  0.00    -0.041 I 
ATOM      7  C   UNL     1       4.927  -3.290  26.139  0.00  0.00    +0.088 A 
ATOM      8  C   UNL     1       4.222  -4.429  25.671  0.00  0.00    +0.042 A 
ATOM      9  I   UNL     1       2.394  -5.025  26.665  0.00  0.00    -0.042 I 
ENDROOT
BRANCH   1  13
ATOM     10  C   UNL     1       1.993  -6.912  22.620  0.00  0.00    +0.128 C 
ATOM     11  N   UNL     1       2.913  -5.933  23.156  0.00  0.00    -0.314 N 
ATOM     12  H   UNL     1       2.606  -4.970  23.165  0.00  0.00    +0.149 HD
ATOM     13  C   UNL     1       3.916  -6.322  24.023  0.00  0.00    +0.246 C 
ATOM     14  O   UNL     1       4.121  -7.489  24.326  0.00  0.00    -0.270 OA
ENDBRANCH   1  13
BRANCH   4  15
ATOM     15  N   UNL     1       7.994  -3.417  24.023  0.00  0.00    -0.284 N 
ATOM     16  H   UNL     1       8.012  -2.470  23.664  0.00  0.00    +0.155 HD
ATOM     17  C   UNL     1       9.284  -3.748  24.360  0.00  0.00    +0.214 C 
ATOM     18  O   UNL     1      10.197  -3.057  23.902  0.00  0.00    -0.276 OA
ATOM     19  C   UNL     1       9.601  -4.873  25.309  0.00  0.00    +0.109 C 
ENDBRANCH   4  15
BRANCH   7  20
ATOM     20  C   UNL     1       4.268  -2.334  27.081  0.00  0.00    +0.339 C 
ATOM     21  O   UNL     1       4.427  -2.385  28.288  0.00  0.00    -0.245 OA
BRANCH  20  22
ATOM     22  O   UNL     1       3.513  -1.392  26.478  0.00  0.00    -0.477 OA
ATOM     23  H   UNL     1       3.782  -1.142  25.574  0.00  0.00    +0.295 HD
ENDBRANCH  20  22
ENDBRANCH   7  20
TORSDOF 4
ENDMDL
MODEL 4
REMARK VINA RESULT:      -4.9      2.589      4.529
REMARK  Name = 
REMARK  6 active torsions:
REMARK  status: ('A' for Active; 'I' for Inactive)
REMARK    1  A    between atoms: C_1  and  N_2
REMARK    2  A    between atoms: C_3  and  C_5
REMARK    3  A    between atoms: C_8  and  C_9
REMARK    4  A    between atoms: C_9  and  O_10
REMARK    5  A    between atoms: C_14  and  N_15
REMARK    6  A    between atoms: C_16  and  C_17
REMARK                            x       y       z     vdW  Elec       q    Type
REMARK                         _______ _______ _______ _____ _____    ______ ____
ROOT
ATOM      1  C   UNL     1       7.568  -2.733  24.224  0.00  0.00    +0.065 A 
ATOM      2  C   UNL     1       8.215  -1.530  23.841  0.00  0.00    +0.049 A 
ATOM      3  I   UNL     1       9.393  -1.441  22.032  0.00  0.00    -0.041 I 
ATOM      4  C   UNL     1       7.920  -0.315  24.502  0.00  0.00    +0.061 A 
ATOM      5  C   UNL     1       6.875  -0.285  25.459  0.00  0.00    +0.051 A 
ATOM      6  I   UNL     1       6.341   1.636  26.291  0.00  0.00    -0.041 I 
ATOM      7  C   UNL     1       6.197  -1.462  25.839  0.00  0.00    +0.088 A 
ATOM      8  C   UNL     1       6.576  -2.694  25.245  0.00  0.00    +0.042 A 
ATOM      9  I   UNL     1       5.732  -4.538  26.000  0.00  0.00    -0.042 I 
ENDROOT
BRANCH   1  13
ATOM     10  C   UNL     1       7.098  -5.574  21.747  0.00  0.00    +0.128 C 
ATOM     11  N   UNL     1       6.983  -4.310  22.440  0.00  0.00    -0.314 N 
ATOM     12  H   UNL     1       6.095  -3.830  22.379  0.00  0.00    +0.149 HD
ATOM     13  C   UNL     1       7.831  -4.012  23.490  0.00  0.00    +0.246 C 
ATOM     14  O   UNL     1       8.743  -4.748  23.840  0.00  0.00    -0.270 OA
ENDBRANCH   1  13
BRANCH   4  15
ATOM     15  N   UNL     1       8.460   0.920  24.078  0.00  0.00    -0.284 N 
ATOM     16  H   UNL     1       7.807   1.691  24.003  0.00  0.00    +0.155 HD
ATOM     17  C   UNL     1       9.700   1.460  24.323  0.00  0.00    +0.214 C 
ATOM     18  O   UNL     1       9.863   2.661  24.093  0.00  0.00    -0.276 OA
ATOM     19  C   UNL     1      10.822   0.653  24.917  0.00  0.00    +0.109 C 
ENDBRANCH   4  15
BRANCH   7  20
ATOM     20  C   UNL     1       5.008  -1.400  26.743  0.00  0.00    +0.339 C 
ATOM     21  O   UNL     1       5.101  -1.437  27.958  0.00  0.00    -0.245 OA
BRANCH  20  22
ATOM     22  O   UNL     1       3.829  -1.264  26.101  0.00  0.00    -0.477 OA
ATOM     23  H   UNL     1       3.029  -1.352  26.652  0.00  0.00    +0.295 HD
ENDBRANCH  20  22
ENDBRANCH   7  20
TORSDOF 4
ENDMDL
MODEL 5
REMARK VINA RESULT:      -4.9      3.144      5.385
REMARK  Name = 
REMARK  6 active torsions:
REMARK  status: ('A' for Active; 'I' for Inactive)
REMARK    1  A    between atoms: C_1  and  N_2
REMARK    2  A    between atoms: C_3  and  C_5
REMARK    3  A    between atoms: C_8  and  C_9
REMARK    4  A    between atoms: C_9  and  O_10
REMARK    5  A    between atoms: C_14  and  N_15
REMARK    6  A    between atoms: C_16  and  C_17
REMARK                            x       y       z     vdW  Elec       q    Type
REMARK                         _______ _______ _______ _____ _____    ______ ____
ROOT
ATOM      1  C   UNL     1       6.006  -1.758  26.422  0.00  0.00    +0.065 A 
ATOM      2  C   UNL     1       7.143  -1.431  25.640  0.00  0.00    +0.049 A 
ATOM      3  I   UNL     1       7.731   0.631  25.362  0.00  0.00    -0.041 I 
ATOM      4  C   UNL     1       8.041  -2.439  25.220  0.00  0.00    +0.061 A 
ATOM      5  C   UNL     1       7.869  -3.761  25.701  0.00  0.00    +0.051 A 
ATOM      6  I   UNL     1       9.381  -5.215  25.183  0.00  0.00    -0.041 I 
ATOM      7  C   UNL     1       6.761  -4.110  26.501  0.00  0.00    +0.088 A 
ATOM      8  C   UNL     1       5.809  -3.109  26.827  0.00  0.00    +0.042 A 
ATOM      9  I   UNL     1       3.977  -3.677  27.831  0.00  0.00    -0.042 I 
ENDROOT
BRANCH   1  13
ATOM     10  C   UNL     1       4.415   0.746  28.793  0.00  0.00    +0.128 C 
ATOM     11  N   UNL     1       5.322  -0.208  28.194  0.00  0.00    -0.314 N 
ATOM     12  H   UNL     1       5.898  -0.753  28.821  0.00  0.00    +0.149 HD
ATOM     13  C   UNL     1       5.084  -0.689  26.920  0.00  0.00    +0.246 C 
ATOM     14  O   UNL     1       4.159  -0.297  26.221  0.00  0.00    -0.270 OA
ENDBRANCH   1  13
BRANCH   4  15
ATOM     15  N   UNL     1       9.241  -2.138  24.536  0.00  0.00    -0.284 N 
ATOM     16  H   UNL     1      10.095  -2.479  24.961  0.00  0.00    +0.155 HD
ATOM     17  C   UNL     1       9.472  -2.037  23.185  0.00  0.00    +0.214 C 
ATOM     18  O   UNL     1      10.643  -2.039  22.797  0.00  0.00    -0.276 OA
ATOM     19  C   UNL     1       8.352  -1.990  22.181  0.00  0.00    +0.109 C 
ENDBRANCH   4  15
BRANCH   7  20
ATOM     20  C   UNL     1       6.661  -5.469  27.115  0.00  0.00    +0.339 C 
ATOM     21  O   UNL     1       7.145  -5.738  28.201  0.00  0.00    -0.245 OA
BRANCH  20  22
ATOM     22  O   UNL     1       5.960  -6.360  26.383  0.00  0.00    -0.477 OA
ATOM     23  H   UNL     1       6.287  -6.521  25.478  0.00  0.00    +0.295 HD
ENDBRANCH  20  22
ENDBRANCH   7  20
TORSDOF 4
ENDMDL
MODEL 6
REMARK VINA RESULT:      -4.7      2.660      6.436
REMARK  Name = 
REMARK  6 active torsions:
REMARK  status: ('A' for Active; 'I' for Inactive)
REMARK    1  A    between atoms: C_1  and  N_2
REMARK    2  A    between atoms: C_3  and  C_5
REMARK    3  A    between atoms: C_8  and  C_9
REMARK    4  A    between atoms: C_9  and  O_10
REMARK    5  A    between atoms: C_14  and  N_15
REMARK    6  A    between atoms: C_16  and  C_17
REMARK                            x       y       z     vdW  Elec       q    Type
REMARK                         _______ _______ _______ _____ _____    ______ ____
ROOT
ATOM      1  C   UNL     1       7.259   0.226  23.684  0.00  0.00    +0.065 A 
ATOM      2  C   UNL     1       7.840  -1.037  23.406  0.00  0.00    +0.049 A 
ATOM      3  I   UNL     1       9.712  -1.176  22.334  0.00  0.00    -0.041 I 
ATOM      4  C   UNL     1       7.335  -2.209  24.015  0.00  0.00    +0.061 A 
ATOM      5  C   UNL     1       6.331  -2.094  25.008  0.00  0.00    +0.051 A 
ATOM      6  I   UNL     1       5.739  -3.897  26.041  0.00  0.00    -0.041 I 
ATOM      7  C   UNL     1       5.753  -0.846  25.324  0.00  0.00    +0.088 A 
ATOM      8  C   UNL     1       6.196   0.309  24.627  0.00  0.00    +0.042 A 
ATOM      9  I   UNL     1       5.147   2.181  24.909  0.00  0.00    -0.042 I 
ENDROOT
BRANCH   1  13
ATOM     10  C   UNL     1       9.237   3.458  23.415  0.00  0.00    +0.128 C 
ATOM     11  N   UNL     1       8.725   2.184  23.868  0.00  0.00    -0.314 N 
ATOM     12  H   UNL     1       8.758   2.000  24.861  0.00  0.00    +0.149 HD
ATOM     13  C   UNL     1       7.826   1.479  23.090  0.00  0.00    +0.246 C 
ATOM     14  O   UNL     1       7.474   1.847  21.977  0.00  0.00    -0.270 OA
ENDBRANCH   1  13
BRANCH   4  15
ATOM     15  N   UNL     1       7.956  -3.468  23.849  0.00  0.00    -0.284 N 
ATOM     16  H   UNL     1       8.366  -3.877  24.680  0.00  0.00    +0.155 HD
ATOM     17  C   UNL     1       7.616  -4.505  23.012  0.00  0.00    +0.214 C 
ATOM     18  O   UNL     1       8.122  -5.609  23.226  0.00  0.00    -0.276 OA
ATOM     19  C   UNL     1       6.611  -4.343  21.904  0.00  0.00    +0.109 C 
ENDBRANCH   4  15
BRANCH   7  20
ATOM     20  C   UNL     1       4.798  -0.714  26.465  0.00  0.00    +0.339 C 
ATOM     21  O   UNL     1       3.595  -0.869  26.339  0.00  0.00    -0.245 OA
BRANCH  20  22
ATOM     22  O   UNL     1       5.383  -0.445  27.651  0.00  0.00    -0.477 OA
ATOM     23  H   UNL     1       5.296   0.473  27.972  0.00  0.00    +0.295 HD
ENDBRANCH  20  22
ENDBRANCH   7  20
TORSDOF 4
ENDMDL
MODEL 7
REMARK VINA RESULT:      -4.7      2.825      4.747
REMARK  Name = 
REMARK  6 active torsions:
REMARK  status: ('A' for Active; 'I' for Inactive)
REMARK    1  A    between atoms: C_1  and  N_2
REMARK    2  A    between atoms: C_3  and  C_5
REMARK    3  A    between atoms: C_8  and  C_9
REMARK    4  A    between atoms: C_9  and  O_10
REMARK    5  A    between atoms: C_14  and  N_15
REMARK    6  A    between atoms: C_16  and  C_17
REMARK                            x       y       z     vdW  Elec       q    Type
REMARK                         _______ _______ _______ _____ _____    ______ ____
ROOT
ATOM      1  C   UNL     1       7.520  -3.091  24.343  0.00  0.00    +0.065 A 
ATOM      2  C   UNL     1       6.649  -3.235  25.453  0.00  0.00    +0.049 A 
ATOM      3  I   UNL     1       5.971  -5.192  26.073  0.00  0.00    -0.041 I 
ATOM      4  C   UNL     1       6.390  -2.140  26.310  0.00  0.00    +0.061 A 
ATOM      5  C   UNL     1       7.113  -0.936  26.129  0.00  0.00    +0.051 A 
ATOM      6  I   UNL     1       6.818   0.632  27.586  0.00  0.00    -0.041 I 
ATOM      7  C   UNL     1       8.006  -0.773  25.049  0.00  0.00    +0.088 A 
ATOM      8  C   UNL     1       8.176  -1.844  24.134  0.00  0.00    +0.042 A 
ATOM      9  I   UNL     1       9.336  -1.525  22.335  0.00  0.00    -0.042 I 
ENDROOT
BRANCH   1  13
ATOM     10  C   UNL     1       7.193  -5.641  21.548  0.00  0.00    +0.128 C 
ATOM     11  N   UNL     1       7.015  -4.474  22.383  0.00  0.00    -0.314 N 
ATOM     12  H   UNL     1       6.105  -4.034  22.372  0.00  0.00    +0.149 HD
ATOM     13  C   UNL     1       7.846  -4.260  23.466  0.00  0.00    +0.246 C 
ATOM     14  O   UNL     1       8.793  -4.987  23.735  0.00  0.00    -0.270 OA
ENDBRANCH   1  13
BRANCH   4  15
ATOM     15  N   UNL     1       5.617  -2.275  27.486  0.00  0.00    -0.284 N 
ATOM     16  H   UNL     1       6.043  -1.939  28.341  0.00  0.00    +0.155 HD
ATOM     17  C   UNL     1       4.255  -2.185  27.649  0.00  0.00    +0.214 C 
ATOM     18  O   UNL     1       3.817  -2.060  28.795  0.00  0.00    -0.276 OA
ATOM     19  C   UNL     1       3.307  -2.172  26.480  0.00  0.00    +0.109 C 
ENDBRANCH   4  15
BRANCH   7  20
ATOM     20  C   UNL     1       8.865   0.446  24.946  0.00  0.00    +0.339 C 
ATOM     21  O   UNL     1       8.520   1.445  24.339  0.00  0.00    -0.245 OA
BRANCH  20  22
ATOM     22  O   UNL     1      10.036   0.358  25.610  0.00  0.00    -0.477 OA
ATOM     23  H   UNL     1      10.464   1.205  25.836  0.00  0.00    +0.295 HD
ENDBRANCH  20  22
ENDBRANCH   7  20
TORSDOF 4
ENDMDL
MODEL 8
REMARK VINA RESULT:      -4.7      1.498      4.813
REMARK  Name = 
REMARK  6 active torsions:
REMARK  status: ('A' for Active; 'I' for Inactive)
REMARK    1  A    between atoms: C_1  and  N_2
REMARK    2  A    between atoms: C_3  and  C_5
REMARK    3  A    between atoms: C_8  and  C_9
REMARK    4  A    between atoms: C_9  and  O_10
REMARK    5  A    between atoms: C_14  and  N_15
REMARK    6  A    between atoms: C_16  and  C_17
REMARK                            x       y       z     vdW  Elec       q    Type
REMARK                         _______ _______ _______ _____ _____    ______ ____
ROOT
ATOM      1  C   UNL     1       7.932   0.903  24.862  0.00  0.00    +0.065 A 
ATOM      2  C   UNL     1       7.379   0.042  25.843  0.00  0.00    +0.049 A 
ATOM      3  I   UNL     1       5.804   0.734  27.153  0.00  0.00    -0.041 I 
ATOM      4  C   UNL     1       7.677  -1.340  25.836  0.00  0.00    +0.061 A 
ATOM      5  C   UNL     1       8.425  -1.880  24.761  0.00  0.00    +0.051 A 
ATOM      6  I   UNL     1       8.682  -4.025  24.703  0.00  0.00    -0.041 I 
ATOM      7  C   UNL     1       8.966  -1.050  23.756  0.00  0.00    +0.088 A 
ATOM      8  C   UNL     1       8.748   0.350  23.834  0.00  0.00    +0.042 A 
ATOM      9  I   UNL     1       9.782   1.661  22.456  0.00  0.00    -0.042 I 
ENDROOT
BRANCH   1  13
ATOM     10  C   UNL     1       7.971   4.599  25.738  0.00  0.00    +0.128 C 
ATOM     11  N   UNL     1       8.319   3.199  25.629  0.00  0.00    -0.314 N 
ATOM     12  H   UNL     1       8.864   2.800  26.381  0.00  0.00    +0.149 HD
ATOM     13  C   UNL     1       7.574   2.357  24.827  0.00  0.00    +0.246 C 
ATOM     14  O   UNL     1       6.646   2.746  24.130  0.00  0.00    -0.270 OA
ENDBRANCH   1  13
BRANCH   4  15
ATOM     15  N   UNL     1       7.059  -2.246  26.728  0.00  0.00    -0.284 N 
ATOM     16  H   UNL     1       7.284  -2.131  27.709  0.00  0.00    +0.155 HD
ATOM     17  C   UNL     1       5.811  -2.819  26.663  0.00  0.00    +0.214 C 
ATOM     18  O   UNL     1       5.369  -3.359  27.680  0.00  0.00    -0.276 OA
ATOM     19  C   UNL     1       4.960  -2.749  25.423  0.00  0.00    +0.109 C 
ENDBRANCH   4  15
BRANCH   7  20
ATOM     20  C   UNL     1       9.634  -1.640  22.556  0.00  0.00    +0.339 C 
ATOM     21  O   UNL     1      10.824  -1.903  22.528  0.00  0.00    -0.245 OA
BRANCH  20  22
ATOM     22  O   UNL     1       8.802  -1.888  21.524  0.00  0.00    -0.477 OA
ATOM     23  H   UNL     1       8.817  -2.798  21.172  0.00  0.00    +0.295 HD
ENDBRANCH  20  22
ENDBRANCH   7  20
TORSDOF 4
ENDMDL
MODEL 9
REMARK VINA RESULT:      -4.6      2.416      2.652
REMARK  Name = 
REMARK  6 active torsions:
REMARK  status: ('A' for Active; 'I' for Inactive)
REMARK    1  A    between atoms: C_1  and  N_2
REMARK    2  A    between atoms: C_3  and  C_5
REMARK    3  A    between atoms: C_8  and  C_9
REMARK    4  A    between atoms: C_9  and  O_10
REMARK    5  A    between atoms: C_14  and  N_15
REMARK    6  A    between atoms: C_16  and  C_17
REMARK                            x       y       z     vdW  Elec       q    Type
REMARK                         _______ _______ _______ _____ _____    ______ ____
ROOT
ATOM      1  C   UNL     1       7.644  -0.422  24.434  0.00  0.00    +0.065 A 
ATOM      2  C   UNL     1       6.711   0.473  25.017  0.00  0.00    +0.049 A 
ATOM      3  I   UNL     1       5.289  -0.222  26.489  0.00  0.00    -0.041 I 
ATOM      4  C   UNL     1       6.838   1.868  24.824  0.00  0.00    +0.061 A 
ATOM      5  C   UNL     1       7.981   2.372  24.155  0.00  0.00    +0.051 A 
ATOM      6  I   UNL     1       8.216   4.518  24.061  0.00  0.00    -0.041 I 
ATOM      7  C   UNL     1       8.938   1.505  23.588  0.00  0.00    +0.088 A 
ATOM      8  C   UNL     1       8.743   0.103  23.697  0.00  0.00    +0.042 A 
ATOM      9  I   UNL     1      10.055  -1.236  22.616  0.00  0.00    -0.042 I 
ENDROOT
BRANCH   1  13
ATOM     10  C   UNL     1       8.362  -3.824  25.963  0.00  0.00    +0.128 C 
ATOM     11  N   UNL     1       8.310  -2.399  25.723  0.00  0.00    -0.314 N 
ATOM     12  H   UNL     1       9.073  -1.842  26.082  0.00  0.00    +0.149 HD
ATOM     13  C   UNL     1       7.551  -1.896  24.683  0.00  0.00    +0.246 C 
ATOM     14  O   UNL     1       6.847  -2.599  23.970  0.00  0.00    -0.270 OA
ENDBRANCH   1  13
BRANCH   4  15
ATOM     15  N   UNL     1       5.995   2.796  25.477  0.00  0.00    -0.284 N 
ATOM     16  H   UNL     1       6.449   3.438  26.116  0.00  0.00    +0.155 HD
ATOM     17  C   UNL     1       4.858   3.416  25.017  0.00  0.00    +0.214 C 
ATOM     18  O   UNL     1       4.437   4.391  25.644  0.00  0.00    -0.276 OA
ATOM     19  C   UNL     1       4.164   2.983  23.754  0.00  0.00    +0.109 C 
ENDBRANCH   4  15
BRANCH   7  20
ATOM     20  C   UNL     1      10.206   2.042  23.007  0.00  0.00    +0.339 C 
ATOM     21  O   UNL     1      11.199   2.259  23.681  0.00  0.00    -0.245 OA
BRANCH  20  22
ATOM     22  O   UNL     1      10.169   2.233  21.672  0.00  0.00    -0.477 OA
ATOM     23  H   UNL     1      10.569   3.062  21.347  0.00  0.00    +0.295 HD
ENDBRANCH  20  22
ENDBRANCH   7  20
TORSDOF 4
ENDMDL
