MODEL 1
REMARK VINA RESULT:      18.1      0.000      0.000
REMARK  Name = 
REMARK  24 active torsions:
REMARK  status: ('A' for Active; 'I' for Inactive)
REMARK    1  A    between atoms: CG2_1  and  CB_2
REMARK    2  A    between atoms: CB_2  and  OG1_4
REMARK    3  A    between atoms: CB_2  and  CA_5
REMARK    4  A    between atoms: CA_5  and  C_7
REMARK    5  A    between atoms: CA_5  and  N_9
REMARK    6  A    between atoms: C_7  and  O_8
REMARK    7  A    between atoms: C_10  and  CA_12
REMARK    8  A    between atoms: CA_18  and  N_20
REMARK    9  A    between atoms: C_21  and  CA_23
REMARK   10  A    between atoms: CA_23  and  N_25
REMARK   11  A    between atoms: CA_23  and  CB_26
REMARK   12  A    between atoms: CB_26  and  CG_27
REMARK   13  A    between atoms: CA_36  and  CB_38
REMARK   14  A    between atoms: CB_38  and  CG_39
REMARK   15  A    between atoms: CA_48  and  CB_50
REMARK   16  A    between atoms: CB_50  and  CG_51
REMARK   17  A    between atoms: CA_63  and  CB_65
REMARK   18  A    between atoms: CB_65  and  CG_66
REMARK   19  A    between atoms: CG_66  and  CD_67
REMARK   20  A    between atoms: CD_67  and  CE_68
REMARK   21  A    between atoms: CE_68  and  NZ_69
REMARK   22  A    between atoms: CA_73  and  CB_75
REMARK   23  A    between atoms: CB_75  and  CG2_76
REMARK   24  A    between atoms: CB_75  and  OG1_77
REMARK                            x       y       z     vdW  Elec       q    Type
REMARK                         _______ _______ _______ _____ _____    ______ ____
ROOT
ATOM      1  CA  CYS A   7       8.984   1.462  24.381  0.00  0.00    +0.169 C 
ATOM      2  N   CYS A   7       7.613   0.036  25.728  0.00  0.00    -0.302 N 
ATOM      3  H   CYS A   7       8.168  -0.767  25.475  0.00  0.00    +0.150 HD
ATOM      4  C   THR A   6       6.116  -1.102  26.953  0.00  0.00    +0.237 C 
ATOM      5  O   THR A   6       6.642  -2.054  27.739  0.00  0.00    -0.274 OA
ATOM      6  CA  THR A   6       4.611  -2.576  28.346  0.00  0.00    +0.187 C 
ATOM      7  N   THR A   6       3.259  -4.094  28.577  0.00  0.00    -0.300 N 
ATOM      8  H   THR A   6       3.658  -4.852  29.242  0.00  0.00    +0.150 HD
ATOM      9  C   LYS A   5       1.548  -4.818  28.394  0.00  0.00    +0.234 C 
ATOM     10  O   LYS A   5       0.444  -4.328  28.091  0.00  0.00    -0.274 OA
ATOM     11  CA  LYS A   5       2.131  -6.419  28.721  0.00  0.00    +0.159 C 
ATOM     12  N   LYS A   5       2.556  -5.830  27.255  0.00  0.00    -0.302 N 
ATOM     13  H   LYS A   5       2.311  -4.848  27.072  0.00  0.00    +0.150 HD
ATOM     14  C   TRP A   4       3.662  -5.127  26.946  0.00  0.00    +0.234 C 
ATOM     15  O   TRP A   4       4.703  -5.650  27.351  0.00  0.00    -0.274 OA
ATOM     16  CA  TRP A   4       3.254  -3.194  26.768  0.00  0.00    +0.163 C 
ATOM     17  N   TRP A   4       4.432  -3.515  26.057  0.00  0.00    -0.302 N 
ATOM     18  H   TRP A   4       5.190  -4.063  26.515  0.00  0.00    +0.150 HD
ATOM     19  C   PHE A   3       4.841  -2.514  25.352  0.00  0.00    +0.234 C 
ATOM     20  O   PHE A   3       4.050  -1.570  25.207  0.00  0.00    -0.274 OA
ATOM     21  CA  PHE A   3       6.348  -2.607  25.046  0.00  0.00    +0.163 C 
ATOM     22  N   PHE A   3       6.115  -1.414  24.323  0.00  0.00    -0.302 N 
ATOM     23  H   PHE A   3       5.617  -0.594  24.709  0.00  0.00    +0.150 HD
ATOM     24  C   CYS A   2       6.875  -1.286  23.270  0.00  0.00    +0.235 C 
ATOM     25  O   CYS A   2       7.261  -2.271  22.657  0.00  0.00    -0.274 OA
ATOM     26  CA  CYS A   2       7.344   0.109  23.132  0.00  0.00    +0.169 C 
ATOM     27  CB  CYS A   2       8.914  -0.410  22.423  0.00  0.00    +0.112 C 
ATOM     28  SG  CYS A   2       8.552   0.146  20.756  0.00  0.00    -0.091 S 
ATOM     29  SG  CYS A   7      10.093   1.294  20.971  0.00  0.00    -0.091 S 
ATOM     30  CB  CYS A   7       8.843   2.427  22.501  0.00  0.00    +0.112 C 
ENDROOT
BRANCH   1  33
ATOM     31  N   THR A   8      11.795   3.376  21.255  0.00  0.00    -0.306 N 
ATOM     32  H   THR A   8      12.485   3.893  21.845  0.00  0.00    +0.149 HD
ATOM     33  C   CYS A   7      10.558   2.728  22.860  0.00  0.00    +0.235 C 
ATOM     34  O   CYS A   7      11.003   3.722  23.507  0.00  0.00    -0.274 OA
BRANCH  31  35
ATOM     35  CA  THR A   8      13.221   4.331  19.734  0.00  0.00    +0.126 C 
BRANCH  35  37
ATOM     36  CG2 THR A   8      16.140   7.105  18.413  0.00  0.00    +0.039 C 
ATOM     37  CB  THR A   8      15.036   5.325  18.791  0.00  0.00    +0.134 C 
BRANCH  37  38
ATOM     38  OG1 THR A   8      16.749   4.937  18.436  0.00  0.00    -0.390 OA
ATOM     39  HG1 THR A   8      17.479   5.711  18.591  0.00  0.00    +0.210 HD
ENDBRANCH  37  38
ENDBRANCH  35  37
BRANCH  35  40
ATOM     40  C   THR A   8      13.589   4.311  17.674  0.00  0.00    +0.180 C 
BRANCH  40  41
ATOM     41  O   THR A   8      13.218   5.231  16.184  0.00  0.00    -0.393 OA
ATOM     42  H   THR A   8      13.453   5.134  15.200  0.00  0.00    +0.209 HD
ENDBRANCH  40  41
ENDBRANCH  35  40
ENDBRANCH  31  35
ENDBRANCH   1  33
BRANCH  26  43
ATOM     43  N   CYS A   2       6.920   1.376  24.339  0.00  0.00    -0.302 N 
ATOM     44  H   CYS A   2       7.552   2.239  24.334  0.00  0.00    +0.150 HD
ATOM     45  C   PHE A   1       5.797   1.887  24.914  0.00  0.00    +0.231 C 
ATOM     46  O   PHE A   1       4.872   1.121  25.120  0.00  0.00    -0.274 OA
BRANCH  45  47
ATOM     47  CA  PHE A   1       5.796   3.423  25.363  0.00  0.00    +0.142 C 
BRANCH  47  48
ATOM     48  N   PHE A   1       4.452   4.108  25.535  0.00  0.00    -0.320 NA
ATOM     49  H1  PHE A   1       4.401   4.649  26.399  0.00  0.00    +0.119 HD
ATOM     50  H2  PHE A   1       4.402   4.871  24.827  0.00  0.00    +0.119 HD
ENDBRANCH  47  48
BRANCH  47  51
ATOM     51  CB  PHE A   1       6.605   4.113  24.260  0.00  0.00    +0.063 C 
BRANCH  51  52
ATOM     52  CG  PHE A   1       7.461   5.207  24.797  0.00  0.00    -0.045 A 
ATOM     53  CD2 PHE A   1       7.710   5.236  26.165  0.00  0.00    +0.004 A 
ATOM     54  CE2 PHE A   1       8.705   6.063  26.640  0.00  0.00    +0.000 A 
ATOM     55  CZ  PHE A   1       9.509   6.774  25.748  0.00  0.00    +0.000 A 
ATOM     56  CE1 PHE A   1       9.180   6.835  24.399  0.00  0.00    +0.000 A 
ATOM     57  CD1 PHE A   1       8.107   6.096  23.931  0.00  0.00    +0.004 A 
ENDBRANCH  51  52
ENDBRANCH  47  51
ENDBRANCH  45  47
ENDBRANCH  26  43
BRANCH   6  58
ATOM     58  CB  THR A   6       2.691  -3.370  29.586  0.00  0.00    +0.141 C 
ATOM     59  CG2 THR A   6       1.219  -4.759  30.485  0.00  0.00    +0.040 C 
BRANCH  58  60
ATOM     60  OG1 THR A   6       1.087  -3.004  30.454  0.00  0.00    -0.390 OA
ATOM     61  HG1 THR A   6       0.426  -2.172  30.563  0.00  0.00    +0.210 HD
ENDBRANCH  58  60
ENDBRANCH   6  58
BRANCH  16  62
ATOM     62  CB  TRP A   4       3.245  -1.496  27.871  0.00  0.00    +0.069 C 
BRANCH  62  63
ATOM     63  CG  TRP A   4       2.082  -0.762  27.747  0.00  0.00    -0.020 A 
ATOM     64  CD2 TRP A   4       1.763   0.539  28.222  0.00  0.00    +0.003 A 
ATOM     65  CE3 TRP A   4       2.218   1.498  29.257  0.00  0.00    +0.010 A 
ATOM     66  CZ3 TRP A   4       1.645   2.742  29.263  0.00  0.00    +0.001 A 
ATOM     67  CH2 TRP A   4       0.818   3.046  28.193  0.00  0.00    +0.002 A 
ATOM     68  CZ2 TRP A   4       0.445   2.129  27.178  0.00  0.00    +0.026 A 
ATOM     69  CE2 TRP A   4       0.850   0.826  27.264  0.00  0.00    +0.047 A 
ATOM     70  NE1 TRP A   4       0.681  -0.276  26.429  0.00  0.00    -0.360 N 
ATOM     71  HE1 TRP A   4       0.398  -0.257  25.482  0.00  0.00    +0.165 HD
ATOM     72  CD1 TRP A   4       1.324  -1.361  26.846  0.00  0.00    +0.087 A 
ENDBRANCH  62  63
ENDBRANCH  16  62
BRANCH  21  73
ATOM     73  CB  PHE A   3       7.810  -2.684  26.044  0.00  0.00    +0.067 C 
BRANCH  73  74
ATOM     74  CG  PHE A   3       8.585  -3.950  25.881  0.00  0.00    -0.045 A 
ATOM     75  CD2 PHE A   3       8.017  -5.235  25.998  0.00  0.00    +0.004 A 
ATOM     76  CE2 PHE A   3       8.818  -6.349  25.799  0.00  0.00    +0.000 A 
ATOM     77  CZ  PHE A   3      10.107  -6.177  25.305  0.00  0.00    +0.000 A 
ATOM     78  CE1 PHE A   3      10.650  -4.904  25.176  0.00  0.00    +0.000 A 
ATOM     79  CD1 PHE A   3       9.919  -3.804  25.562  0.00  0.00    +0.004 A 
ENDBRANCH  73  74
ENDBRANCH  21  73
BRANCH  11  80
ATOM     80  CB  LYS A   5       3.126  -6.702  30.298  0.00  0.00    +0.032 C 
BRANCH  80  81
ATOM     81  CG  LYS A   5       4.291  -7.762  30.140  0.00  0.00    +0.003 C 
BRANCH  81  82
ATOM     82  CD  LYS A   5       5.371  -7.706  28.997  0.00  0.00    +0.015 C 
BRANCH  82  83
ATOM     83  CE  LYS A   5       6.730  -7.303  29.630  0.00  0.00    +0.077 C 
BRANCH  83  84
ATOM     84  NZ  LYS A   5       7.412  -6.269  28.859  0.00  0.00    -0.330 NA
ATOM     85  HZ1 LYS A   5       7.914  -6.698  28.080  0.00  0.00    +0.118 HD
ATOM     86  HZ2 LYS A   5       6.725  -5.645  28.439  0.00  0.00    +0.118 HD
ENDBRANCH  83  84
ENDBRANCH  82  83
ENDBRANCH  81  82
ENDBRANCH  80  81
ENDBRANCH  11  80
TORSDOF 22
ENDMDL
MODEL 2
REMARK VINA RESULT:      18.3      1.236      1.795
REMARK  Name = 
REMARK  24 active torsions:
REMARK  status: ('A' for Active; 'I' for Inactive)
REMARK    1  A    between atoms: CG2_1  and  CB_2
REMARK    2  A    between atoms: CB_2  and  OG1_4
REMARK    3  A    between atoms: CB_2  and  CA_5
REMARK    4  A    between atoms: CA_5  and  C_7
REMARK    5  A    between atoms: CA_5  and  N_9
REMARK    6  A    between atoms: C_7  and  O_8
REMARK    7  A    between atoms: C_10  and  CA_12
REMARK    8  A    between atoms: CA_18  and  N_20
REMARK    9  A    between atoms: C_21  and  CA_23
REMARK   10  A    between atoms: CA_23  and  N_25
REMARK   11  A    between atoms: CA_23  and  CB_26
REMARK   12  A    between atoms: CB_26  and  CG_27
REMARK   13  A    between atoms: CA_36  and  CB_38
REMARK   14  A    between atoms: CB_38  and  CG_39
REMARK   15  A    between atoms: CA_48  and  CB_50
REMARK   16  A    between atoms: CB_50  and  CG_51
REMARK   17  A    between atoms: CA_63  and  CB_65
REMARK   18  A    between atoms: CB_65  and  CG_66
REMARK   19  A    between atoms: CG_66  and  CD_67
REMARK   20  A    between atoms: CD_67  and  CE_68
REMARK   21  A    between atoms: CE_68  and  NZ_69
REMARK   22  A    between atoms: CA_73  and  CB_75
REMARK   23  A    between atoms: CB_75  and  CG2_76
REMARK   24  A    between atoms: CB_75  and  OG1_77
REMARK                            x       y       z     vdW  Elec       q    Type
REMARK                         _______ _______ _______ _____ _____    ______ ____
ROOT
ATOM      1  CA  CYS A   7       8.833   1.330  24.374  0.00  0.00    +0.169 C 
ATOM      2  N   CYS A   7       7.518  -0.170  25.696  0.00  0.00    -0.302 N 
ATOM      3  H   CYS A   7       8.063  -0.957  25.377  0.00  0.00    +0.150 HD
ATOM      4  C   THR A   6       6.072  -1.376  26.916  0.00  0.00    +0.237 C 
ATOM      5  O   THR A   6       6.629  -2.368  27.628  0.00  0.00    -0.274 OA
ATOM      6  CA  THR A   6       4.624  -2.926  28.287  0.00  0.00    +0.187 C 
ATOM      7  N   THR A   6       3.283  -4.458  28.489  0.00  0.00    -0.300 N 
ATOM      8  H   THR A   6       3.709  -5.250  29.096  0.00  0.00    +0.150 HD
ATOM      9  C   LYS A   5       1.566  -5.175  28.336  0.00  0.00    +0.234 C 
ATOM     10  O   LYS A   5       0.451  -4.673  28.105  0.00  0.00    -0.274 OA
ATOM     11  CA  LYS A   5       2.163  -6.791  28.553  0.00  0.00    +0.159 C 
ATOM     12  N   LYS A   5       2.528  -6.122  27.105  0.00  0.00    -0.302 N 
ATOM     13  H   LYS A   5       2.275  -5.132  26.985  0.00  0.00    +0.150 HD
ATOM     14  C   TRP A   4       3.621  -5.400  26.790  0.00  0.00    +0.234 C 
ATOM     15  O   TRP A   4       4.677  -5.942  27.124  0.00  0.00    -0.274 OA
ATOM     16  CA  TRP A   4       3.205  -3.462  26.734  0.00  0.00    +0.163 C 
ATOM     17  N   TRP A   4       4.353  -3.741  25.959  0.00  0.00    -0.302 N 
ATOM     18  H   TRP A   4       5.129  -4.311  26.356  0.00  0.00    +0.150 HD
ATOM     19  C   PHE A   3       4.734  -2.702  25.293  0.00  0.00    +0.234 C 
ATOM     20  O   PHE A   3       3.937  -1.754  25.231  0.00  0.00    -0.274 OA
ATOM     21  CA  PHE A   3       6.227  -2.776  24.923  0.00  0.00    +0.163 C 
ATOM     22  N   PHE A   3       5.966  -1.546  24.275  0.00  0.00    -0.302 N 
ATOM     23  H   PHE A   3       5.483  -0.749  24.725  0.00  0.00    +0.150 HD
ATOM     24  C   CYS A   2       6.682  -1.359  23.201  0.00  0.00    +0.235 C 
ATOM     25  O   CYS A   2       7.044  -2.309  22.521  0.00  0.00    -0.274 OA
ATOM     26  CA  CYS A   2       7.145   0.042  23.120  0.00  0.00    +0.169 C 
ATOM     27  CB  CYS A   2       8.685  -0.434  22.322  0.00  0.00    +0.112 C 
ATOM     28  SG  CYS A   2       8.257   0.210  20.703  0.00  0.00    -0.091 S 
ATOM     29  SG  CYS A   7       9.805   1.349  20.917  0.00  0.00    -0.091 S 
ATOM     30  CB  CYS A   7       8.618   2.394  22.556  0.00  0.00    +0.112 C 
ENDROOT
BRANCH   1  33
ATOM     31  N   THR A   8      11.765   3.330  21.416  0.00  0.00    -0.306 N 
ATOM     32  H   THR A   8      12.048   4.201  21.919  0.00  0.00    +0.149 HD
ATOM     33  C   CYS A   7      10.345   2.680  22.862  0.00  0.00    +0.235 C 
ATOM     34  O   CYS A   7      10.246   3.896  23.203  0.00  0.00    -0.274 OA
BRANCH  31  35
ATOM     35  CA  THR A   8      13.237   4.347  19.981  0.00  0.00    +0.126 C 
BRANCH  35  37
ATOM     36  CG2 THR A   8      16.463   6.787  18.718  0.00  0.00    +0.039 C 
ATOM     37  CB  THR A   8      15.147   5.145  19.042  0.00  0.00    +0.134 C 
BRANCH  37  38
ATOM     38  OG1 THR A   8      16.790   4.561  18.632  0.00  0.00    -0.390 OA
ATOM     39  HG1 THR A   8      16.870   3.684  18.015  0.00  0.00    +0.210 HD
ENDBRANCH  37  38
ENDBRANCH  35  37
BRANCH  35  40
ATOM     40  C   THR A   8      13.387   4.848  17.955  0.00  0.00    +0.180 C 
BRANCH  40  41
ATOM     41  O   THR A   8      14.359   4.482  16.497  0.00  0.00    -0.393 OA
ATOM     42  H   THR A   8      15.349   4.369  16.301  0.00  0.00    +0.209 HD
ENDBRANCH  40  41
ENDBRANCH  35  40
ENDBRANCH  31  35
ENDBRANCH   1  33
BRANCH  26  43
ATOM     43  N   CYS A   2       6.770   1.242  24.409  0.00  0.00    -0.302 N 
ATOM     44  H   CYS A   2       7.541   1.957  24.605  0.00  0.00    +0.150 HD
ATOM     45  C   PHE A   1       5.680   1.907  24.883  0.00  0.00    +0.231 C 
ATOM     46  O   PHE A   1       4.610   1.324  24.857  0.00  0.00    -0.274 OA
BRANCH  45  47
ATOM     47  CA  PHE A   1       5.887   3.359  25.523  0.00  0.00    +0.142 C 
BRANCH  47  48
ATOM     48  N   PHE A   1       4.887   3.818  26.569  0.00  0.00    -0.320 NA
ATOM     49  H1  PHE A   1       4.113   4.345  26.161  0.00  0.00    +0.119 HD
ATOM     50  H2  PHE A   1       4.385   2.971  26.908  0.00  0.00    +0.119 HD
ENDBRANCH  47  48
BRANCH  47  51
ATOM     51  CB  PHE A   1       5.845   4.289  24.306  0.00  0.00    +0.063 C 
BRANCH  51  52
ATOM     52  CG  PHE A   1       4.510   4.927  24.136  0.00  0.00    -0.045 A 
ATOM     53  CD2 PHE A   1       4.442   6.316  24.132  0.00  0.00    +0.004 A 
ATOM     54  CE2 PHE A   1       3.278   6.921  23.709  0.00  0.00    +0.000 A 
ATOM     55  CZ  PHE A   1       2.234   6.149  23.198  0.00  0.00    +0.000 A 
ATOM     56  CE1 PHE A   1       2.260   4.765  23.315  0.00  0.00    +0.000 A 
ATOM     57  CD1 PHE A   1       3.381   4.152  23.849  0.00  0.00    +0.004 A 
ENDBRANCH  51  52
ENDBRANCH  47  51
ENDBRANCH  45  47
ENDBRANCH  26  43
BRANCH   6  58
ATOM     58  CB  THR A   6       2.756  -3.791  29.558  0.00  0.00    +0.141 C 
ATOM     59  CG2 THR A   6       1.335  -5.232  30.457  0.00  0.00    +0.040 C 
BRANCH  58  60
ATOM     60  OG1 THR A   6       1.172  -3.479  30.483  0.00  0.00    -0.390 OA
ATOM     61  HG1 THR A   6       0.760  -3.724  31.438  0.00  0.00    +0.210 HD
ENDBRANCH  58  60
ENDBRANCH   6  58
BRANCH  16  62
ATOM     62  CB  TRP A   4       3.240  -1.825  27.926  0.00  0.00    +0.069 C 
BRANCH  62  63
ATOM     63  CG  TRP A   4       2.115  -1.033  27.811  0.00  0.00    -0.020 A 
ATOM     64  CD2 TRP A   4       1.912   0.329  28.162  0.00  0.00    +0.003 A 
ATOM     65  CE3 TRP A   4       2.507   1.360  29.046  0.00  0.00    +0.010 A 
ATOM     66  CZ3 TRP A   4       2.009   2.632  28.959  0.00  0.00    +0.001 A 
ATOM     67  CH2 TRP A   4       1.114   2.876  27.928  0.00  0.00    +0.002 A 
ATOM     68  CZ2 TRP A   4       0.606   1.883  27.052  0.00  0.00    +0.026 A 
ATOM     69  CE2 TRP A   4       0.941   0.573  27.250  0.00  0.00    +0.047 A 
ATOM     70  NE1 TRP A   4       0.639  -0.598  26.559  0.00  0.00    -0.360 N 
ATOM     71  HE1 TRP A   4       0.280  -0.660  25.639  0.00  0.00    +0.165 HD
ATOM     72  CD1 TRP A   4       1.252  -1.672  27.042  0.00  0.00    +0.087 A 
ENDBRANCH  62  63
ENDBRANCH  16  62
BRANCH  21  73
ATOM     73  CB  PHE A   3       7.728  -2.902  25.856  0.00  0.00    +0.067 C 
BRANCH  73  74
ATOM     74  CG  PHE A   3       8.492  -4.160  25.601  0.00  0.00    -0.045 A 
ATOM     75  CD2 PHE A   3       8.096  -5.139  24.666  0.00  0.00    +0.004 A 
ATOM     76  CE2 PHE A   3       8.891  -6.259  24.482  0.00  0.00    +0.000 A 
ATOM     77  CZ  PHE A   3      10.147  -6.303  25.079  0.00  0.00    +0.000 A 
ATOM     78  CE1 PHE A   3      10.534  -5.323  25.985  0.00  0.00    +0.000 A 
ATOM     79  CD1 PHE A   3       9.661  -4.313  26.316  0.00  0.00    +0.004 A 
ENDBRANCH  73  74
ENDBRANCH  21  73
BRANCH  11  80
ATOM     80  CB  LYS A   5       3.220  -7.155  30.071  0.00  0.00    +0.032 C 
BRANCH  80  81
ATOM     81  CG  LYS A   5       4.276  -6.023  30.403  0.00  0.00    +0.003 C 
BRANCH  81  82
ATOM     82  CD  LYS A   5       5.766  -6.046  29.900  0.00  0.00    +0.015 C 
BRANCH  82  83
ATOM     83  CE  LYS A   5       6.182  -7.525  29.675  0.00  0.00    +0.077 C 
BRANCH  83  84
ATOM     84  NZ  LYS A   5       7.622  -7.672  29.491  0.00  0.00    -0.330 NA
ATOM     85  HZ1 LYS A   5       8.027  -6.771  29.228  0.00  0.00    +0.118 HD
ATOM     86  HZ2 LYS A   5       8.056  -7.925  30.377  0.00  0.00    +0.118 HD
ENDBRANCH  83  84
ENDBRANCH  82  83
ENDBRANCH  81  82
ENDBRANCH  80  81
ENDBRANCH  11  80
TORSDOF 22
ENDMDL
MODEL 3
REMARK VINA RESULT:      20.8      1.493      2.022
REMARK  Name = 
REMARK  24 active torsions:
REMARK  status: ('A' for Active; 'I' for Inactive)
REMARK    1  A    between atoms: CG2_1  and  CB_2
REMARK    2  A    between atoms: CB_2  and  OG1_4
REMARK    3  A    between atoms: CB_2  and  CA_5
REMARK    4  A    between atoms: CA_5  and  C_7
REMARK    5  A    between atoms: CA_5  and  N_9
REMARK    6  A    between atoms: C_7  and  O_8
REMARK    7  A    between atoms: C_10  and  CA_12
REMARK    8  A    between atoms: CA_18  and  N_20
REMARK    9  A    between atoms: C_21  and  CA_23
REMARK   10  A    between atoms: CA_23  and  N_25
REMARK   11  A    between atoms: CA_23  and  CB_26
REMARK   12  A    between atoms: CB_26  and  CG_27
REMARK   13  A    between atoms: CA_36  and  CB_38
REMARK   14  A    between atoms: CB_38  and  CG_39
REMARK   15  A    between atoms: CA_48  and  CB_50
REMARK   16  A    between atoms: CB_50  and  CG_51
REMARK   17  A    between atoms: CA_63  and  CB_65
REMARK   18  A    between atoms: CB_65  and  CG_66
REMARK   19  A    between atoms: CG_66  and  CD_67
REMARK   20  A    between atoms: CD_67  and  CE_68
REMARK   21  A    between atoms: CE_68  and  NZ_69
REMARK   22  A    between atoms: CA_73  and  CB_75
REMARK   23  A    between atoms: CB_75  and  CG2_76
REMARK   24  A    between atoms: CB_75  and  OG1_77
REMARK                            x       y       z     vdW  Elec       q    Type
REMARK                         _______ _______ _______ _____ _____    ______ ____
ROOT
ATOM      1  CA  CYS A   7       9.195   2.272  24.505  0.00  0.00    +0.169 C 
ATOM      2  N   CYS A   7       7.767   0.882  25.829  0.00  0.00    -0.302 N 
ATOM      3  H   CYS A   7       8.301   0.063  25.577  0.00  0.00    +0.150 HD
ATOM      4  C   THR A   6       6.223  -0.217  27.030  0.00  0.00    +0.237 C 
ATOM      5  O   THR A   6       6.712  -1.189  27.817  0.00  0.00    -0.274 OA
ATOM      6  CA  THR A   6       4.659  -1.653  28.399  0.00  0.00    +0.187 C 
ATOM      7  N   THR A   6       3.259  -3.131  28.606  0.00  0.00    -0.300 N 
ATOM      8  H   THR A   6       3.628  -3.904  29.271  0.00  0.00    +0.150 HD
ATOM      9  C   LYS A   5       1.530  -3.801  28.400  0.00  0.00    +0.234 C 
ATOM     10  O   LYS A   5       0.444  -3.277  28.088  0.00  0.00    -0.274 OA
ATOM     11  CA  LYS A   5       2.061  -5.422  28.725  0.00  0.00    +0.159 C 
ATOM     12  N   LYS A   5       2.519  -4.838  27.267  0.00  0.00    -0.302 N 
ATOM     13  H   LYS A   5       2.306  -3.847  27.087  0.00  0.00    +0.150 HD
ATOM     14  C   TRP A   4       3.650  -4.166  26.974  0.00  0.00    +0.234 C 
ATOM     15  O   TRP A   4       4.670  -4.723  27.387  0.00  0.00    -0.274 OA
ATOM     16  CA  TRP A   4       3.301  -2.221  26.803  0.00  0.00    +0.163 C 
ATOM     17  N   TRP A   4       4.477  -2.574  26.102  0.00  0.00    -0.302 N 
ATOM     18  H   TRP A   4       5.213  -3.146  26.565  0.00  0.00    +0.150 HD
ATOM     19  C   PHE A   3       4.924  -1.581  25.407  0.00  0.00    +0.234 C 
ATOM     20  O   PHE A   3       4.163  -0.614  25.259  0.00  0.00    -0.274 OA
ATOM     21  CA  PHE A   3       6.430  -1.719  25.118  0.00  0.00    +0.163 C 
ATOM     22  N   PHE A   3       6.242  -0.515  24.399  0.00  0.00    -0.302 N 
ATOM     23  H   PHE A   3       5.764   0.318  24.784  0.00  0.00    +0.150 HD
ATOM     24  C   CYS A   2       7.017  -0.404  23.355  0.00  0.00    +0.235 C 
ATOM     25  O   CYS A   2       7.380  -1.397  22.741  0.00  0.00    -0.274 OA
ATOM     26  CA  CYS A   2       7.529   0.976  23.230  0.00  0.00    +0.169 C 
ATOM     27  CB  CYS A   2       9.090   0.414  22.536  0.00  0.00    +0.112 C 
ATOM     28  SG  CYS A   2       8.764   0.990  20.868  0.00  0.00    -0.091 S 
ATOM     29  SG  CYS A   7      10.337   2.090  21.106  0.00  0.00    -0.091 S 
ATOM     30  CB  CYS A   7       9.105   3.251  22.629  0.00  0.00    +0.112 C 
ENDROOT
BRANCH   1  33
ATOM     31  N   THR A   8      12.377   4.035  21.657  0.00  0.00    -0.306 N 
ATOM     32  H   THR A   8      12.571   4.973  22.074  0.00  0.00    +0.149 HD
ATOM     33  C   CYS A   7      10.824   3.499  23.009  0.00  0.00    +0.235 C 
ATOM     34  O   CYS A   7      10.645   4.741  23.181  0.00  0.00    -0.274 OA
BRANCH  31  35
ATOM     35  CA  THR A   8      13.968   4.938  20.275  0.00  0.00    +0.126 C 
BRANCH  35  37
ATOM     36  CG2 THR A   8      17.474   7.108  19.296  0.00  0.00    +0.039 C 
ATOM     37  CB  THR A   8      15.482   6.361  19.350  0.00  0.00    +0.134 C 
BRANCH  37  38
ATOM     38  OG1 THR A   8      15.830   7.105  17.758  0.00  0.00    -0.390 OA
ATOM     39  HG1 THR A   8      16.013   8.164  17.730  0.00  0.00    +0.210 HD
ENDBRANCH  37  38
ENDBRANCH  35  37
BRANCH  35  40
ATOM     40  C   THR A   8      15.467   4.309  18.957  0.00  0.00    +0.180 C 
BRANCH  40  41
ATOM     41  O   THR A   8      16.508   2.896  18.604  0.00  0.00    -0.393 OA
ATOM     42  H   THR A   8      17.161   2.649  17.866  0.00  0.00    +0.209 HD
ENDBRANCH  40  41
ENDBRANCH  35  40
ENDBRANCH  31  35
ENDBRANCH   1  33
BRANCH  26  43
ATOM     43  N   CYS A   2       7.131   2.250  24.439  0.00  0.00    -0.302 N 
ATOM     44  H   CYS A   2       7.909   2.958  24.629  0.00  0.00    +0.150 HD
ATOM     45  C   PHE A   1       6.038   2.961  24.834  0.00  0.00    +0.231 C 
ATOM     46  O   PHE A   1       4.957   2.399  24.795  0.00  0.00    -0.274 OA
BRANCH  45  47
ATOM     47  CA  PHE A   1       6.252   4.440  25.405  0.00  0.00    +0.142 C 
BRANCH  47  48
ATOM     48  N   PHE A   1       7.564   4.744  26.106  0.00  0.00    -0.320 NA
ATOM     49  H1  PHE A   1       7.768   5.744  26.131  0.00  0.00    +0.119 HD
ATOM     50  H2  PHE A   1       7.423   4.550  27.120  0.00  0.00    +0.119 HD
ENDBRANCH  47  48
BRANCH  47  51
ATOM     51  CB  PHE A   1       5.080   4.615  26.376  0.00  0.00    +0.063 C 
BRANCH  51  52
ATOM     52  CG  PHE A   1       5.428   4.176  27.756  0.00  0.00    -0.045 A 
ATOM     53  CD2 PHE A   1       5.019   2.911  28.166  0.00  0.00    +0.004 A 
ATOM     54  CE2 PHE A   1       5.556   2.384  29.320  0.00  0.00    +0.000 A 
ATOM     55  CZ  PHE A   1       6.564   3.068  29.999  0.00  0.00    +0.000 A 
ATOM     56  CE1 PHE A   1       6.882   4.376  29.656  0.00  0.00    +0.000 A 
ATOM     57  CD1 PHE A   1       6.260   4.959  28.564  0.00  0.00    +0.004 A 
ENDBRANCH  51  52
ENDBRANCH  47  51
ENDBRANCH  45  47
ENDBRANCH  26  43
BRANCH   6  58
ATOM     58  CB  THR A   6       2.702  -2.395  29.613  0.00  0.00    +0.141 C 
ATOM     59  CG2 THR A   6       1.169  -3.743  30.473  0.00  0.00    +0.040 C 
BRANCH  58  60
ATOM     60  OG1 THR A   6       1.111  -1.983  30.485  0.00  0.00    -0.390 OA
ATOM     61  HG1 THR A   6       0.478  -1.131  30.599  0.00  0.00    +0.210 HD
ENDBRANCH  58  60
ENDBRANCH   6  58
BRANCH  16  62
ATOM     62  CB  TRP A   4       3.331  -0.529  27.915  0.00  0.00    +0.069 C 
BRANCH  62  63
ATOM     63  CG  TRP A   4       2.186   0.232  27.795  0.00  0.00    -0.020 A 
ATOM     64  CD2 TRP A   4       1.912   1.555  28.236  0.00  0.00    +0.003 A 
ATOM     65  CE3 TRP A   4       2.419   2.534  29.227  0.00  0.00    +0.010 A 
ATOM     66  CZ3 TRP A   4       1.879   3.792  29.207  0.00  0.00    +0.001 A 
ATOM     67  CH2 TRP A   4       1.033   4.085  28.147  0.00  0.00    +0.002 A 
ATOM     68  CZ2 TRP A   4       0.611   3.146  27.173  0.00  0.00    +0.026 A 
ATOM     69  CE2 TRP A   4       0.984   1.836  27.291  0.00  0.00    +0.047 A 
ATOM     70  NE1 TRP A   4       0.764   0.712  26.497  0.00  0.00    -0.360 N 
ATOM     71  HE1 TRP A   4       0.459   0.709  25.557  0.00  0.00    +0.165 HD
ATOM     72  CD1 TRP A   4       1.390  -0.375  26.933  0.00  0.00    +0.087 A 
ENDBRANCH  62  63
ENDBRANCH  16  62
BRANCH  21  73
ATOM     73  CB  PHE A   3       7.878  -1.845  26.132  0.00  0.00    +0.067 C 
BRANCH  73  74
ATOM     74  CG  PHE A   3       8.601  -3.144  25.991  0.00  0.00    -0.045 A 
ATOM     75  CD2 PHE A   3       9.307  -3.764  27.041  0.00  0.00    +0.004 A 
ATOM     76  CE2 PHE A   3       9.920  -4.987  26.816  0.00  0.00    +0.000 A 
ATOM     77  CZ  PHE A   3       9.669  -5.660  25.625  0.00  0.00    +0.000 A 
ATOM     78  CE1 PHE A   3       8.956  -5.046  24.602  0.00  0.00    +0.000 A 
ATOM     79  CD1 PHE A   3       8.514  -3.753  24.755  0.00  0.00    +0.004 A 
ENDBRANCH  73  74
ENDBRANCH  21  73
BRANCH  11  80
ATOM     80  CB  LYS A   5       3.029  -5.742  30.310  0.00  0.00    +0.032 C 
BRANCH  80  81
ATOM     81  CG  LYS A   5       4.370  -6.554  30.090  0.00  0.00    +0.003 C 
BRANCH  81  82
ATOM     82  CD  LYS A   5       4.838  -7.101  28.691  0.00  0.00    +0.015 C 
BRANCH  82  83
ATOM     83  CE  LYS A   5       6.359  -6.828  28.545  0.00  0.00    +0.077 C 
BRANCH  83  84
ATOM     84  NZ  LYS A   5       6.693  -6.243  27.251  0.00  0.00    -0.330 NA
ATOM     85  HZ1 LYS A   5       7.267  -5.409  27.390  0.00  0.00    +0.118 HD
ATOM     86  HZ2 LYS A   5       7.270  -6.894  26.720  0.00  0.00    +0.118 HD
ENDBRANCH  83  84
ENDBRANCH  82  83
ENDBRANCH  81  82
ENDBRANCH  80  81
ENDBRANCH  11  80
TORSDOF 22
ENDMDL
