MODEL 1
REMARK VINA RESULT:      -7.1      0.000      0.000
REMARK  Name = 
REMARK  3 active torsions:
REMARK  status: ('A' for Active; 'I' for Inactive)
REMARK    1  A    between atoms: C_1  and  C_2
REMARK    2  A    between atoms: C_2  and  O_4
REMARK    3  A    between atoms: O_4  and  C_5
REMARK                            x       y       z     vdW  Elec       q    Type
REMARK                         _______ _______ _______ _____ _____    ______ ____
ROOT
ATOM      1  C   UNL     1       7.510  -2.991  22.857  0.00  0.00    +0.213 C 
ATOM      2  C   UNL     1       8.128  -3.382  24.196  0.00  0.00    +0.015 A 
ATOM      3  C   UNL     1       8.299  -2.534  25.318  0.00  0.00    +0.049 A 
ATOM      4  C   UNL     1       8.702  -3.134  26.531  0.00  0.00    +0.024 A 
ATOM      5  C   UNL     1       8.986  -4.498  26.636  0.00  0.00    +0.002 A 
ATOM      6  C   UNL     1       8.900  -5.306  25.515  0.00  0.00    +0.000 A 
ATOM      7  N   UNL     1       8.173  -1.091  25.280  0.00  0.00    -0.224 N 
ATOM      8  C   UNL     1       7.760  -0.361  26.405  0.00  0.00    +0.308 C 
ATOM      9  O   UNL     1       7.313  -0.820  27.455  0.00  0.00    -0.252 OA
ATOM     10  N   UNL     1       7.796   1.000  26.295  0.00  0.00    -0.313 N 
ATOM     11  H   UNL     1       7.339   1.480  27.059  0.00  0.00    +0.147 HD
ATOM     12  H   UNL     1       7.680   1.415  25.383  0.00  0.00    +0.147 HD
ATOM     13  C   UNL     1       8.788  -0.462  24.153  0.00  0.00    +0.046 A 
ATOM     14  C   UNL     1       8.251  -0.635  22.872  0.00  0.00    -0.022 A 
ATOM     15  C   UNL     1       8.839   0.007  21.773  0.00  0.00    +0.005 A 
ATOM     16  C   UNL     1       9.956   0.823  21.951  0.00  0.00    +0.000 A 
ATOM     17  C   UNL     1      10.494   1.001  23.224  0.00  0.00    +0.002 A 
ATOM     18  C   UNL     1       9.911   0.364  24.321  0.00  0.00    +0.024 A 
ATOM     19  C   UNL     1       8.477  -4.753  24.313  0.00  0.00    +0.009 A 
ATOM     20  C   UNL     1       7.069  -1.538  22.696  0.00  0.00    +0.086 C 
ENDROOT
BRANCH   1  21
ATOM     21  O   UNL     1       6.342  -3.838  22.696  0.00  0.00    -0.456 OA
BRANCH  21  23
ATOM     22  C   UNL     1       6.643  -5.813  21.471  0.00  0.00    +0.136 C 
ATOM     23  C   UNL     1       6.162  -4.394  21.470  0.00  0.00    +0.305 C 
ATOM     24  O   UNL     1       5.701  -3.820  20.494  0.00  0.00    -0.251 OA
ENDBRANCH  21  23
ENDBRANCH   1  21
TORSDOF 2
ENDMDL
MODEL 2
REMARK VINA RESULT:      -6.7      2.703      5.339
REMARK  Name = 
REMARK  3 active torsions:
REMARK  status: ('A' for Active; 'I' for Inactive)
REMARK    1  A    between atoms: C_1  and  C_2
REMARK    2  A    between atoms: C_2  and  O_4
REMARK    3  A    between atoms: O_4  and  C_5
REMARK                            x       y       z     vdW  Elec       q    Type
REMARK                         _______ _______ _______ _____ _____    ______ ____
ROOT
ATOM      1  C   UNL     1       8.337  -2.509  24.027  0.00  0.00    +0.213 C 
ATOM      2  C   UNL     1       7.303  -2.021  25.037  0.00  0.00    +0.015 A 
ATOM      3  C   UNL     1       6.576  -2.829  25.946  0.00  0.00    +0.049 A 
ATOM      4  C   UNL     1       5.817  -2.169  26.938  0.00  0.00    +0.024 A 
ATOM      5  C   UNL     1       5.722  -0.777  27.008  0.00  0.00    +0.002 A 
ATOM      6  C   UNL     1       6.366   0.004  26.065  0.00  0.00    +0.000 A 
ATOM      7  N   UNL     1       6.489  -4.273  25.870  0.00  0.00    -0.224 N 
ATOM      8  C   UNL     1       6.306  -5.058  27.019  0.00  0.00    +0.308 C 
ATOM      9  O   UNL     1       6.362  -4.676  28.186  0.00  0.00    -0.252 OA
ATOM     10  N   UNL     1       6.115  -6.396  26.818  0.00  0.00    -0.313 N 
ATOM     11  H   UNL     1       6.153  -6.942  27.669  0.00  0.00    +0.147 HD
ATOM     12  H   UNL     1       6.521  -6.825  26.001  0.00  0.00    +0.147 HD
ATOM     13  C   UNL     1       6.287  -4.796  24.554  0.00  0.00    +0.046 A 
ATOM     14  C   UNL     1       7.309  -4.715  23.601  0.00  0.00    -0.022 A 
ATOM     15  C   UNL     1       7.118  -5.255  22.322  0.00  0.00    +0.005 A 
ATOM     16  C   UNL     1       5.915  -5.879  21.995  0.00  0.00    +0.000 A 
ATOM     17  C   UNL     1       4.895  -5.965  22.941  0.00  0.00    +0.002 A 
ATOM     18  C   UNL     1       5.081  -5.429  24.216  0.00  0.00    +0.024 A 
ATOM     19  C   UNL     1       7.145  -0.611  25.093  0.00  0.00    +0.009 A 
ATOM     20  C   UNL     1       8.584  -4.015  23.962  0.00  0.00    +0.086 C 
ENDROOT
BRANCH   1  21
ATOM     21  O   UNL     1       9.584  -1.863  24.391  0.00  0.00    -0.456 OA
BRANCH  21  23
ATOM     22  C   UNL     1      10.543   0.174  23.738  0.00  0.00    +0.136 C 
ATOM     23  C   UNL     1      10.268  -1.257  23.386  0.00  0.00    +0.305 C 
ATOM     24  O   UNL     1      10.592  -1.785  22.332  0.00  0.00    -0.251 OA
ENDBRANCH  21  23
ENDBRANCH   1  21
TORSDOF 2
ENDMDL
MODEL 3
REMARK VINA RESULT:      -6.6      3.068      4.865
REMARK  Name = 
REMARK  3 active torsions:
REMARK  status: ('A' for Active; 'I' for Inactive)
REMARK    1  A    between atoms: C_1  and  C_2
REMARK    2  A    between atoms: C_2  and  O_4
REMARK    3  A    between atoms: O_4  and  C_5
REMARK                            x       y       z     vdW  Elec       q    Type
REMARK                         _______ _______ _______ _____ _____    ______ ____
ROOT
ATOM      1  C   UNL     1       5.758  -4.957  26.029  0.00  0.00    +0.213 C 
ATOM      2  C   UNL     1       6.201  -4.934  24.568  0.00  0.00    +0.015 A 
ATOM      3  C   UNL     1       7.184  -4.084  24.006  0.00  0.00    +0.049 A 
ATOM      4  C   UNL     1       7.598  -4.356  22.683  0.00  0.00    +0.024 A 
ATOM      5  C   UNL     1       7.035  -5.378  21.915  0.00  0.00    +0.002 A 
ATOM      6  C   UNL     1       6.014  -6.150  22.441  0.00  0.00    +0.000 A 
ATOM      7  N   UNL     1       7.725  -2.911  24.662  0.00  0.00    -0.224 N 
ATOM      8  C   UNL     1       9.028  -2.461  24.402  0.00  0.00    +0.308 C 
ATOM      9  O   UNL     1       9.895  -3.051  23.759  0.00  0.00    -0.252 OA
ATOM     10  N   UNL     1       9.391  -1.277  24.980  0.00  0.00    -0.313 N 
ATOM     11  H   UNL     1      10.379  -1.075  24.904  0.00  0.00    +0.147 HD
ATOM     12  H   UNL     1       8.952  -1.009  25.848  0.00  0.00    +0.147 HD
ATOM     13  C   UNL     1       6.758  -2.091  25.323  0.00  0.00    +0.046 A 
ATOM     14  C   UNL     1       6.115  -2.554  26.477  0.00  0.00    -0.022 A 
ATOM     15  C   UNL     1       5.190  -1.736  27.139  0.00  0.00    +0.005 A 
ATOM     16  C   UNL     1       4.909  -0.459  26.656  0.00  0.00    +0.000 A 
ATOM     17  C   UNL     1       5.547   0.009  25.509  0.00  0.00    +0.002 A 
ATOM     18  C   UNL     1       6.470  -0.802  24.847  0.00  0.00    +0.024 A 
ATOM     19  C   UNL     1       5.604  -5.930  23.750  0.00  0.00    +0.009 A 
ATOM     20  C   UNL     1       6.408  -3.940  26.964  0.00  0.00    +0.086 C 
ENDROOT
BRANCH   1  21
ATOM     21  O   UNL     1       6.072  -6.286  26.519  0.00  0.00    -0.456 OA
BRANCH  21  23
ATOM     22  C   UNL     1       3.794  -6.565  26.994  0.00  0.00    +0.136 C 
ATOM     23  C   UNL     1       5.208  -6.818  27.421  0.00  0.00    +0.305 C 
ATOM     24  O   UNL     1       5.527  -7.397  28.450  0.00  0.00    -0.251 OA
ENDBRANCH  21  23
ENDBRANCH   1  21
TORSDOF 2
ENDMDL
MODEL 4
REMARK VINA RESULT:      -6.6      1.787      1.930
REMARK  Name = 
REMARK  3 active torsions:
REMARK  status: ('A' for Active; 'I' for Inactive)
REMARK    1  A    between atoms: C_1  and  C_2
REMARK    2  A    between atoms: C_2  and  O_4
REMARK    3  A    between atoms: O_4  and  C_5
REMARK                            x       y       z     vdW  Elec       q    Type
REMARK                         _______ _______ _______ _____ _____    ______ ____
ROOT
ATOM      1  C   UNL     1       7.827  -4.363  23.372  0.00  0.00    +0.213 C 
ATOM      2  C   UNL     1       7.399  -4.145  24.820  0.00  0.00    +0.015 A 
ATOM      3  C   UNL     1       6.796  -2.976  25.347  0.00  0.00    +0.049 A 
ATOM      4  C   UNL     1       6.287  -3.044  26.663  0.00  0.00    +0.024 A 
ATOM      5  C   UNL     1       6.413  -4.186  27.458  0.00  0.00    +0.002 A 
ATOM      6  C   UNL     1       7.078  -5.295  26.967  0.00  0.00    +0.000 A 
ATOM      7  N   UNL     1       6.746  -1.701  24.662  0.00  0.00    -0.224 N 
ATOM      8  C   UNL     1       5.703  -0.789  24.883  0.00  0.00    +0.308 C 
ATOM      9  O   UNL     1       4.666  -0.998  25.512  0.00  0.00    -0.252 OA
ATOM     10  N   UNL     1       5.820   0.431  24.280  0.00  0.00    -0.313 N 
ATOM     11  H   UNL     1       4.979   0.990  24.329  0.00  0.00    +0.147 HD
ATOM     12  H   UNL     1       6.343   0.497  23.420  0.00  0.00    +0.147 HD
ATOM     13  C   UNL     1       7.962  -1.317  24.014  0.00  0.00    +0.046 A 
ATOM     14  C   UNL     1       8.404  -2.012  22.882  0.00  0.00    -0.022 A 
ATOM     15  C   UNL     1       9.581  -1.614  22.232  0.00  0.00    +0.005 A 
ATOM     16  C   UNL     1      10.312  -0.525  22.705  0.00  0.00    +0.000 A 
ATOM     17  C   UNL     1       9.875   0.172  23.829  0.00  0.00    +0.002 A 
ATOM     18  C   UNL     1       8.704  -0.220  24.479  0.00  0.00    +0.024 A 
ATOM     19  C   UNL     1       7.565  -5.273  25.666  0.00  0.00    +0.009 A 
ATOM     20  C   UNL     1       7.622  -3.198  22.407  0.00  0.00    +0.086 C 
ENDROOT
BRANCH   1  21
ATOM     21  O   UNL     1       7.046  -5.489  22.892  0.00  0.00    -0.456 OA
BRANCH  21  23
ATOM     22  C   UNL     1       6.188  -5.762  20.728  0.00  0.00    +0.136 C 
ATOM     23  C   UNL     1       5.984  -5.193  22.100  0.00  0.00    +0.305 C 
ATOM     24  O   UNL     1       5.010  -4.536  22.438  0.00  0.00    -0.251 OA
ENDBRANCH  21  23
ENDBRANCH   1  21
TORSDOF 2
ENDMDL
MODEL 5
REMARK VINA RESULT:      -6.3      3.425      6.380
REMARK  Name = 
REMARK  3 active torsions:
REMARK  status: ('A' for Active; 'I' for Inactive)
REMARK    1  A    between atoms: C_1  and  C_2
REMARK    2  A    between atoms: C_2  and  O_4
REMARK    3  A    between atoms: O_4  and  C_5
REMARK                            x       y       z     vdW  Elec       q    Type
REMARK                         _______ _______ _______ _____ _____    ______ ____
ROOT
ATOM      1  C   UNL     1       7.424  -3.955  24.861  0.00  0.00    +0.213 C 
ATOM      2  C   UNL     1       6.765  -4.818  23.789  0.00  0.00    +0.015 A 
ATOM      3  C   UNL     1       5.406  -5.215  23.754  0.00  0.00    +0.049 A 
ATOM      4  C   UNL     1       4.941  -5.840  22.576  0.00  0.00    +0.024 A 
ATOM      5  C   UNL     1       5.781  -6.123  21.495  0.00  0.00    +0.002 A 
ATOM      6  C   UNL     1       7.127  -5.810  21.570  0.00  0.00    +0.000 A 
ATOM      7  N   UNL     1       4.490  -5.102  24.871  0.00  0.00    -0.224 N 
ATOM      8  C   UNL     1       3.112  -4.926  24.675  0.00  0.00    +0.308 C 
ATOM      9  O   UNL     1       2.546  -4.687  23.610  0.00  0.00    -0.252 OA
ATOM     10  N   UNL     1       2.329  -4.955  25.795  0.00  0.00    -0.313 N 
ATOM     11  H   UNL     1       1.375  -4.663  25.629  0.00  0.00    +0.147 HD
ATOM     12  H   UNL     1       2.731  -4.669  26.674  0.00  0.00    +0.147 HD
ATOM     13  C   UNL     1       5.032  -5.492  26.136  0.00  0.00    +0.046 A 
ATOM     14  C   UNL     1       6.021  -4.713  26.748  0.00  0.00    -0.022 A 
ATOM     15  C   UNL     1       6.529  -5.083  28.001  0.00  0.00    +0.005 A 
ATOM     16  C   UNL     1       6.049  -6.223  28.644  0.00  0.00    +0.000 A 
ATOM     17  C   UNL     1       5.063  -7.001  28.042  0.00  0.00    +0.002 A 
ATOM     18  C   UNL     1       4.554  -6.636  26.795  0.00  0.00    +0.024 A 
ATOM     19  C   UNL     1       7.610  -5.167  22.703  0.00  0.00    +0.009 A 
ATOM     20  C   UNL     1       6.545  -3.509  26.027  0.00  0.00    +0.086 C 
ENDROOT
BRANCH   1  21
ATOM     21  O   UNL     1       7.903  -2.768  24.177  0.00  0.00    -0.456 OA
BRANCH  21  23
ATOM     22  C   UNL     1       9.405  -1.057  24.734  0.00  0.00    +0.136 C 
ATOM     23  C   UNL     1       9.224  -2.484  24.311  0.00  0.00    +0.305 C 
ATOM     24  O   UNL     1      10.141  -3.263  24.095  0.00  0.00    -0.251 OA
ENDBRANCH  21  23
ENDBRANCH   1  21
TORSDOF 2
ENDMDL
MODEL 6
REMARK VINA RESULT:      -6.2      2.553      5.073
REMARK  Name = 
REMARK  3 active torsions:
REMARK  status: ('A' for Active; 'I' for Inactive)
REMARK    1  A    between atoms: C_1  and  C_2
REMARK    2  A    between atoms: C_2  and  O_4
REMARK    3  A    between atoms: O_4  and  C_5
REMARK                            x       y       z     vdW  Elec       q    Type
REMARK                         _______ _______ _______ _____ _____    ______ ____
ROOT
ATOM      1  C   UNL     1       7.371  -1.529  23.275  0.00  0.00    +0.213 C 
ATOM      2  C   UNL     1       6.568  -1.548  24.573  0.00  0.00    +0.015 A 
ATOM      3  C   UNL     1       6.562  -2.585  25.538  0.00  0.00    +0.049 A 
ATOM      4  C   UNL     1       5.914  -2.326  26.766  0.00  0.00    +0.024 A 
ATOM      5  C   UNL     1       5.246  -1.126  27.024  0.00  0.00    +0.002 A 
ATOM      6  C   UNL     1       5.182  -0.151  26.044  0.00  0.00    +0.000 A 
ATOM      7  N   UNL     1       7.096  -3.913  25.316  0.00  0.00    -0.224 N 
ATOM      8  C   UNL     1       7.614  -4.680  26.370  0.00  0.00    +0.308 C 
ATOM      9  O   UNL     1       7.831  -4.299  27.519  0.00  0.00    -0.252 OA
ATOM     10  N   UNL     1       7.976  -5.963  26.070  0.00  0.00    -0.313 N 
ATOM     11  H   UNL     1       8.492  -6.422  26.809  0.00  0.00    +0.147 HD
ATOM     12  H   UNL     1       8.274  -6.173  25.129  0.00  0.00    +0.147 HD
ATOM     13  C   UNL     1       6.773  -4.488  24.047  0.00  0.00    +0.046 A 
ATOM     14  C   UNL     1       7.334  -3.966  22.876  0.00  0.00    -0.022 A 
ATOM     15  C   UNL     1       7.038  -4.551  21.637  0.00  0.00    +0.005 A 
ATOM     16  C   UNL     1       6.189  -5.655  21.566  0.00  0.00    +0.000 A 
ATOM     17  C   UNL     1       5.630  -6.181  22.729  0.00  0.00    +0.002 A 
ATOM     18  C   UNL     1       5.923  -5.602  23.965  0.00  0.00    +0.024 A 
ATOM     19  C   UNL     1       5.834  -0.360  24.836  0.00  0.00    +0.009 A 
ATOM     20  C   UNL     1       8.219  -2.761  22.969  0.00  0.00    +0.086 C 
ENDROOT
BRANCH   1  21
ATOM     21  O   UNL     1       8.258  -0.384  23.374  0.00  0.00    -0.456 OA
BRANCH  21  23
ATOM     22  C   UNL     1       9.471   0.336  21.503  0.00  0.00    +0.136 C 
ATOM     23  C   UNL     1       8.235   0.490  22.334  0.00  0.00    +0.305 C 
ATOM     24  O   UNL     1       7.351   1.306  22.116  0.00  0.00    -0.251 OA
ENDBRANCH  21  23
ENDBRANCH   1  21
TORSDOF 2
ENDMDL
MODEL 7
REMARK VINA RESULT:      -6.1      3.823      5.964
REMARK  Name = 
REMARK  3 active torsions:
REMARK  status: ('A' for Active; 'I' for Inactive)
REMARK    1  A    between atoms: C_1  and  C_2
REMARK    2  A    between atoms: C_2  and  O_4
REMARK    3  A    between atoms: O_4  and  C_5
REMARK                            x       y       z     vdW  Elec       q    Type
REMARK                         _______ _______ _______ _____ _____    ______ ____
ROOT
ATOM      1  C   UNL     1       5.824  -5.233  26.724  0.00  0.00    +0.213 C 
ATOM      2  C   UNL     1       4.648  -4.955  25.792  0.00  0.00    +0.015 A 
ATOM      3  C   UNL     1       4.710  -4.829  24.382  0.00  0.00    +0.049 A 
ATOM      4  C   UNL     1       3.485  -4.777  23.680  0.00  0.00    +0.024 A 
ATOM      5  C   UNL     1       2.248  -4.788  24.328  0.00  0.00    +0.002 A 
ATOM      6  C   UNL     1       2.196  -4.825  25.711  0.00  0.00    +0.000 A 
ATOM      7  N   UNL     1       5.935  -4.662  23.628  0.00  0.00    -0.224 N 
ATOM      8  C   UNL     1       6.052  -5.121  22.307  0.00  0.00    +0.308 C 
ATOM      9  O   UNL     1       5.251  -5.831  21.703  0.00  0.00    -0.252 OA
ATOM     10  N   UNL     1       7.207  -4.801  21.650  0.00  0.00    -0.313 N 
ATOM     11  H   UNL     1       7.319  -5.286  20.770  0.00  0.00    +0.147 HD
ATOM     12  H   UNL     1       8.049  -4.667  22.190  0.00  0.00    +0.147 HD
ATOM     13  C   UNL     1       6.872  -3.742  24.196  0.00  0.00    +0.046 A 
ATOM     14  C   UNL     1       7.538  -4.062  25.385  0.00  0.00    -0.022 A 
ATOM     15  C   UNL     1       8.477  -3.171  25.923  0.00  0.00    +0.005 A 
ATOM     16  C   UNL     1       8.754  -1.967  25.276  0.00  0.00    +0.000 A 
ATOM     17  C   UNL     1       8.097  -1.645  24.091  0.00  0.00    +0.002 A 
ATOM     18  C   UNL     1       7.161  -2.529  23.551  0.00  0.00    +0.024 A 
ATOM     19  C   UNL     1       3.381  -4.908  26.431  0.00  0.00    +0.009 A 
ATOM     20  C   UNL     1       7.204  -5.346  26.081  0.00  0.00    +0.086 C 
ENDROOT
BRANCH   1  21
ATOM     21  O   UNL     1       5.525  -6.495  27.376  0.00  0.00    -0.456 OA
BRANCH  21  23
ATOM     22  C   UNL     1       5.484  -5.377  29.436  0.00  0.00    +0.136 C 
ATOM     23  C   UNL     1       5.893  -6.604  28.679  0.00  0.00    +0.305 C 
ATOM     24  O   UNL     1       6.495  -7.550  29.167  0.00  0.00    -0.251 OA
ENDBRANCH  21  23
ENDBRANCH   1  21
TORSDOF 2
ENDMDL
MODEL 8
REMARK VINA RESULT:      -6.1      3.693      6.386
REMARK  Name = 
REMARK  3 active torsions:
REMARK  status: ('A' for Active; 'I' for Inactive)
REMARK    1  A    between atoms: C_1  and  C_2
REMARK    2  A    between atoms: C_2  and  O_4
REMARK    3  A    between atoms: O_4  and  C_5
REMARK                            x       y       z     vdW  Elec       q    Type
REMARK                         _______ _______ _______ _____ _____    ______ ____
ROOT
ATOM      1  C   UNL     1       5.625  -2.967  25.597  0.00  0.00    +0.213 C 
ATOM      2  C   UNL     1       6.870  -3.845  25.514  0.00  0.00    +0.015 A 
ATOM      3  C   UNL     1       7.136  -4.829  24.530  0.00  0.00    +0.049 A 
ATOM      4  C   UNL     1       8.432  -5.390  24.506  0.00  0.00    +0.024 A 
ATOM      5  C   UNL     1       9.414  -5.052  25.440  0.00  0.00    +0.002 A 
ATOM      6  C   UNL     1       9.121  -4.153  26.451  0.00  0.00    +0.000 A 
ATOM      7  N   UNL     1       6.148  -5.356  23.611  0.00  0.00    -0.224 N 
ATOM      8  C   UNL     1       6.508  -5.827  22.340  0.00  0.00    +0.308 C 
ATOM      9  O   UNL     1       7.604  -5.711  21.795  0.00  0.00    -0.252 OA
ATOM     10  N   UNL     1       5.517  -6.415  21.605  0.00  0.00    -0.313 N 
ATOM     11  H   UNL     1       5.775  -6.589  20.643  0.00  0.00    +0.147 HD
ATOM     12  H   UNL     1       4.563  -6.125  21.760  0.00  0.00    +0.147 HD
ATOM     13  C   UNL     1       4.877  -5.649  24.197  0.00  0.00    +0.046 A 
ATOM     14  C   UNL     1       4.049  -4.609  24.635  0.00  0.00    -0.022 A 
ATOM     15  C   UNL     1       2.791  -4.898  25.181  0.00  0.00    +0.005 A 
ATOM     16  C   UNL     1       2.357  -6.219  25.286  0.00  0.00    +0.000 A 
ATOM     17  C   UNL     1       3.175  -7.258  24.848  0.00  0.00    +0.002 A 
ATOM     18  C   UNL     1       4.429  -6.975  24.303  0.00  0.00    +0.024 A 
ATOM     19  C   UNL     1       7.865  -3.560  26.486  0.00  0.00    +0.009 A 
ATOM     20  C   UNL     1       4.545  -3.198  24.543  0.00  0.00    +0.086 C 
ENDROOT
BRANCH   1  21
ATOM     21  O   UNL     1       6.093  -1.600  25.471  0.00  0.00    -0.456 OA
BRANCH  21  23
ATOM     22  C   UNL     1       5.212  -0.895  27.525  0.00  0.00    +0.136 C 
ATOM     23  C   UNL     1       5.326  -0.642  26.053  0.00  0.00    +0.305 C 
ATOM     24  O   UNL     1       4.781   0.281  25.465  0.00  0.00    -0.251 OA
ENDBRANCH  21  23
ENDBRANCH   1  21
TORSDOF 2
ENDMDL
MODEL 9
REMARK VINA RESULT:      -6.1      4.300      5.860
REMARK  Name = 
REMARK  3 active torsions:
REMARK  status: ('A' for Active; 'I' for Inactive)
REMARK    1  A    between atoms: C_1  and  C_2
REMARK    2  A    between atoms: C_2  and  O_4
REMARK    3  A    between atoms: O_4  and  C_5
REMARK                            x       y       z     vdW  Elec       q    Type
REMARK                         _______ _______ _______ _____ _____    ______ ____
ROOT
ATOM      1  C   UNL     1       5.466  -5.059  23.791  0.00  0.00    +0.213 C 
ATOM      2  C   UNL     1       6.427  -4.919  24.968  0.00  0.00    +0.015 A 
ATOM      3  C   UNL     1       6.210  -5.393  26.285  0.00  0.00    +0.049 A 
ATOM      4  C   UNL     1       7.302  -5.348  27.180  0.00  0.00    +0.024 A 
ATOM      5  C   UNL     1       8.541  -4.809  26.826  0.00  0.00    +0.002 A 
ATOM      6  C   UNL     1       8.721  -4.270  25.564  0.00  0.00    +0.000 A 
ATOM      7  N   UNL     1       4.929  -5.834  26.796  0.00  0.00    -0.224 N 
ATOM      8  C   UNL     1       4.836  -6.803  27.807  0.00  0.00    +0.308 C 
ATOM      9  O   UNL     1       5.754  -7.491  28.252  0.00  0.00    -0.252 OA
ATOM     10  N   UNL     1       3.586  -7.054  28.299  0.00  0.00    -0.313 N 
ATOM     11  H   UNL     1       3.543  -7.866  28.901  0.00  0.00    +0.147 HD
ATOM     12  H   UNL     1       2.791  -6.911  27.694  0.00  0.00    +0.147 HD
ATOM     13  C   UNL     1       3.819  -5.007  26.436  0.00  0.00    +0.046 A 
ATOM     14  C   UNL     1       3.378  -4.963  25.108  0.00  0.00    -0.022 A 
ATOM     15  C   UNL     1       2.272  -4.174  24.763  0.00  0.00    +0.005 A 
ATOM     16  C   UNL     1       1.604  -3.436  25.740  0.00  0.00    +0.000 A 
ATOM     17  C   UNL     1       2.036  -3.479  27.064  0.00  0.00    +0.002 A 
ATOM     18  C   UNL     1       3.137  -4.263  27.411  0.00  0.00    +0.024 A 
ATOM     19  C   UNL     1       7.677  -4.325  24.649  0.00  0.00    +0.009 A 
ATOM     20  C   UNL     1       4.128  -5.739  24.068  0.00  0.00    +0.086 C 
ENDROOT
BRANCH   1  21
ATOM     21  O   UNL     1       6.172  -5.841  22.793  0.00  0.00    -0.456 OA
BRANCH  21  23
ATOM     22  C   UNL     1       6.063  -3.885  21.507  0.00  0.00    +0.136 C 
ATOM     23  C   UNL     1       6.118  -5.382  21.516  0.00  0.00    +0.305 C 
ATOM     24  O   UNL     1       6.090  -6.082  20.513  0.00  0.00    -0.251 OA
ENDBRANCH  21  23
ENDBRANCH   1  21
TORSDOF 2
ENDMDL
