MODEL 1
REMARK VINA RESULT:      -6.7      0.000      0.000
REMARK  Name = 
REMARK  4 active torsions:
REMARK  status: ('A' for Active; 'I' for Inactive)
REMARK    1  A    between atoms: C_2  and  C_20
REMARK    2  A    between atoms: C_8  and  N_9
REMARK    3  A    between atoms: C_8  and  C_10
REMARK    4  A    between atoms: C_10  and  C_11
REMARK                            x       y       z     vdW  Elec       q    Type
REMARK                         _______ _______ _______ _____ _____    ______ ____
ROOT
ATOM      1  C   UNL     1       6.344  -4.053  22.161  0.00  0.00    +0.158 C 
ATOM      2  N   UNL     1       7.238  -3.781  23.276  0.00  0.00    -0.223 N 
ATOM      3  N   UNL     1       7.710  -4.959  23.854  0.00  0.00    -0.224 NA
ATOM      4  C   UNL     1       8.981  -4.860  24.556  0.00  0.00    +0.108 C 
ATOM      5  C   UNL     1       8.911  -3.663  25.501  0.00  0.00    +0.049 C 
ATOM      6  C   UNL     1       8.688  -2.355  24.720  0.00  0.00    +0.100 C 
ATOM      7  C   UNL     1       7.690  -5.978  22.802  0.00  0.00    +0.108 C 
ATOM      8  C   UNL     1       7.468  -2.506  23.767  0.00  0.00    +0.250 C 
ATOM      9  O   UNL     1       6.795  -1.548  23.378  0.00  0.00    -0.272 OA
ATOM     10  C   UNL     1       6.649  -5.499  21.787  0.00  0.00    +0.048 C 
ENDROOT
BRANCH   6  11
ATOM     11  N   UNL     1       8.420  -1.259  25.688  0.00  0.00    -0.317 NA
ATOM     12  H   UNL     1       7.427  -1.243  25.922  0.00  0.00    +0.119 HD
ATOM     13  H   UNL     1       8.929  -1.433  26.553  0.00  0.00    +0.119 HD
ENDBRANCH   6  11
BRANCH   1  14
ATOM     14  C   UNL     1       4.904  -3.894  22.616  0.00  0.00    +0.247 C 
ATOM     15  O   UNL     1       4.100  -4.823  22.643  0.00  0.00    -0.299 OA
ENDBRANCH   1  14
BRANCH   6  16
ATOM     16  C   UNL     1       9.873  -1.968  23.786  0.00  0.00    +0.066 C 
BRANCH  16  17
ATOM     17  C   UNL     1      10.022  -0.503  23.440  0.00  0.00    -0.045 A 
ATOM     18  C   UNL     1       9.605  -0.033  22.186  0.00  0.00    +0.004 A 
ATOM     19  C   UNL     1       9.758   1.311  21.845  0.00  0.00    +0.000 A 
ATOM     20  C   UNL     1      10.320   2.202  22.757  0.00  0.00    +0.000 A 
ATOM     21  C   UNL     1      10.739   1.748  24.005  0.00  0.00    +0.000 A 
ATOM     22  C   UNL     1      10.597   0.400  24.343  0.00  0.00    +0.004 A 
ENDBRANCH  16  17
ENDBRANCH   6  16
TORSDOF 4
ENDMDL
MODEL 2
REMARK VINA RESULT:      -6.6      3.039      3.988
REMARK  Name = 
REMARK  4 active torsions:
REMARK  status: ('A' for Active; 'I' for Inactive)
REMARK    1  A    between atoms: C_2  and  C_20
REMARK    2  A    between atoms: C_8  and  N_9
REMARK    3  A    between atoms: C_8  and  C_10
REMARK    4  A    between atoms: C_10  and  C_11
REMARK                            x       y       z     vdW  Elec       q    Type
REMARK                         _______ _______ _______ _____ _____    ______ ____
ROOT
ATOM      1  C   UNL     1       5.135  -5.534  27.008  0.00  0.00    +0.158 C 
ATOM      2  N   UNL     1       6.161  -5.357  25.991  0.00  0.00    -0.223 N 
ATOM      3  N   UNL     1       5.615  -5.335  24.709  0.00  0.00    -0.224 NA
ATOM      4  C   UNL     1       6.388  -4.629  23.698  0.00  0.00    +0.108 C 
ATOM      5  C   UNL     1       7.832  -5.120  23.774  0.00  0.00    +0.049 C 
ATOM      6  C   UNL     1       8.446  -4.815  25.152  0.00  0.00    +0.100 C 
ATOM      7  C   UNL     1       4.239  -4.853  24.848  0.00  0.00    +0.108 C 
ATOM      8  C   UNL     1       7.517  -5.347  26.280  0.00  0.00    +0.250 C 
ATOM      9  O   UNL     1       7.926  -5.651  27.403  0.00  0.00    -0.272 OA
ATOM     10  C   UNL     1       3.840  -5.164  26.293  0.00  0.00    +0.048 C 
ENDROOT
BRANCH   6  11
ATOM     11  N   UNL     1       9.767  -5.491  25.248  0.00  0.00    -0.317 NA
ATOM     12  H   UNL     1      10.465  -4.955  24.732  0.00  0.00    +0.119 HD
ATOM     13  H   UNL     1      10.069  -5.519  26.220  0.00  0.00    +0.119 HD
ENDBRANCH   6  11
BRANCH   1  14
ATOM     14  C   UNL     1       5.118  -6.984  27.462  0.00  0.00    +0.247 C 
ATOM     15  O   UNL     1       5.520  -7.348  28.565  0.00  0.00    -0.299 OA
ENDBRANCH   1  14
BRANCH   6  16
ATOM     16  C   UNL     1       8.599  -3.294  25.452  0.00  0.00    +0.066 C 
BRANCH  16  17
ATOM     17  C   UNL     1       8.864  -2.385  24.272  0.00  0.00    -0.045 A 
ATOM     18  C   UNL     1      10.108  -2.419  23.627  0.00  0.00    +0.004 A 
ATOM     19  C   UNL     1      10.373  -1.570  22.552  0.00  0.00    +0.000 A 
ATOM     20  C   UNL     1       9.394  -0.686  22.103  0.00  0.00    +0.000 A 
ATOM     21  C   UNL     1       8.154  -0.643  22.736  0.00  0.00    +0.000 A 
ATOM     22  C   UNL     1       7.892  -1.484  23.819  0.00  0.00    +0.004 A 
ENDBRANCH  16  17
ENDBRANCH   6  16
TORSDOF 4
ENDMDL
MODEL 3
REMARK VINA RESULT:      -6.6      3.169      5.005
REMARK  Name = 
REMARK  4 active torsions:
REMARK  status: ('A' for Active; 'I' for Inactive)
REMARK    1  A    between atoms: C_2  and  C_20
REMARK    2  A    between atoms: C_8  and  N_9
REMARK    3  A    between atoms: C_8  and  C_10
REMARK    4  A    between atoms: C_10  and  C_11
REMARK                            x       y       z     vdW  Elec       q    Type
REMARK                         _______ _______ _______ _____ _____    ______ ____
ROOT
ATOM      1  C   UNL     1       8.989  -1.632  24.622  0.00  0.00    +0.158 C 
ATOM      2  N   UNL     1       8.745  -0.515  23.723  0.00  0.00    -0.223 N 
ATOM      3  N   UNL     1       7.481  -0.591  23.140  0.00  0.00    -0.224 NA
ATOM      4  C   UNL     1       6.904   0.671  22.701  0.00  0.00    +0.108 C 
ATOM      5  C   UNL     1       7.951   1.409  21.871  0.00  0.00    +0.049 C 
ATOM      6  C   UNL     1       9.204   1.718  22.710  0.00  0.00    +0.100 C 
ATOM      7  C   UNL     1       6.635  -1.337  24.075  0.00  0.00    +0.108 C 
ATOM      8  C   UNL     1       9.715   0.421  23.400  0.00  0.00    +0.250 C 
ATOM      9  O   UNL     1      10.889   0.258  23.740  0.00  0.00    -0.272 OA
ATOM     10  C   UNL     1       7.597  -2.180  24.915  0.00  0.00    +0.048 C 
ENDROOT
BRANCH   6  11
ATOM     11  N   UNL     1      10.264   2.245  21.811  0.00  0.00    -0.317 NA
ATOM     12  H   UNL     1       9.916   3.064  21.313  0.00  0.00    +0.119 HD
ATOM     13  H   UNL     1      11.064   2.546  22.364  0.00  0.00    +0.119 HD
ENDBRANCH   6  11
BRANCH   1  14
ATOM     14  C   UNL     1       9.852  -2.667  23.921  0.00  0.00    +0.247 C 
ATOM     15  O   UNL     1       9.987  -3.819  24.329  0.00  0.00    -0.299 OA
ENDBRANCH   1  14
BRANCH   6  16
ATOM     16  C   UNL     1       8.950   2.714  23.881  0.00  0.00    +0.066 C 
BRANCH  16  17
ATOM     17  C   UNL     1       8.644   4.148  23.507  0.00  0.00    -0.045 A 
ATOM     18  C   UNL     1       7.491   4.449  22.768  0.00  0.00    +0.004 A 
ATOM     19  C   UNL     1       7.209   5.764  22.397  0.00  0.00    +0.000 A 
ATOM     20  C   UNL     1       8.072   6.793  22.768  0.00  0.00    +0.000 A 
ATOM     21  C   UNL     1       9.221   6.507  23.501  0.00  0.00    +0.000 A 
ATOM     22  C   UNL     1       9.509   5.190  23.864  0.00  0.00    +0.004 A 
ENDBRANCH  16  17
ENDBRANCH   6  16
TORSDOF 4
ENDMDL
MODEL 4
REMARK VINA RESULT:      -6.5      2.749      4.316
REMARK  Name = 
REMARK  4 active torsions:
REMARK  status: ('A' for Active; 'I' for Inactive)
REMARK    1  A    between atoms: C_2  and  C_20
REMARK    2  A    between atoms: C_8  and  N_9
REMARK    3  A    between atoms: C_8  and  C_10
REMARK    4  A    between atoms: C_10  and  C_11
REMARK                            x       y       z     vdW  Elec       q    Type
REMARK                         _______ _______ _______ _____ _____    ______ ____
ROOT
ATOM      1  C   UNL     1       7.774  -2.227  23.604  0.00  0.00    +0.158 C 
ATOM      2  N   UNL     1       7.702  -0.812  23.271  0.00  0.00    -0.223 N 
ATOM      3  N   UNL     1       6.485  -0.255  23.659  0.00  0.00    -0.224 NA
ATOM      4  C   UNL     1       6.489   1.179  23.906  0.00  0.00    +0.108 C 
ATOM      5  C   UNL     1       7.161   1.865  22.719  0.00  0.00    +0.049 C 
ATOM      6  C   UNL     1       8.619   1.397  22.564  0.00  0.00    +0.100 C 
ATOM      7  C   UNL     1       6.002  -1.051  24.790  0.00  0.00    +0.108 C 
ATOM      8  C   UNL     1       8.681  -0.157  22.540  0.00  0.00    +0.250 C 
ATOM      9  O   UNL     1       9.591  -0.787  21.995  0.00  0.00    -0.272 OA
ATOM     10  C   UNL     1       6.682  -2.415  24.650  0.00  0.00    +0.048 C 
ENDROOT
BRANCH   6  11
ATOM     11  N   UNL     1       9.159   1.928  21.285  0.00  0.00    -0.317 NA
ATOM     12  H   UNL     1       8.399   2.049  20.616  0.00  0.00    +0.119 HD
ATOM     13  H   UNL     1       9.571   2.846  21.441  0.00  0.00    +0.119 HD
ENDBRANCH   6  11
BRANCH   1  14
ATOM     14  C   UNL     1       7.496  -3.054  22.361  0.00  0.00    +0.247 C 
ATOM     15  O   UNL     1       7.538  -4.282  22.347  0.00  0.00    -0.299 OA
ENDBRANCH   1  14
BRANCH   6  16
ATOM     16  C   UNL     1       9.544   1.809  23.749  0.00  0.00    +0.066 C 
BRANCH  16  17
ATOM     17  C   UNL     1      10.077   3.225  23.741  0.00  0.00    -0.045 A 
ATOM     18  C   UNL     1      11.402   3.473  23.355  0.00  0.00    +0.004 A 
ATOM     19  C   UNL     1      11.913   4.771  23.365  0.00  0.00    +0.000 A 
ATOM     20  C   UNL     1      11.103   5.837  23.753  0.00  0.00    +0.000 A 
ATOM     21  C   UNL     1       9.785   5.603  24.139  0.00  0.00    +0.000 A 
ATOM     22  C   UNL     1       9.276   4.303  24.139  0.00  0.00    +0.004 A 
ENDBRANCH  16  17
ENDBRANCH   6  16
TORSDOF 4
ENDMDL
MODEL 5
REMARK VINA RESULT:      -6.5      2.080      3.103
REMARK  Name = 
REMARK  4 active torsions:
REMARK  status: ('A' for Active; 'I' for Inactive)
REMARK    1  A    between atoms: C_2  and  C_20
REMARK    2  A    between atoms: C_8  and  N_9
REMARK    3  A    between atoms: C_8  and  C_10
REMARK    4  A    between atoms: C_10  and  C_11
REMARK                            x       y       z     vdW  Elec       q    Type
REMARK                         _______ _______ _______ _____ _____    ______ ____
ROOT
ATOM      1  C   UNL     1       7.284  -3.986  25.060  0.00  0.00    +0.158 C 
ATOM      2  N   UNL     1       7.755  -2.904  24.208  0.00  0.00    -0.223 N 
ATOM      3  N   UNL     1       6.696  -2.159  23.691  0.00  0.00    -0.224 NA
ATOM      4  C   UNL     1       7.003  -0.786  23.320  0.00  0.00    +0.108 C 
ATOM      5  C   UNL     1       8.263  -0.796  22.459  0.00  0.00    +0.049 C 
ATOM      6  C   UNL     1       9.461  -1.364  23.240  0.00  0.00    +0.100 C 
ATOM      7  C   UNL     1       5.592  -2.284  24.646  0.00  0.00    +0.108 C 
ATOM      8  C   UNL     1       9.087  -2.739  23.863  0.00  0.00    +0.250 C 
ATOM      9  O   UNL     1       9.923  -3.604  24.136  0.00  0.00    -0.272 OA
ATOM     10  C   UNL     1       5.856  -3.585  25.409  0.00  0.00    +0.048 C 
ENDROOT
BRANCH   6  11
ATOM     11  N   UNL     1      10.601  -1.546  22.303  0.00  0.00    -0.317 NA
ATOM     12  H   UNL     1      10.846  -2.534  22.248  0.00  0.00    +0.119 HD
ATOM     13  H   UNL     1      10.327  -1.252  21.367  0.00  0.00    +0.119 HD
ENDBRANCH   6  11
BRANCH   1  14
ATOM     14  C   UNL     1       7.316  -5.291  24.284  0.00  0.00    +0.247 C 
ATOM     15  O   UNL     1       6.651  -5.487  23.269  0.00  0.00    -0.299 OA
ENDBRANCH   1  14
BRANCH   6  16
ATOM     16  C   UNL     1       9.898  -0.487  24.452  0.00  0.00    +0.066 C 
BRANCH  16  17
ATOM     17  C   UNL     1       9.822   1.013  24.275  0.00  0.00    -0.045 A 
ATOM     18  C   UNL     1       8.786   1.738  24.880  0.00  0.00    +0.004 A 
ATOM     19  C   UNL     1       8.690   3.120  24.706  0.00  0.00    +0.000 A 
ATOM     20  C   UNL     1       9.635   3.792  23.933  0.00  0.00    +0.000 A 
ATOM     21  C   UNL     1      10.669   3.083  23.327  0.00  0.00    +0.000 A 
ATOM     22  C   UNL     1      10.759   1.699  23.491  0.00  0.00    +0.004 A 
ENDBRANCH  16  17
ENDBRANCH   6  16
TORSDOF 4
ENDMDL
MODEL 6
REMARK VINA RESULT:      -6.4      2.482      6.088
REMARK  Name = 
REMARK  4 active torsions:
REMARK  status: ('A' for Active; 'I' for Inactive)
REMARK    1  A    between atoms: C_2  and  C_20
REMARK    2  A    between atoms: C_8  and  N_9
REMARK    3  A    between atoms: C_8  and  C_10
REMARK    4  A    between atoms: C_10  and  C_11
REMARK                            x       y       z     vdW  Elec       q    Type
REMARK                         _______ _______ _______ _____ _____    ______ ____
ROOT
ATOM      1  C   UNL     1       8.875   0.862  21.625  0.00  0.00    +0.158 C 
ATOM      2  N   UNL     1       8.569  -0.159  22.616  0.00  0.00    -0.223 N 
ATOM      3  N   UNL     1       7.622   0.287  23.537  0.00  0.00    -0.224 NA
ATOM      4  C   UNL     1       6.834  -0.746  24.193  0.00  0.00    +0.108 C 
ATOM      5  C   UNL     1       7.792  -1.812  24.720  0.00  0.00    +0.049 C 
ATOM      6  C   UNL     1       8.580  -2.464  23.569  0.00  0.00    +0.100 C 
ATOM      7  C   UNL     1       6.817   1.301  22.851  0.00  0.00    +0.108 C 
ATOM      8  C   UNL     1       9.245  -1.366  22.691  0.00  0.00    +0.250 C 
ATOM      9  O   UNL     1      10.257  -1.567  22.014  0.00  0.00    -0.272 OA
ATOM     10  C   UNL     1       7.704   1.833  21.722  0.00  0.00    +0.048 C 
ENDROOT
BRANCH   6  11
ATOM     11  N   UNL     1       9.637  -3.336  24.146  0.00  0.00    -0.317 NA
ATOM     12  H   UNL     1      10.342  -3.535  23.437  0.00  0.00    +0.119 HD
ATOM     13  H   UNL     1      10.105  -2.849  24.908  0.00  0.00    +0.119 HD
ENDBRANCH   6  11
BRANCH   1  14
ATOM     14  C   UNL     1      10.184   1.541  21.986  0.00  0.00    +0.247 C 
ATOM     15  O   UNL     1      10.341   2.199  23.012  0.00  0.00    -0.299 OA
ENDBRANCH   1  14
BRANCH   6  16
ATOM     16  C   UNL     1       7.694  -3.278  22.580  0.00  0.00    +0.066 C 
BRANCH  16  17
ATOM     17  C   UNL     1       6.542  -4.057  23.173  0.00  0.00    -0.045 A 
ATOM     18  C   UNL     1       5.223  -3.736  22.822  0.00  0.00    +0.004 A 
ATOM     19  C   UNL     1       4.150  -4.432  23.380  0.00  0.00    +0.000 A 
ATOM     20  C   UNL     1       4.384  -5.462  24.288  0.00  0.00    +0.000 A 
ATOM     21  C   UNL     1       5.689  -5.791  24.646  0.00  0.00    +0.000 A 
ATOM     22  C   UNL     1       6.763  -5.088  24.097  0.00  0.00    +0.004 A 
ENDBRANCH  16  17
ENDBRANCH   6  16
TORSDOF 4
ENDMDL
MODEL 7
REMARK VINA RESULT:      -6.3      2.131      2.957
REMARK  Name = 
REMARK  4 active torsions:
REMARK  status: ('A' for Active; 'I' for Inactive)
REMARK    1  A    between atoms: C_2  and  C_20
REMARK    2  A    between atoms: C_8  and  N_9
REMARK    3  A    between atoms: C_8  and  C_10
REMARK    4  A    between atoms: C_10  and  C_11
REMARK                            x       y       z     vdW  Elec       q    Type
REMARK                         _______ _______ _______ _____ _____    ______ ____
ROOT
ATOM      1  C   UNL     1       5.506  -4.592  25.582  0.00  0.00    +0.158 C 
ATOM      2  N   UNL     1       6.392  -3.994  24.594  0.00  0.00    -0.223 N 
ATOM      3  N   UNL     1       5.831  -4.022  23.318  0.00  0.00    -0.224 NA
ATOM      4  C   UNL     1       6.308  -3.009  22.389  0.00  0.00    +0.108 C 
ATOM      5  C   UNL     1       7.834  -3.015  22.421  0.00  0.00    +0.049 C 
ATOM      6  C   UNL     1       8.359  -2.668  23.826  0.00  0.00    +0.100 C 
ATOM      7  C   UNL     1       4.377  -4.023  23.501  0.00  0.00    +0.108 C 
ATOM      8  C   UNL     1       7.681  -3.579  24.888  0.00  0.00    +0.250 C 
ATOM      9  O   UNL     1       8.198  -3.846  25.976  0.00  0.00    -0.272 OA
ATOM     10  C   UNL     1       4.141  -4.587  24.904  0.00  0.00    +0.048 C 
ENDROOT
BRANCH   6  11
ATOM     11  N   UNL     1       9.828  -2.890  23.857  0.00  0.00    -0.317 NA
ATOM     12  H   UNL     1      10.188  -2.680  24.788  0.00  0.00    +0.119 HD
ATOM     13  H   UNL     1      10.032  -3.871  23.671  0.00  0.00    +0.119 HD
ENDBRANCH   6  11
BRANCH   1  14
ATOM     14  C   UNL     1       5.966  -6.008  25.884  0.00  0.00    +0.247 C 
ATOM     15  O   UNL     1       5.663  -6.608  26.913  0.00  0.00    -0.299 OA
ENDBRANCH   1  14
BRANCH   6  16
ATOM     16  C   UNL     1       8.027  -1.216  24.282  0.00  0.00    +0.066 C 
BRANCH  16  17
ATOM     17  C   UNL     1       8.860  -0.103  23.687  0.00  0.00    -0.045 A 
ATOM     18  C   UNL     1       9.783   0.587  24.487  0.00  0.00    +0.004 A 
ATOM     19  C   UNL     1      10.542   1.630  23.956  0.00  0.00    +0.000 A 
ATOM     20  C   UNL     1      10.393   1.990  22.618  0.00  0.00    +0.000 A 
ATOM     21  C   UNL     1       9.479   1.314  21.813  0.00  0.00    +0.000 A 
ATOM     22  C   UNL     1       8.712   0.277  22.346  0.00  0.00    +0.004 A 
ENDBRANCH  16  17
ENDBRANCH   6  16
TORSDOF 4
ENDMDL
MODEL 8
REMARK VINA RESULT:      -6.3      3.246      6.328
REMARK  Name = 
REMARK  4 active torsions:
REMARK  status: ('A' for Active; 'I' for Inactive)
REMARK    1  A    between atoms: C_2  and  C_20
REMARK    2  A    between atoms: C_8  and  N_9
REMARK    3  A    between atoms: C_8  and  C_10
REMARK    4  A    between atoms: C_10  and  C_11
REMARK                            x       y       z     vdW  Elec       q    Type
REMARK                         _______ _______ _______ _____ _____    ______ ____
ROOT
ATOM      1  C   UNL     1       9.811   1.677  22.793  0.00  0.00    +0.158 C 
ATOM      2  N   UNL     1       9.046   0.919  23.773  0.00  0.00    -0.223 N 
ATOM      3  N   UNL     1       7.675   1.021  23.543  0.00  0.00    -0.224 NA
ATOM      4  C   UNL     1       6.860  -0.074  24.046  0.00  0.00    +0.108 C 
ATOM      5  C   UNL     1       7.252  -0.330  25.500  0.00  0.00    +0.049 C 
ATOM      6  C   UNL     1       8.732  -0.738  25.609  0.00  0.00    +0.100 C 
ATOM      7  C   UNL     1       7.509   1.275  22.110  0.00  0.00    +0.108 C 
ATOM      8  C   UNL     1       9.626   0.294  24.865  0.00  0.00    +0.250 C 
ATOM      9  O   UNL     1      10.811   0.487  25.148  0.00  0.00    -0.272 OA
ATOM     10  C   UNL     1       8.830   1.895  21.648  0.00  0.00    +0.048 C 
ENDROOT
BRANCH   6  11
ATOM     11  N   UNL     1       9.114  -0.771  27.046  0.00  0.00    -0.317 NA
ATOM     12  H   UNL     1       9.893  -1.416  27.178  0.00  0.00    +0.119 HD
ATOM     13  H   UNL     1       9.434   0.151  27.337  0.00  0.00    +0.119 HD
ENDBRANCH   6  11
BRANCH   1  14
ATOM     14  C   UNL     1      10.248   2.997  23.404  0.00  0.00    +0.247 C 
ATOM     15  O   UNL     1      11.400   3.420  23.340  0.00  0.00    -0.299 OA
ENDBRANCH   1  14
BRANCH   6  16
ATOM     16  C   UNL     1       9.061  -2.104  24.935  0.00  0.00    +0.066 C 
BRANCH  16  17
ATOM     17  C   UNL     1       8.207  -3.287  25.332  0.00  0.00    -0.045 A 
ATOM     18  C   UNL     1       8.497  -3.999  26.505  0.00  0.00    +0.004 A 
ATOM     19  C   UNL     1       7.732  -5.107  26.871  0.00  0.00    +0.000 A 
ATOM     20  C   UNL     1       6.662  -5.510  26.074  0.00  0.00    +0.000 A 
ATOM     21  C   UNL     1       6.364  -4.811  24.906  0.00  0.00    +0.000 A 
ATOM     22  C   UNL     1       7.137  -3.710  24.533  0.00  0.00    +0.004 A 
ENDBRANCH  16  17
ENDBRANCH   6  16
TORSDOF 4
ENDMDL
MODEL 9
REMARK VINA RESULT:      -6.3      2.141      2.373
REMARK  Name = 
REMARK  4 active torsions:
REMARK  status: ('A' for Active; 'I' for Inactive)
REMARK    1  A    between atoms: C_2  and  C_20
REMARK    2  A    between atoms: C_8  and  N_9
REMARK    3  A    between atoms: C_8  and  C_10
REMARK    4  A    between atoms: C_10  and  C_11
REMARK                            x       y       z     vdW  Elec       q    Type
REMARK                         _______ _______ _______ _____ _____    ______ ____
ROOT
ATOM      1  C   UNL     1       6.134  -4.443  25.176  0.00  0.00    +0.158 C 
ATOM      2  N   UNL     1       7.266  -3.528  25.148  0.00  0.00    -0.223 N 
ATOM      3  N   UNL     1       8.268  -3.978  24.290  0.00  0.00    -0.224 NA
ATOM      4  C   UNL     1       9.147  -2.956  23.744  0.00  0.00    +0.108 C 
ATOM      5  C   UNL     1       9.633  -2.081  24.898  0.00  0.00    +0.049 C 
ATOM      6  C   UNL     1       8.453  -1.382  25.596  0.00  0.00    +0.100 C 
ATOM      7  C   UNL     1       7.608  -4.799  23.271  0.00  0.00    +0.108 C 
ATOM      8  C   UNL     1       7.367  -2.426  25.981  0.00  0.00    +0.250 C 
ATOM      9  O   UNL     1       6.569  -2.256  26.906  0.00  0.00    -0.272 OA
ATOM     10  C   UNL     1       6.304  -5.279  23.913  0.00  0.00    +0.048 C 
ENDROOT
BRANCH   6  11
ATOM     11  N   UNL     1       8.952  -0.716  26.828  0.00  0.00    -0.317 NA
ATOM     12  H   UNL     1       8.260  -0.043  27.158  0.00  0.00    +0.119 HD
ATOM     13  H   UNL     1       9.075  -1.407  27.566  0.00  0.00    +0.119 HD
ENDBRANCH   6  11
BRANCH   1  14
ATOM     14  C   UNL     1       6.211  -5.307  26.423  0.00  0.00    +0.247 C 
ATOM     15  O   UNL     1       7.203  -5.967  26.724  0.00  0.00    -0.299 OA
ENDBRANCH   1  14
BRANCH   6  16
ATOM     16  C   UNL     1       7.708  -0.352  24.694  0.00  0.00    +0.066 C 
BRANCH  16  17
ATOM     17  C   UNL     1       8.563   0.545  23.827  0.00  0.00    -0.045 A 
ATOM     18  C   UNL     1       8.553   0.389  22.434  0.00  0.00    +0.004 A 
ATOM     19  C   UNL     1       9.354   1.195  21.624  0.00  0.00    +0.000 A 
ATOM     20  C   UNL     1      10.167   2.171  22.197  0.00  0.00    +0.000 A 
ATOM     21  C   UNL     1      10.186   2.336  23.580  0.00  0.00    +0.000 A 
ATOM     22  C   UNL     1       9.393   1.523  24.392  0.00  0.00    +0.004 A 
ENDBRANCH  16  17
ENDBRANCH   6  16
TORSDOF 4
ENDMDL
