MODEL 1
REMARK VINA RESULT:      -5.6      0.000      0.000
REMARK  Name = 
REMARK  6 active torsions:
REMARK  status: ('A' for Active; 'I' for Inactive)
REMARK    1  A    between atoms: N_1  and  CA_2
REMARK    2  A    between atoms: CA_2  and  C_4
REMARK    3  A    between atoms: CA_2  and  C_13
REMARK    4  A    between atoms: C_4  and  C_5
REMARK    5  A    between atoms: C_9  and  O_10
REMARK    6  A    between atoms: C_13  and  O_14
REMARK                            x       y       z     vdW  Elec       q    Type
REMARK                         _______ _______ _______ _____ _____    ______ ____
ROOT
ATOM      1  C   UNL     1       9.888  -2.820  24.090  0.00  0.00    +0.065 C 
ENDROOT
BRANCH   1   2
ATOM      2  C   UNL     1       9.928  -1.482  23.382  0.00  0.00    -0.042 A 
ATOM      3  C   UNL     1       9.539  -1.365  22.037  0.00  0.00    +0.007 A 
ATOM      4  C   UNL     1       9.523  -0.117  21.406  0.00  0.00    +0.048 A 
ATOM      5  C   UNL     1       9.909   1.013  22.114  0.00  0.00    +0.152 A 
ATOM      6  C   UNL     1      10.320   0.905  23.436  0.00  0.00    +0.165 A 
ATOM      7  F   UNL     1      10.700   2.006  24.101  0.00  0.00    -0.202 F 
ATOM      8  C   UNL     1      10.334  -0.330  24.075  0.00  0.00    +0.045 A 
BRANCH   5   9
ATOM      9  O   UNL     1       9.875   2.226  21.486  0.00  0.00    -0.504 OA
ATOM     10  H   UNL     1       9.352   2.820  22.056  0.00  0.00    +0.292 HD
ENDBRANCH   5   9
ENDBRANCH   1   2
BRANCH   1  11
ATOM     11  CA  UNL     1       8.524  -3.533  24.064  0.00  0.00    +0.165 C 
BRANCH  11  12
ATOM     12  N   UNL     1       7.400  -2.718  24.628  0.00  0.00    -0.318 NA
ATOM     13  H1  UNL     1       7.720  -2.287  25.502  0.00  0.00    +0.119 HD
ATOM     14  H2  UNL     1       7.250  -1.923  23.999  0.00  0.00    +0.119 HD
ENDBRANCH  11  12
BRANCH  11  15
ATOM     15  C   UNL     1       8.576  -4.885  24.794  0.00  0.00    +0.322 C 
ATOM     16  OXT UNL     1       7.644  -5.400  25.389  0.00  0.00    -0.249 OA
BRANCH  15  17
ATOM     17  O   UNL     1       9.815  -5.439  24.722  0.00  0.00    -0.480 OA
ATOM     18  H   UNL     1      10.298  -4.927  24.026  0.00  0.00    +0.295 HD
ENDBRANCH  15  17
ENDBRANCH  11  15
ENDBRANCH   1  11
TORSDOF 6
ENDMDL
MODEL 2
REMARK VINA RESULT:      -5.5      1.568      1.637
REMARK  Name = 
REMARK  6 active torsions:
REMARK  status: ('A' for Active; 'I' for Inactive)
REMARK    1  A    between atoms: N_1  and  CA_2
REMARK    2  A    between atoms: CA_2  and  C_4
REMARK    3  A    between atoms: CA_2  and  C_13
REMARK    4  A    between atoms: C_4  and  C_5
REMARK    5  A    between atoms: C_9  and  O_10
REMARK    6  A    between atoms: C_13  and  O_14
REMARK                            x       y       z     vdW  Elec       q    Type
REMARK                         _______ _______ _______ _____ _____    ______ ____
ROOT
ATOM      1  C   UNL     1       8.740  -3.173  23.807  0.00  0.00    +0.065 C 
ENDROOT
BRANCH   1   2
ATOM      2  C   UNL     1       9.188  -1.841  23.244  0.00  0.00    -0.042 A 
ATOM      3  C   UNL     1       8.974  -1.517  21.894  0.00  0.00    +0.007 A 
ATOM      4  C   UNL     1       9.338  -0.263  21.395  0.00  0.00    +0.048 A 
ATOM      5  C   UNL     1       9.929   0.665  22.242  0.00  0.00    +0.152 A 
ATOM      6  C   UNL     1      10.168   0.347  23.573  0.00  0.00    +0.165 A 
ATOM      7  F   UNL     1      10.750   1.252  24.373  0.00  0.00    -0.202 F 
ATOM      8  C   UNL     1       9.804  -0.895  24.081  0.00  0.00    +0.045 A 
BRANCH   5   9
ATOM      9  O   UNL     1      10.266   1.891  21.742  0.00  0.00    -0.504 OA
ATOM     10  H   UNL     1       9.724   2.023  20.941  0.00  0.00    +0.292 HD
ENDBRANCH   5   9
ENDBRANCH   1   2
BRANCH   1  11
ATOM     11  CA  UNL     1       9.535  -3.668  25.030  0.00  0.00    +0.165 C 
BRANCH  11  12
ATOM     12  N   UNL     1      10.189  -5.000  24.830  0.00  0.00    -0.318 NA
ATOM     13  H1  UNL     1      10.674  -4.991  23.926  0.00  0.00    +0.119 HD
ATOM     14  H2  UNL     1      10.946  -5.079  25.517  0.00  0.00    +0.119 HD
ENDBRANCH  11  12
BRANCH  11  15
ATOM     15  C   UNL     1       8.659  -3.725  26.291  0.00  0.00    +0.322 C 
ATOM     16  OXT UNL     1       7.770  -2.937  26.568  0.00  0.00    -0.249 OA
BRANCH  15  17
ATOM     17  O   UNL     1       9.013  -4.763  27.094  0.00  0.00    -0.480 OA
ATOM     18  H   UNL     1       9.007  -5.565  26.514  0.00  0.00    +0.295 HD
ENDBRANCH  15  17
ENDBRANCH  11  15
ENDBRANCH   1  11
TORSDOF 6
ENDMDL
MODEL 3
REMARK VINA RESULT:      -5.5      1.255      1.800
REMARK  Name = 
REMARK  6 active torsions:
REMARK  status: ('A' for Active; 'I' for Inactive)
REMARK    1  A    between atoms: N_1  and  CA_2
REMARK    2  A    between atoms: CA_2  and  C_4
REMARK    3  A    between atoms: CA_2  and  C_13
REMARK    4  A    between atoms: C_4  and  C_5
REMARK    5  A    between atoms: C_9  and  O_10
REMARK    6  A    between atoms: C_13  and  O_14
REMARK                            x       y       z     vdW  Elec       q    Type
REMARK                         _______ _______ _______ _____ _____    ______ ____
ROOT
ATOM      1  C   UNL     1       9.877  -2.901  24.167  0.00  0.00    +0.065 C 
ENDROOT
BRANCH   1   2
ATOM      2  C   UNL     1       9.869  -1.544  23.496  0.00  0.00    -0.042 A 
ATOM      3  C   UNL     1      10.309  -0.397  24.177  0.00  0.00    +0.007 A 
ATOM      4  C   UNL     1      10.353   0.843  23.532  0.00  0.00    +0.048 A 
ATOM      5  C   UNL     1       9.945   0.941  22.209  0.00  0.00    +0.152 A 
ATOM      6  C   UNL     1       9.484  -0.182  21.533  0.00  0.00    +0.165 A 
ATOM      7  F   UNL     1       9.083  -0.066  20.259  0.00  0.00    -0.202 F 
ATOM      8  C   UNL     1       9.442  -1.421  22.163  0.00  0.00    +0.045 A 
BRANCH   5   9
ATOM      9  O   UNL     1      10.007   2.157  21.590  0.00  0.00    -0.504 OA
ATOM     10  H   UNL     1      10.289   2.800  22.268  0.00  0.00    +0.292 HD
ENDBRANCH   5   9
ENDBRANCH   1   2
BRANCH   1  11
ATOM     11  CA  UNL     1       8.513  -3.614  24.217  0.00  0.00    +0.165 C 
BRANCH  11  12
ATOM     12  N   UNL     1       7.420  -2.792  24.828  0.00  0.00    -0.318 NA
ATOM     13  H1  UNL     1       6.673  -2.680  24.134  0.00  0.00    +0.119 HD
ATOM     14  H2  UNL     1       6.989  -3.354  25.569  0.00  0.00    +0.119 HD
ENDBRANCH  11  12
BRANCH  11  15
ATOM     15  C   UNL     1       8.602  -4.958  24.959  0.00  0.00    +0.322 C 
ATOM     16  OXT UNL     1       7.744  -5.414  25.695  0.00  0.00    -0.249 OA
BRANCH  15  17
ATOM     17  O   UNL     1       9.786  -5.580  24.714  0.00  0.00    -0.480 OA
ATOM     18  H   UNL     1       9.992  -5.401  23.763  0.00  0.00    +0.295 HD
ENDBRANCH  15  17
ENDBRANCH  11  15
ENDBRANCH   1  11
TORSDOF 6
ENDMDL
MODEL 4
REMARK VINA RESULT:      -5.3      2.024      2.567
REMARK  Name = 
REMARK  6 active torsions:
REMARK  status: ('A' for Active; 'I' for Inactive)
REMARK    1  A    between atoms: N_1  and  CA_2
REMARK    2  A    between atoms: CA_2  and  C_4
REMARK    3  A    between atoms: CA_2  and  C_13
REMARK    4  A    between atoms: C_4  and  C_5
REMARK    5  A    between atoms: C_9  and  O_10
REMARK    6  A    between atoms: C_13  and  O_14
REMARK                            x       y       z     vdW  Elec       q    Type
REMARK                         _______ _______ _______ _____ _____    ______ ____
ROOT
ATOM      1  C   UNL     1       8.643  -3.863  24.126  0.00  0.00    +0.065 C 
ENDROOT
BRANCH   1   2
ATOM      2  C   UNL     1       9.044  -2.456  23.736  0.00  0.00    -0.042 A 
ATOM      3  C   UNL     1       9.532  -1.552  24.694  0.00  0.00    +0.007 A 
ATOM      4  C   UNL     1       9.955  -0.273  24.317  0.00  0.00    +0.048 A 
ATOM      5  C   UNL     1       9.877   0.108  22.984  0.00  0.00    +0.152 A 
ATOM      6  C   UNL     1       9.372  -0.769  22.033  0.00  0.00    +0.165 A 
ATOM      7  F   UNL     1       9.294  -0.379  20.752  0.00  0.00    -0.202 F 
ATOM      8  C   UNL     1       8.955  -2.045  22.396  0.00  0.00    +0.045 A 
BRANCH   5   9
ATOM      9  O   UNL     1      10.306   1.356  22.631  0.00  0.00    -0.504 OA
ATOM     10  H   UNL     1       9.774   1.990  23.149  0.00  0.00    +0.292 HD
ENDBRANCH   5   9
ENDBRANCH   1   2
BRANCH   1  11
ATOM     11  CA  UNL     1       9.256  -4.377  25.442  0.00  0.00    +0.165 C 
BRANCH  11  12
ATOM     12  N   UNL     1       9.997  -5.671  25.304  0.00  0.00    -0.318 NA
ATOM     13  H1  UNL     1      10.663  -5.581  24.529  0.00  0.00    +0.119 HD
ATOM     14  H2  UNL     1      10.591  -5.777  26.132  0.00  0.00    +0.119 HD
ENDBRANCH  11  12
BRANCH  11  15
ATOM     15  C   UNL     1       8.193  -4.525  26.543  0.00  0.00    +0.322 C 
ATOM     16  OXT UNL     1       7.359  -3.684  26.834  0.00  0.00    -0.249 OA
BRANCH  15  17
ATOM     17  O   UNL     1       8.308  -5.717  27.185  0.00  0.00    -0.480 OA
ATOM     18  H   UNL     1       8.684  -5.507  28.076  0.00  0.00    +0.295 HD
ENDBRANCH  15  17
ENDBRANCH  11  15
ENDBRANCH   1  11
TORSDOF 6
ENDMDL
MODEL 5
REMARK VINA RESULT:      -5.1      2.796      5.461
REMARK  Name = 
REMARK  6 active torsions:
REMARK  status: ('A' for Active; 'I' for Inactive)
REMARK    1  A    between atoms: N_1  and  CA_2
REMARK    2  A    between atoms: CA_2  and  C_4
REMARK    3  A    between atoms: CA_2  and  C_13
REMARK    4  A    between atoms: C_4  and  C_5
REMARK    5  A    between atoms: C_9  and  O_10
REMARK    6  A    between atoms: C_13  and  O_14
REMARK                            x       y       z     vdW  Elec       q    Type
REMARK                         _______ _______ _______ _____ _____    ______ ____
ROOT
ATOM      1  C   UNL     1      10.291  -0.345  22.368  0.00  0.00    +0.065 C 
ENDROOT
BRANCH   1   2
ATOM      2  C   UNL     1       9.492  -1.550  22.818  0.00  0.00    -0.042 A 
ATOM      3  C   UNL     1       8.309  -1.921  22.158  0.00  0.00    +0.007 A 
ATOM      4  C   UNL     1       7.608  -3.068  22.542  0.00  0.00    +0.048 A 
ATOM      5  C   UNL     1       8.081  -3.838  23.597  0.00  0.00    +0.152 A 
ATOM      6  C   UNL     1       9.235  -3.465  24.273  0.00  0.00    +0.165 A 
ATOM      7  F   UNL     1       9.670  -4.215  25.297  0.00  0.00    -0.202 F 
ATOM      8  C   UNL     1       9.944  -2.331  23.895  0.00  0.00    +0.045 A 
BRANCH   5   9
ATOM      9  O   UNL     1       7.390  -4.962  23.951  0.00  0.00    -0.504 OA
ATOM     10  H   UNL     1       6.447  -4.774  23.783  0.00  0.00    +0.292 HD
ENDBRANCH   5   9
ENDBRANCH   1   2
BRANCH   1  11
ATOM     11  CA  UNL     1       9.643   1.020  22.668  0.00  0.00    +0.165 C 
BRANCH  11  12
ATOM     12  N   UNL     1       9.545   1.922  21.476  0.00  0.00    -0.318 NA
ATOM     13  H1  UNL     1       9.035   2.768  21.751  0.00  0.00    +0.119 HD
ATOM     14  H2  UNL     1      10.490   2.258  21.266  0.00  0.00    +0.119 HD
ENDBRANCH  11  12
BRANCH  11  15
ATOM     15  C   UNL     1      10.378   1.761  23.797  0.00  0.00    +0.322 C 
ATOM     16  OXT UNL     1      11.020   2.789  23.662  0.00  0.00    -0.249 OA
BRANCH  15  17
ATOM     17  O   UNL     1      10.248   1.110  24.983  0.00  0.00    -0.480 OA
ATOM     18  H   UNL     1      10.872   0.342  24.938  0.00  0.00    +0.295 HD
ENDBRANCH  15  17
ENDBRANCH  11  15
ENDBRANCH   1  11
TORSDOF 6
ENDMDL
MODEL 6
REMARK VINA RESULT:      -5.0      4.764      5.891
REMARK  Name = 
REMARK  6 active torsions:
REMARK  status: ('A' for Active; 'I' for Inactive)
REMARK    1  A    between atoms: N_1  and  CA_2
REMARK    2  A    between atoms: CA_2  and  C_4
REMARK    3  A    between atoms: CA_2  and  C_13
REMARK    4  A    between atoms: C_4  and  C_5
REMARK    5  A    between atoms: C_9  and  O_10
REMARK    6  A    between atoms: C_13  and  O_14
REMARK                            x       y       z     vdW  Elec       q    Type
REMARK                         _______ _______ _______ _____ _____    ______ ____
ROOT
ATOM      1  C   UNL     1       8.704  -3.586  24.424  0.00  0.00    +0.065 C 
ENDROOT
BRANCH   1   2
ATOM      2  C   UNL     1       7.468  -4.265  23.874  0.00  0.00    -0.042 A 
ATOM      3  C   UNL     1       6.186  -3.752  24.132  0.00  0.00    +0.007 A 
ATOM      4  C   UNL     1       5.052  -4.350  23.573  0.00  0.00    +0.048 A 
ATOM      5  C   UNL     1       5.198  -5.471  22.766  0.00  0.00    +0.152 A 
ATOM      6  C   UNL     1       6.459  -6.001  22.524  0.00  0.00    +0.165 A 
ATOM      7  F   UNL     1       6.579  -7.090  21.752  0.00  0.00    -0.202 F 
ATOM      8  C   UNL     1       7.593  -5.410  23.070  0.00  0.00    +0.045 A 
BRANCH   5   9
ATOM      9  O   UNL     1       4.082  -6.035  22.217  0.00  0.00    -0.504 OA
ATOM     10  H   UNL     1       4.373  -6.500  21.410  0.00  0.00    +0.292 HD
ENDBRANCH   5   9
ENDBRANCH   1   2
BRANCH   1  11
ATOM     11  CA  UNL     1       9.350  -4.284  25.636  0.00  0.00    +0.165 C 
BRANCH  11  12
ATOM     12  N   UNL     1      10.208  -5.458  25.274  0.00  0.00    -0.318 NA
ATOM     13  H1  UNL     1      10.815  -5.187  24.492  0.00  0.00    +0.119 HD
ATOM     14  H2  UNL     1      10.858  -5.615  26.050  0.00  0.00    +0.119 HD
ENDBRANCH  11  12
BRANCH  11  15
ATOM     15  C   UNL     1       8.296  -4.732  26.660  0.00  0.00    +0.322 C 
ATOM     16  OXT UNL     1       7.579  -3.985  27.305  0.00  0.00    -0.249 OA
BRANCH  15  17
ATOM     17  O   UNL     1       8.272  -6.085  26.787  0.00  0.00    -0.480 OA
ATOM     18  H   UNL     1       8.757  -6.437  25.999  0.00  0.00    +0.295 HD
ENDBRANCH  15  17
ENDBRANCH  11  15
ENDBRANCH   1  11
TORSDOF 6
ENDMDL
MODEL 7
REMARK VINA RESULT:      -5.0      3.004      5.856
REMARK  Name = 
REMARK  6 active torsions:
REMARK  status: ('A' for Active; 'I' for Inactive)
REMARK    1  A    between atoms: N_1  and  CA_2
REMARK    2  A    between atoms: CA_2  and  C_4
REMARK    3  A    between atoms: CA_2  and  C_13
REMARK    4  A    between atoms: C_4  and  C_5
REMARK    5  A    between atoms: C_9  and  O_10
REMARK    6  A    between atoms: C_13  and  O_14
REMARK                            x       y       z     vdW  Elec       q    Type
REMARK                         _______ _______ _______ _____ _____    ______ ____
ROOT
ATOM      1  C   UNL     1       8.647  -0.992  24.298  0.00  0.00    +0.065 C 
ENDROOT
BRANCH   1   2
ATOM      2  C   UNL     1       8.494  -2.289  25.064  0.00  0.00    -0.042 A 
ATOM      3  C   UNL     1       7.542  -2.415  26.089  0.00  0.00    +0.007 A 
ATOM      4  C   UNL     1       7.365  -3.633  26.753  0.00  0.00    +0.048 A 
ATOM      5  C   UNL     1       8.151  -4.723  26.403  0.00  0.00    +0.152 A 
ATOM      6  C   UNL     1       9.113  -4.602  25.408  0.00  0.00    +0.165 A 
ATOM      7  F   UNL     1       9.870  -5.663  25.092  0.00  0.00    -0.202 F 
ATOM      8  C   UNL     1       9.292  -3.398  24.737  0.00  0.00    +0.045 A 
BRANCH   5   9
ATOM      9  O   UNL     1       7.957  -5.908  27.053  0.00  0.00    -0.504 OA
ATOM     10  H   UNL     1       8.814  -6.150  27.453  0.00  0.00    +0.292 HD
ENDBRANCH   5   9
ENDBRANCH   1   2
BRANCH   1  11
ATOM     11  CA  UNL     1      10.058  -0.726  23.738  0.00  0.00    +0.165 C 
BRANCH  11  12
ATOM     12  N   UNL     1      10.783   0.389  24.427  0.00  0.00    -0.318 NA
ATOM     13  H1  UNL     1      11.410  -0.018  25.130  0.00  0.00    +0.119 HD
ATOM     14  H2  UNL     1      11.418   0.813  23.744  0.00  0.00    +0.119 HD
ENDBRANCH  11  12
BRANCH  11  15
ATOM     15  C   UNL     1      10.025  -0.443  22.228  0.00  0.00    +0.322 C 
ATOM     16  OXT UNL     1       9.860   0.654  21.720  0.00  0.00    -0.249 OA
BRANCH  15  17
ATOM     17  O   UNL     1      10.179  -1.585  21.507  0.00  0.00    -0.480 OA
ATOM     18  H   UNL     1      10.874  -2.108  21.979  0.00  0.00    +0.295 HD
ENDBRANCH  15  17
ENDBRANCH  11  15
ENDBRANCH   1  11
TORSDOF 6
ENDMDL
MODEL 8
REMARK VINA RESULT:      -4.9      2.789      5.847
REMARK  Name = 
REMARK  6 active torsions:
REMARK  status: ('A' for Active; 'I' for Inactive)
REMARK    1  A    between atoms: N_1  and  CA_2
REMARK    2  A    between atoms: CA_2  and  C_4
REMARK    3  A    between atoms: CA_2  and  C_13
REMARK    4  A    between atoms: C_4  and  C_5
REMARK    5  A    between atoms: C_9  and  O_10
REMARK    6  A    between atoms: C_13  and  O_14
REMARK                            x       y       z     vdW  Elec       q    Type
REMARK                         _______ _______ _______ _____ _____    ______ ____
ROOT
ATOM      1  C   UNL     1       8.040  -0.846  22.673  0.00  0.00    +0.065 C 
ENDROOT
BRANCH   1   2
ATOM      2  C   UNL     1       8.284  -2.109  23.471  0.00  0.00    -0.042 A 
ATOM      3  C   UNL     1       8.876  -2.058  24.744  0.00  0.00    +0.007 A 
ATOM      4  C   UNL     1       9.045  -3.222  25.499  0.00  0.00    +0.048 A 
ATOM      5  C   UNL     1       8.635  -4.442  24.978  0.00  0.00    +0.152 A 
ATOM      6  C   UNL     1       8.070  -4.507  23.710  0.00  0.00    +0.165 A 
ATOM      7  F   UNL     1       7.690  -5.696  23.218  0.00  0.00    -0.202 F 
ATOM      8  C   UNL     1       7.892  -3.355  22.953  0.00  0.00    +0.045 A 
BRANCH   5   9
ATOM      9  O   UNL     1       8.795  -5.568  25.734  0.00  0.00    -0.504 OA
ATOM     10  H   UNL     1       9.757  -5.714  25.815  0.00  0.00    +0.292 HD
ENDBRANCH   5   9
ENDBRANCH   1   2
BRANCH   1  11
ATOM     11  CA  UNL     1       9.206  -0.409  21.767  0.00  0.00    +0.165 C 
BRANCH  11  12
ATOM     12  N   UNL     1      10.229  -1.478  21.536  0.00  0.00    -0.318 NA
ATOM     13  H1  UNL     1      10.180  -1.767  20.553  0.00  0.00    +0.119 HD
ATOM     14  H2  UNL     1      11.153  -1.044  21.622  0.00  0.00    +0.119 HD
ENDBRANCH  11  12
BRANCH  11  15
ATOM     15  C   UNL     1       9.907   0.846  22.310  0.00  0.00    +0.322 C 
ATOM     16  OXT UNL     1      10.476   0.925  23.387  0.00  0.00    -0.249 OA
BRANCH  15  17
ATOM     17  O   UNL     1       9.797   1.889  21.445  0.00  0.00    -0.480 OA
ATOM     18  H   UNL     1       9.209   2.547  21.891  0.00  0.00    +0.295 HD
ENDBRANCH  15  17
ENDBRANCH  11  15
ENDBRANCH   1  11
TORSDOF 6
ENDMDL
MODEL 9
REMARK VINA RESULT:      -4.9      3.918      6.532
REMARK  Name = 
REMARK  6 active torsions:
REMARK  status: ('A' for Active; 'I' for Inactive)
REMARK    1  A    between atoms: N_1  and  CA_2
REMARK    2  A    between atoms: CA_2  and  C_4
REMARK    3  A    between atoms: CA_2  and  C_13
REMARK    4  A    between atoms: C_4  and  C_5
REMARK    5  A    between atoms: C_9  and  O_10
REMARK    6  A    between atoms: C_13  and  O_14
REMARK                            x       y       z     vdW  Elec       q    Type
REMARK                         _______ _______ _______ _____ _____    ______ ____
ROOT
ATOM      1  C   UNL     1       8.560  -3.028  23.511  0.00  0.00    +0.065 C 
ENDROOT
BRANCH   1   2
ATOM      2  C   UNL     1       7.546  -4.153  23.503  0.00  0.00    -0.042 A 
ATOM      3  C   UNL     1       6.954  -4.601  24.695  0.00  0.00    +0.007 A 
ATOM      4  C   UNL     1       5.975  -5.600  24.674  0.00  0.00    +0.048 A 
ATOM      5  C   UNL     1       5.598  -6.162  23.462  0.00  0.00    +0.152 A 
ATOM      6  C   UNL     1       6.195  -5.744  22.280  0.00  0.00    +0.165 A 
ATOM      7  F   UNL     1       5.825  -6.306  21.120  0.00  0.00    -0.202 F 
ATOM      8  C   UNL     1       7.164  -4.747  22.289  0.00  0.00    +0.045 A 
BRANCH   5   9
ATOM      9  O   UNL     1       4.631  -7.127  23.458  0.00  0.00    -0.504 OA
ATOM     10  H   UNL     1       5.057  -7.949  23.767  0.00  0.00    +0.292 HD
ENDBRANCH   5   9
ENDBRANCH   1   2
BRANCH   1  11
ATOM     11  CA  UNL     1       8.444  -2.034  22.340  0.00  0.00    +0.165 C 
BRANCH  11  12
ATOM     12  N   UNL     1       9.755  -1.700  21.696  0.00  0.00    -0.318 NA
ATOM     13  H1  UNL     1      10.382  -1.323  22.415  0.00  0.00    +0.119 HD
ATOM     14  H2  UNL     1      10.196  -2.581  21.418  0.00  0.00    +0.119 HD
ENDBRANCH  11  12
BRANCH  11  15
ATOM     15  C   UNL     1       7.750  -0.731  22.767  0.00  0.00    +0.322 C 
ATOM     16  OXT UNL     1       8.315   0.324  22.999  0.00  0.00    -0.249 OA
BRANCH  15  17
ATOM     17  O   UNL     1       6.406  -0.902  22.885  0.00  0.00    -0.480 OA
ATOM     18  H   UNL     1       6.284  -1.603  23.573  0.00  0.00    +0.295 HD
ENDBRANCH  15  17
ENDBRANCH  11  15
ENDBRANCH   1  11
TORSDOF 6
ENDMDL
