MODEL 1
REMARK VINA RESULT:      -4.9      0.000      0.000
REMARK  Name = 
REMARK  6 active torsions:
REMARK  status: ('A' for Active; 'I' for Inactive)
REMARK    1  A    between atoms: C_2  and  C_4
REMARK    2  A    between atoms: C_7  and  C_9
REMARK    3  A    between atoms: C_9  and  O_10
REMARK    4  A    between atoms: C_11  and  O_13
REMARK    5  A    between atoms: C_14  and  O_16
REMARK    6  A    between atoms: C_17  and  O_19
REMARK                            x       y       z     vdW  Elec       q    Type
REMARK                         _______ _______ _______ _____ _____    ______ ____
ROOT
ATOM      1  C   UNL     1       8.913   0.045  22.144  0.00  0.00    +0.235 C 
ATOM      2  C   UNL     1      10.048   1.081  22.201  0.00  0.00    +0.183 C 
ATOM      3  C   UNL     1      10.400   1.468  23.643  0.00  0.00    +0.177 C 
ATOM      4  C   UNL     1       9.140   1.861  24.424  0.00  0.00    +0.176 C 
ATOM      5  C   UNL     1       8.008   0.824  24.306  0.00  0.00    +0.176 C 
ATOM      6  O   UNL     1       7.787   0.355  22.972  0.00  0.00    -0.357 OA
ENDROOT
BRANCH   1  10
ATOM      7  N   UNL     1       8.496  -2.397  22.398  0.00  0.00    -0.327 N 
ATOM      8  H   UNL     1       7.507  -2.224  22.530  0.00  0.00    +0.145 HD
ATOM      9  H   UNL     1       8.829  -3.347  22.496  0.00  0.00    +0.145 HD
ATOM     10  C   UNL     1       9.430  -1.411  22.258  0.00  0.00    +0.242 C 
ATOM     11  O   UNL     1      10.624  -1.710  22.283  0.00  0.00    -0.273 OA
ENDBRANCH   1  10
BRANCH   2  12
ATOM     12  O   UNL     1       9.685   2.238  21.424  0.00  0.00    -0.386 OA
ATOM     13  H   UNL     1       9.948   2.066  20.496  0.00  0.00    +0.210 HD
ENDBRANCH   2  12
BRANCH   3  14
ATOM     14  O   UNL     1      11.172   0.448  24.271  0.00  0.00    -0.386 OA
ATOM     15  H   UNL     1      11.569  -0.138  23.587  0.00  0.00    +0.210 HD
ENDBRANCH   3  14
BRANCH   4  16
ATOM     16  O   UNL     1       8.685   3.119  23.878  0.00  0.00    -0.386 OA
ATOM     17  H   UNL     1       8.122   2.920  23.107  0.00  0.00    +0.210 HD
ENDBRANCH   4  16
BRANCH   5  18
ATOM     18  C   UNL     1       8.092  -0.304  25.349  0.00  0.00    +0.190 C 
BRANCH  18  19
ATOM     19  O   UNL     1       9.061  -0.050  26.358  0.00  0.00    -0.392 OA
ATOM     20  H   UNL     1       8.563   0.386  27.091  0.00  0.00    +0.210 HD
ENDBRANCH  18  19
ENDBRANCH   5  18
TORSDOF 6
ENDMDL
MODEL 2
REMARK VINA RESULT:      -4.9      2.005      3.554
REMARK  Name = 
REMARK  6 active torsions:
REMARK  status: ('A' for Active; 'I' for Inactive)
REMARK    1  A    between atoms: C_2  and  C_4
REMARK    2  A    between atoms: C_7  and  C_9
REMARK    3  A    between atoms: C_9  and  O_10
REMARK    4  A    between atoms: C_11  and  O_13
REMARK    5  A    between atoms: C_14  and  O_16
REMARK    6  A    between atoms: C_17  and  O_19
REMARK                            x       y       z     vdW  Elec       q    Type
REMARK                         _______ _______ _______ _____ _____    ______ ____
ROOT
ATOM      1  C   UNL     1       9.813   0.610  22.285  0.00  0.00    +0.235 C 
ATOM      2  C   UNL     1       9.239  -0.719  21.765  0.00  0.00    +0.183 C 
ATOM      3  C   UNL     1       8.253  -1.345  22.758  0.00  0.00    +0.177 C 
ATOM      4  C   UNL     1       8.868  -1.424  24.160  0.00  0.00    +0.176 C 
ATOM      5  C   UNL     1       9.476  -0.089  24.630  0.00  0.00    +0.176 C 
ATOM      6  O   UNL     1      10.275   0.565  23.638  0.00  0.00    -0.357 OA
ENDROOT
BRANCH   1  10
ATOM      7  N   UNL     1       9.270   3.034  22.458  0.00  0.00    -0.327 N 
ATOM      8  H   UNL     1      10.018   3.163  23.129  0.00  0.00    +0.145 HD
ATOM      9  H   UNL     1       8.674   3.825  22.254  0.00  0.00    +0.145 HD
ATOM     10  C   UNL     1       8.914   1.823  21.938  0.00  0.00    +0.242 C 
ATOM     11  O   UNL     1       7.882   1.738  21.272  0.00  0.00    -0.273 OA
ENDBRANCH   1  10
BRANCH   2  12
ATOM     12  O   UNL     1      10.317  -1.624  21.458  0.00  0.00    -0.386 OA
ATOM     13  H   UNL     1      11.158  -1.156  21.641  0.00  0.00    +0.210 HD
ENDBRANCH   2  12
BRANCH   3  14
ATOM     14  O   UNL     1       6.995  -0.677  22.718  0.00  0.00    -0.386 OA
ATOM     15  H   UNL     1       6.327  -1.194  23.222  0.00  0.00    +0.210 HD
ENDBRANCH   3  14
BRANCH   4  16
ATOM     16  O   UNL     1       9.912  -2.421  24.104  0.00  0.00    -0.386 OA
ATOM     17  H   UNL     1       9.586  -3.160  23.557  0.00  0.00    +0.210 HD
ENDBRANCH   4  16
BRANCH   5  18
ATOM     18  C   UNL     1       8.462   0.844  25.315  0.00  0.00    +0.190 C 
BRANCH  18  19
ATOM     19  O   UNL     1       8.889   2.199  25.339  0.00  0.00    -0.392 OA
ATOM     20  H   UNL     1       8.057   2.733  25.342  0.00  0.00    +0.210 HD
ENDBRANCH  18  19
ENDBRANCH   5  18
TORSDOF 6
ENDMDL
MODEL 3
REMARK VINA RESULT:      -4.8      1.861      3.588
REMARK  Name = 
REMARK  6 active torsions:
REMARK  status: ('A' for Active; 'I' for Inactive)
REMARK    1  A    between atoms: C_2  and  C_4
REMARK    2  A    between atoms: C_7  and  C_9
REMARK    3  A    between atoms: C_9  and  O_10
REMARK    4  A    between atoms: C_11  and  O_13
REMARK    5  A    between atoms: C_14  and  O_16
REMARK    6  A    between atoms: C_17  and  O_19
REMARK                            x       y       z     vdW  Elec       q    Type
REMARK                         _______ _______ _______ _____ _____    ______ ____
ROOT
ATOM      1  C   UNL     1       8.385   1.157  23.379  0.00  0.00    +0.235 C 
ATOM      2  C   UNL     1       8.360   1.205  24.916  0.00  0.00    +0.183 C 
ATOM      3  C   UNL     1       9.191   0.077  25.540  0.00  0.00    +0.177 C 
ATOM      4  C   UNL     1       8.803  -1.280  24.939  0.00  0.00    +0.176 C 
ATOM      5  C   UNL     1       8.792  -1.279  23.399  0.00  0.00    +0.176 C 
ATOM      6  O   UNL     1       8.144  -0.139  22.824  0.00  0.00    -0.357 OA
ENDROOT
BRANCH   1  10
ATOM      7  N   UNL     1       9.771   1.846  21.428  0.00  0.00    -0.327 N 
ATOM      8  H   UNL     1       9.217   1.259  20.816  0.00  0.00    +0.145 HD
ATOM      9  H   UNL     1      10.574   2.318  21.034  0.00  0.00    +0.145 HD
ATOM     10  C   UNL     1       9.598   1.912  22.781  0.00  0.00    +0.242 C 
ATOM     11  O   UNL     1      10.431   2.512  23.461  0.00  0.00    -0.273 OA
ENDBRANCH   1  10
BRANCH   2  12
ATOM     12  O   UNL     1       6.996   1.166  25.378  0.00  0.00    -0.386 OA
ATOM     13  H   UNL     1       6.717   2.088  25.556  0.00  0.00    +0.210 HD
ENDBRANCH   2  12
BRANCH   3  14
ATOM     14  O   UNL     1      10.584   0.364  25.459  0.00  0.00    -0.386 OA
ATOM     15  H   UNL     1      11.075  -0.442  25.182  0.00  0.00    +0.210 HD
ENDBRANCH   3  14
BRANCH   4  16
ATOM     16  O   UNL     1       7.474  -1.585  25.418  0.00  0.00    -0.386 OA
ATOM     17  H   UNL     1       6.856  -1.461  24.674  0.00  0.00    +0.210 HD
ENDBRANCH   4  16
BRANCH   5  18
ATOM     18  C   UNL     1      10.163  -1.588  22.772  0.00  0.00    +0.190 C 
BRANCH  18  19
ATOM     19  O   UNL     1      10.185  -1.383  21.366  0.00  0.00    -0.392 OA
ATOM     20  H   UNL     1      11.138  -1.426  21.112  0.00  0.00    +0.210 HD
ENDBRANCH  18  19
ENDBRANCH   5  18
TORSDOF 6
ENDMDL
MODEL 4
REMARK VINA RESULT:      -4.8      1.997      3.945
REMARK  Name = 
REMARK  6 active torsions:
REMARK  status: ('A' for Active; 'I' for Inactive)
REMARK    1  A    between atoms: C_2  and  C_4
REMARK    2  A    between atoms: C_7  and  C_9
REMARK    3  A    between atoms: C_9  and  O_10
REMARK    4  A    between atoms: C_11  and  O_13
REMARK    5  A    between atoms: C_14  and  O_16
REMARK    6  A    between atoms: C_17  and  O_19
REMARK                            x       y       z     vdW  Elec       q    Type
REMARK                         _______ _______ _______ _____ _____    ______ ____
ROOT
ATOM      1  C   UNL     1       8.006  -0.440  24.151  0.00  0.00    +0.235 C 
ATOM      2  C   UNL     1       9.407  -0.943  24.540  0.00  0.00    +0.183 C 
ATOM      3  C   UNL     1      10.510  -0.252  23.730  0.00  0.00    +0.177 C 
ATOM      4  C   UNL     1      10.205  -0.319  22.228  0.00  0.00    +0.176 C 
ATOM      5  C   UNL     1       8.779   0.146  21.880  0.00  0.00    +0.176 C 
ATOM      6  O   UNL     1       7.768  -0.387  22.742  0.00  0.00    -0.357 OA
ENDROOT
BRANCH   1  10
ATOM      7  N   UNL     1       8.273   1.106  26.085  0.00  0.00    -0.327 N 
ATOM      8  H   UNL     1       8.956   0.484  26.500  0.00  0.00    +0.145 HD
ATOM      9  H   UNL     1       7.991   1.921  26.614  0.00  0.00    +0.145 HD
ATOM     10  C   UNL     1       7.591   0.830  24.935  0.00  0.00    +0.242 C 
ATOM     11  O   UNL     1       6.655   1.558  24.606  0.00  0.00    -0.273 OA
ENDBRANCH   1  10
BRANCH   2  12
ATOM     12  O   UNL     1       9.466  -2.374  24.389  0.00  0.00    -0.386 OA
ATOM     13  H   UNL     1       9.018  -2.772  25.164  0.00  0.00    +0.210 HD
ENDBRANCH   2  12
BRANCH   3  14
ATOM     14  O   UNL     1      10.747   1.068  24.210  0.00  0.00    -0.386 OA
ATOM     15  H   UNL     1      10.948   1.041  25.173  0.00  0.00    +0.210 HD
ENDBRANCH   3  14
BRANCH   4  16
ATOM     16  O   UNL     1      10.359  -1.700  21.831  0.00  0.00    -0.386 OA
ATOM     17  H   UNL     1      11.244  -1.993  22.117  0.00  0.00    +0.210 HD
ENDBRANCH   4  16
BRANCH   5  18
ATOM     18  C   UNL     1       8.661   1.665  21.660  0.00  0.00    +0.190 C 
BRANCH  18  19
ATOM     19  O   UNL     1       9.925   2.303  21.534  0.00  0.00    -0.392 OA
ATOM     20  H   UNL     1       9.902   2.753  20.656  0.00  0.00    +0.210 HD
ENDBRANCH  18  19
ENDBRANCH   5  18
TORSDOF 6
ENDMDL
MODEL 5
REMARK VINA RESULT:      -4.7      2.139      3.744
REMARK  Name = 
REMARK  6 active torsions:
REMARK  status: ('A' for Active; 'I' for Inactive)
REMARK    1  A    between atoms: C_2  and  C_4
REMARK    2  A    between atoms: C_7  and  C_9
REMARK    3  A    between atoms: C_9  and  O_10
REMARK    4  A    between atoms: C_11  and  O_13
REMARK    5  A    between atoms: C_14  and  O_16
REMARK    6  A    between atoms: C_17  and  O_19
REMARK                            x       y       z     vdW  Elec       q    Type
REMARK                         _______ _______ _______ _____ _____    ______ ____
ROOT
ATOM      1  C   UNL     1       8.798  -0.343  21.867  0.00  0.00    +0.235 C 
ATOM      2  C   UNL     1       7.860  -1.318  22.599  0.00  0.00    +0.183 C 
ATOM      3  C   UNL     1       8.175  -1.402  24.097  0.00  0.00    +0.177 C 
ATOM      4  C   UNL     1       9.668  -1.665  24.326  0.00  0.00    +0.176 C 
ATOM      5  C   UNL     1      10.579  -0.701  23.541  0.00  0.00    +0.176 C 
ATOM      6  O   UNL     1      10.184  -0.512  22.178  0.00  0.00    -0.357 OA
ENDROOT
BRANCH   1  10
ATOM      7  N   UNL     1       9.137   2.091  21.465  0.00  0.00    -0.327 N 
ATOM      8  H   UNL     1      10.102   1.922  21.206  0.00  0.00    +0.145 HD
ATOM      9  H   UNL     1       8.820   3.049  21.513  0.00  0.00    +0.145 HD
ATOM     10  C   UNL     1       8.289   1.119  21.911  0.00  0.00    +0.242 C 
ATOM     11  O   UNL     1       7.195   1.446  22.372  0.00  0.00    -0.273 OA
ENDBRANCH   1  10
BRANCH   2  12
ATOM     12  O   UNL     1       7.931  -2.616  21.976  0.00  0.00    -0.386 OA
ATOM     13  H   UNL     1       7.565  -2.530  21.072  0.00  0.00    +0.210 HD
ENDBRANCH   2  12
BRANCH   3  14
ATOM     14  O   UNL     1       7.680  -0.258  24.787  0.00  0.00    -0.386 OA
ATOM     15  H   UNL     1       6.695  -0.269  24.788  0.00  0.00    +0.210 HD
ENDBRANCH   3  14
BRANCH   4  16
ATOM     16  O   UNL     1       9.927  -3.017  23.888  0.00  0.00    -0.386 OA
ATOM     17  H   UNL     1       9.632  -3.090  22.961  0.00  0.00    +0.210 HD
ENDBRANCH   4  16
BRANCH   5  18
ATOM     18  C   UNL     1      10.873   0.613  24.285  0.00  0.00    +0.190 C 
BRANCH  18  19
ATOM     19  O   UNL     1      10.410   0.602  25.628  0.00  0.00    -0.392 OA
ATOM     20  H   UNL     1      10.104  -0.323  25.789  0.00  0.00    +0.210 HD
ENDBRANCH  18  19
ENDBRANCH   5  18
TORSDOF 6
ENDMDL
MODEL 6
REMARK VINA RESULT:      -4.7      1.672      3.386
REMARK  Name = 
REMARK  6 active torsions:
REMARK  status: ('A' for Active; 'I' for Inactive)
REMARK    1  A    between atoms: C_2  and  C_4
REMARK    2  A    between atoms: C_7  and  C_9
REMARK    3  A    between atoms: C_9  and  O_10
REMARK    4  A    between atoms: C_11  and  O_13
REMARK    5  A    between atoms: C_14  and  O_16
REMARK    6  A    between atoms: C_17  and  O_19
REMARK                            x       y       z     vdW  Elec       q    Type
REMARK                         _______ _______ _______ _____ _____    ______ ____
ROOT
ATOM      1  C   UNL     1       9.770   0.651  24.735  0.00  0.00    +0.235 C 
ATOM      2  C   UNL     1       8.851   1.773  24.223  0.00  0.00    +0.183 C 
ATOM      3  C   UNL     1       8.238   1.435  22.858  0.00  0.00    +0.177 C 
ATOM      4  C   UNL     1       9.324   1.001  21.866  0.00  0.00    +0.176 C 
ATOM      5  C   UNL     1      10.256  -0.089  22.429  0.00  0.00    +0.176 C 
ATOM      6  O   UNL     1      10.703   0.163  23.765  0.00  0.00    -0.357 OA
ENDROOT
BRANCH   1  10
ATOM      7  N   UNL     1       9.138  -0.464  26.869  0.00  0.00    -0.327 N 
ATOM      8  H   UNL     1       9.787   0.123  27.379  0.00  0.00    +0.145 HD
ATOM      9  H   UNL     1       8.655  -1.191  27.380  0.00  0.00    +0.145 HD
ATOM     10  C   UNL     1       8.997  -0.444  25.512  0.00  0.00    +0.242 C 
ATOM     11  O   UNL     1       8.318  -1.315  24.968  0.00  0.00    -0.273 OA
ENDBRANCH   1  10
BRANCH   2  12
ATOM     12  O   UNL     1       9.583   3.013  24.175  0.00  0.00    -0.386 OA
ATOM     13  H   UNL     1       8.947   3.723  23.951  0.00  0.00    +0.210 HD
ENDBRANCH   2  12
BRANCH   3  14
ATOM     14  O   UNL     1       7.175   0.496  22.994  0.00  0.00    -0.386 OA
ATOM     15  H   UNL     1       6.404   0.786  22.456  0.00  0.00    +0.210 HD
ENDBRANCH   3  14
BRANCH   4  16
ATOM     16  O   UNL     1      10.107   2.177  21.562  0.00  0.00    -0.386 OA
ATOM     17  H   UNL     1      11.029   1.892  21.422  0.00  0.00    +0.210 HD
ENDBRANCH   4  16
BRANCH   5  18
ATOM     18  C   UNL     1       9.732  -1.519  22.214  0.00  0.00    +0.190 C 
BRANCH  18  19
ATOM     19  O   UNL     1      10.413  -2.481  23.009  0.00  0.00    -0.392 OA
ATOM     20  H   UNL     1      10.942  -3.017  22.371  0.00  0.00    +0.210 HD
ENDBRANCH  18  19
ENDBRANCH   5  18
TORSDOF 6
ENDMDL
MODEL 7
REMARK VINA RESULT:      -4.7      1.564      3.404
REMARK  Name = 
REMARK  6 active torsions:
REMARK  status: ('A' for Active; 'I' for Inactive)
REMARK    1  A    between atoms: C_2  and  C_4
REMARK    2  A    between atoms: C_7  and  C_9
REMARK    3  A    between atoms: C_9  and  O_10
REMARK    4  A    between atoms: C_11  and  O_13
REMARK    5  A    between atoms: C_14  and  O_16
REMARK    6  A    between atoms: C_17  and  O_19
REMARK                            x       y       z     vdW  Elec       q    Type
REMARK                         _______ _______ _______ _____ _____    ______ ____
ROOT
ATOM      1  C   UNL     1       9.333  -0.871  23.699  0.00  0.00    +0.235 C 
ATOM      2  C   UNL     1       8.148  -1.062  24.661  0.00  0.00    +0.183 C 
ATOM      3  C   UNL     1       7.117   0.065  24.533  0.00  0.00    +0.177 C 
ATOM      4  C   UNL     1       7.797   1.437  24.626  0.00  0.00    +0.176 C 
ATOM      5  C   UNL     1       9.007   1.577  23.684  0.00  0.00    +0.176 C 
ATOM      6  O   UNL     1       9.887   0.448  23.698  0.00  0.00    -0.357 OA
ENDROOT
BRANCH   1  10
ATOM      7  N   UNL     1       9.907  -1.106  21.287  0.00  0.00    -0.327 N 
ATOM      8  H   UNL     1      10.627  -0.399  21.380  0.00  0.00    +0.145 HD
ATOM      9  H   UNL     1       9.721  -1.475  20.364  0.00  0.00    +0.145 HD
ATOM     10  C   UNL     1       9.063  -1.470  22.296  0.00  0.00    +0.242 C 
ATOM     11  O   UNL     1       8.107  -2.203  22.040  0.00  0.00    -0.273 OA
ENDBRANCH   1  10
BRANCH   2  12
ATOM     12  O   UNL     1       8.637  -1.173  26.012  0.00  0.00    -0.386 OA
ATOM     13  H   UNL     1       9.288  -0.456  26.151  0.00  0.00    +0.210 HD
ENDBRANCH   2  12
BRANCH   3  14
ATOM     14  O   UNL     1       6.319  -0.103  23.365  0.00  0.00    -0.386 OA
ATOM     15  H   UNL     1       6.020  -1.039  23.298  0.00  0.00    +0.210 HD
ENDBRANCH   3  14
BRANCH   4  16
ATOM     16  O   UNL     1       8.244   1.591  25.991  0.00  0.00    -0.386 OA
ATOM     17  H   UNL     1       8.998   0.988  26.126  0.00  0.00    +0.210 HD
ENDBRANCH   4  16
BRANCH   5  18
ATOM     18  C   UNL     1       8.636   2.050  22.267  0.00  0.00    +0.190 C 
BRANCH  18  19
ATOM     19  O   UNL     1       9.738   2.020  21.370  0.00  0.00    -0.392 OA
ATOM     20  H   UNL     1       9.451   1.439  20.626  0.00  0.00    +0.210 HD
ENDBRANCH  18  19
ENDBRANCH   5  18
TORSDOF 6
ENDMDL
MODEL 8
REMARK VINA RESULT:      -4.6      1.436      2.410
REMARK  Name = 
REMARK  6 active torsions:
REMARK  status: ('A' for Active; 'I' for Inactive)
REMARK    1  A    between atoms: C_2  and  C_4
REMARK    2  A    between atoms: C_7  and  C_9
REMARK    3  A    between atoms: C_9  and  O_10
REMARK    4  A    between atoms: C_11  and  O_13
REMARK    5  A    between atoms: C_14  and  O_16
REMARK    6  A    between atoms: C_17  and  O_19
REMARK                            x       y       z     vdW  Elec       q    Type
REMARK                         _______ _______ _______ _____ _____    ______ ____
ROOT
ATOM      1  C   UNL     1       8.322  -0.216  23.156  0.00  0.00    +0.235 C 
ATOM      2  C   UNL     1       7.551   0.738  22.228  0.00  0.00    +0.183 C 
ATOM      3  C   UNL     1       8.229   2.109  22.125  0.00  0.00    +0.177 C 
ATOM      4  C   UNL     1       8.524   2.678  23.518  0.00  0.00    +0.176 C 
ATOM      5  C   UNL     1       9.253   1.679  24.437  0.00  0.00    +0.176 C 
ATOM      6  O   UNL     1       8.703   0.358  24.410  0.00  0.00    -0.357 OA
ENDROOT
BRANCH   1  10
ATOM      7  N   UNL     1       9.444  -0.939  21.054  0.00  0.00    -0.327 N 
ATOM      8  H   UNL     1       8.703  -0.519  20.504  0.00  0.00    +0.145 HD
ATOM      9  H   UNL     1      10.160  -1.458  20.566  0.00  0.00    +0.145 HD
ATOM     10  C   UNL     1       9.445  -0.986  22.418  0.00  0.00    +0.242 C 
ATOM     11  O   UNL     1      10.292  -1.672  22.992  0.00  0.00    -0.273 OA
ENDBRANCH   1  10
BRANCH   2  12
ATOM     12  O   UNL     1       6.190   0.861  22.684  0.00  0.00    -0.386 OA
ATOM     13  H   UNL     1       5.838  -0.044  22.811  0.00  0.00    +0.210 HD
ENDBRANCH   2  12
BRANCH   3  14
ATOM     14  O   UNL     1       9.371   2.051  21.274  0.00  0.00    -0.386 OA
ATOM     15  H   UNL     1       9.493   1.132  20.943  0.00  0.00    +0.210 HD
ENDBRANCH   3  14
BRANCH   4  16
ATOM     16  O   UNL     1       7.250   3.016  24.110  0.00  0.00    -0.386 OA
ATOM     17  H   UNL     1       6.798   3.635  23.506  0.00  0.00    +0.210 HD
ENDBRANCH   4  16
BRANCH   5  18
ATOM     18  C   UNL     1      10.785   1.711  24.290  0.00  0.00    +0.190 C 
BRANCH  18  19
ATOM     19  O   UNL     1      11.411   0.539  24.794  0.00  0.00    -0.392 OA
ATOM     20  H   UNL     1      11.443   0.663  25.774  0.00  0.00    +0.210 HD
ENDBRANCH  18  19
ENDBRANCH   5  18
TORSDOF 6
ENDMDL
MODEL 9
REMARK VINA RESULT:      -4.6      4.550      6.554
REMARK  Name = 
REMARK  6 active torsions:
REMARK  status: ('A' for Active; 'I' for Inactive)
REMARK    1  A    between atoms: C_2  and  C_4
REMARK    2  A    between atoms: C_7  and  C_9
REMARK    3  A    between atoms: C_9  and  O_10
REMARK    4  A    between atoms: C_11  and  O_13
REMARK    5  A    between atoms: C_14  and  O_16
REMARK    6  A    between atoms: C_17  and  O_19
REMARK                            x       y       z     vdW  Elec       q    Type
REMARK                         _______ _______ _______ _____ _____    ______ ____
ROOT
ATOM      1  C   UNL     1       6.541  -4.886  25.689  0.00  0.00    +0.235 C 
ATOM      2  C   UNL     1       7.569  -4.797  26.830  0.00  0.00    +0.183 C 
ATOM      3  C   UNL     1       8.801  -3.976  26.431  0.00  0.00    +0.177 C 
ATOM      4  C   UNL     1       9.374  -4.469  25.096  0.00  0.00    +0.176 C 
ATOM      5  C   UNL     1       8.310  -4.592  23.990  0.00  0.00    +0.176 C 
ATOM      6  O   UNL     1       7.099  -5.227  24.417  0.00  0.00    -0.357 OA
ENDROOT
BRANCH   1  10
ATOM      7  N   UNL     1       4.747  -3.556  24.587  0.00  0.00    -0.327 N 
ATOM      8  H   UNL     1       4.818  -4.132  23.757  0.00  0.00    +0.145 HD
ATOM      9  H   UNL     1       4.122  -2.762  24.562  0.00  0.00    +0.145 HD
ATOM     10  C   UNL     1       5.561  -3.686  25.675  0.00  0.00    +0.242 C 
ATOM     11  O   UNL     1       5.521  -2.829  26.558  0.00  0.00    -0.273 OA
ENDBRANCH   1  10
BRANCH   2  12
ATOM     12  O   UNL     1       7.939  -6.124  27.251  0.00  0.00    -0.386 OA
ATOM     13  H   UNL     1       8.025  -6.676  26.448  0.00  0.00    +0.210 HD
ENDBRANCH   2  12
BRANCH   3  14
ATOM     14  O   UNL     1       8.513  -2.580  26.453  0.00  0.00    -0.386 OA
ATOM     15  H   UNL     1       8.838  -2.187  27.295  0.00  0.00    +0.210 HD
ENDBRANCH   3  14
BRANCH   4  16
ATOM     16  O   UNL     1       9.948  -5.772  25.343  0.00  0.00    -0.386 OA
ATOM     17  H   UNL     1       9.294  -6.440  25.066  0.00  0.00    +0.210 HD
ENDBRANCH   4  16
BRANCH   5  18
ATOM     18  C   UNL     1       8.077  -3.287  23.209  0.00  0.00    +0.190 C 
BRANCH  18  19
ATOM     19  O   UNL     1       6.927  -3.340  22.376  0.00  0.00    -0.392 OA
ATOM     20  H   UNL     1       7.058  -4.134  21.803  0.00  0.00    +0.210 HD
ENDBRANCH  18  19
ENDBRANCH   5  18
TORSDOF 6
ENDMDL
