MODEL 1
REMARK VINA RESULT:      -6.7      0.000      0.000
REMARK  Name = 
REMARK  9 active torsions:
REMARK  status: ('A' for Active; 'I' for Inactive)
REMARK    1  A    between atoms: C_2  and  O_3
REMARK    2  A    between atoms: C_2  and  C_4
REMARK    3  A    between atoms: C_2  and  N_18
REMARK    4  A    between atoms: C_4  and  N_5
REMARK    5  A    between atoms: C_6  and  C_8
REMARK    6  A    between atoms: N_18  and  C_19
REMARK    7  A    between atoms: N_18  and  C_22
REMARK    8  A    between atoms: C_19  and  C_20
REMARK    9  A    between atoms: C_20  and  O_21
REMARK                            x       y       z     vdW  Elec       q    Type
REMARK                         _______ _______ _______ _____ _____    ______ ____
ROOT
ATOM      1  N   UNL     1       7.489  -2.561  26.499  0.00  0.00    -0.306 N 
ATOM      2  H   UNL     1       8.464  -2.401  26.698  0.00  0.00    +0.149 HD
ATOM      3  C   UNL     1       6.861  -1.786  25.545  0.00  0.00    +0.260 C 
ATOM      4  O   UNL     1       5.700  -2.002  25.211  0.00  0.00    -0.269 OA
ENDROOT
BRANCH   3   5
ATOM      5  C   UNL     1       7.649  -0.730  24.964  0.00  0.00    +0.103 A 
ATOM      6  N   UNL     1       7.921  -0.708  23.611  0.00  0.00    -0.351 N 
ATOM      7  H   UNL     1       7.576  -1.401  22.958  0.00  0.00    +0.166 HD
ATOM      8  C   UNL     1       8.753   0.339  23.290  0.00  0.00    +0.047 A 
ATOM      9  C   UNL     1       8.977   1.049  24.467  0.00  0.00    +0.002 A 
ATOM     10  C   UNL     1       9.808   2.185  24.428  0.00  0.00    +0.030 A 
ATOM     11  C   UNL     1      10.399   2.547  23.214  0.00  0.00    +0.042 A 
ATOM     12  C   UNL     1      10.158   1.820  22.049  0.00  0.00    +0.022 A 
ATOM     13 CL   UNL     1      11.457   3.905  23.164  0.00  0.00    -0.084 Cl
ATOM     14  C   UNL     1       9.319   0.702  22.064  0.00  0.00    +0.027 A 
ATOM     15  C   UNL     1       8.264   0.385  25.504  0.00  0.00    +0.041 A 
ENDBRANCH   3   5
BRANCH   1  16
ATOM     16  C   UNL     1       6.862  -3.776  27.019  0.00  0.00    +0.152 C 
BRANCH  16  17
ATOM     17  C   UNL     1       7.271  -5.073  26.254  0.00  0.00    +0.203 C 
BRANCH  17  18
ATOM     18  O   UNL     1       7.836  -6.044  27.122  0.00  0.00    -0.376 OA
ATOM     19  H   UNL     1       7.469  -6.917  26.881  0.00  0.00    +0.212 HD
ENDBRANCH  17  18
BRANCH  17  20
ATOM     20  N   UNL     1       6.214  -5.695  25.426  0.00  0.00    -0.271 NA
BRANCH  20  21
ATOM     21  C   UNL     1       6.160  -5.221  24.023  0.00  0.00    +0.059 C 
ATOM     22  C   UNL     1       5.489  -6.218  23.046  0.00  0.00    +0.019 C 
ATOM     23  C   UNL     1       6.143  -6.029  21.676  0.00  0.00    +0.002 C 
ATOM     24  C   UNL     1       7.208  -4.967  21.865  0.00  0.00    +0.002 C 
ATOM     25  C   UNL     1       7.522  -5.006  23.347  0.00  0.00    +0.019 C 
ENDBRANCH  20  21
BRANCH  20  26
ATOM     26  C   UNL     1       4.905  -5.574  26.122  0.00  0.00    +0.115 C 
BRANCH  26  27
ATOM     27  C   UNL     1       4.290  -6.828  26.779  0.00  0.00    +0.171 C 
BRANCH  27  28
ATOM     28  O   UNL     1       5.193  -7.362  27.753  0.00  0.00    -0.394 OA
ATOM     29  H   UNL     1       4.679  -7.961  28.321  0.00  0.00    +0.209 HD
ENDBRANCH  27  28
ENDBRANCH  26  27
ENDBRANCH  20  26
ENDBRANCH  17  20
ENDBRANCH  16  17
ENDBRANCH   1  16
TORSDOF 9
ENDMDL
MODEL 2
REMARK VINA RESULT:      -6.6      1.751      2.029
REMARK  Name = 
REMARK  9 active torsions:
REMARK  status: ('A' for Active; 'I' for Inactive)
REMARK    1  A    between atoms: C_2  and  O_3
REMARK    2  A    between atoms: C_2  and  C_4
REMARK    3  A    between atoms: C_2  and  N_18
REMARK    4  A    between atoms: C_4  and  N_5
REMARK    5  A    between atoms: C_6  and  C_8
REMARK    6  A    between atoms: N_18  and  C_19
REMARK    7  A    between atoms: N_18  and  C_22
REMARK    8  A    between atoms: C_19  and  C_20
REMARK    9  A    between atoms: C_20  and  O_21
REMARK                            x       y       z     vdW  Elec       q    Type
REMARK                         _______ _______ _______ _____ _____    ______ ____
ROOT
ATOM      1  N   UNL     1       8.614  -3.861  25.302  0.00  0.00    -0.306 N 
ATOM      2  H   UNL     1       9.068  -3.297  26.003  0.00  0.00    +0.149 HD
ATOM      3  C   UNL     1       8.464  -3.357  24.026  0.00  0.00    +0.260 C 
ATOM      4  O   UNL     1       7.995  -4.040  23.121  0.00  0.00    -0.269 OA
ENDROOT
BRANCH   3   5
ATOM      5  C   UNL     1       8.902  -2.000  23.823  0.00  0.00    +0.103 A 
ATOM      6  N   UNL     1       8.715  -1.367  22.611  0.00  0.00    -0.351 N 
ATOM      7  H   UNL     1       8.254  -1.797  21.818  0.00  0.00    +0.166 HD
ATOM      8  C   UNL     1       9.280  -0.113  22.615  0.00  0.00    +0.047 A 
ATOM      9  C   UNL     1       9.796   0.091  23.892  0.00  0.00    +0.002 A 
ATOM     10  C   UNL     1      10.441   1.309  24.179  0.00  0.00    +0.030 A 
ATOM     11  C   UNL     1      10.562   2.263  23.164  0.00  0.00    +0.042 A 
ATOM     12  C   UNL     1      10.037   2.035  21.893  0.00  0.00    +0.022 A 
ATOM     13 CL   UNL     1      11.393   3.737  23.488  0.00  0.00    -0.084 Cl
ATOM     14  C   UNL     1       9.374   0.840  21.596  0.00  0.00    +0.027 A 
ATOM     15  C   UNL     1       9.534  -1.087  24.647  0.00  0.00    +0.041 A 
ENDBRANCH   3   5
BRANCH   1  16
ATOM     16  C   UNL     1       8.387  -5.278  25.587  0.00  0.00    +0.152 C 
BRANCH  16  17
ATOM     17  C   UNL     1       7.387  -5.532  26.757  0.00  0.00    +0.203 C 
BRANCH  17  18
ATOM     18  O   UNL     1       7.208  -4.375  27.561  0.00  0.00    -0.376 OA
ATOM     19  H   UNL     1       6.297  -4.048  27.424  0.00  0.00    +0.212 HD
ENDBRANCH  17  18
BRANCH  17  20
ATOM     20  N   UNL     1       6.069  -6.083  26.373  0.00  0.00    -0.271 NA
BRANCH  20  21
ATOM     21  C   UNL     1       5.642  -5.772  24.989  0.00  0.00    +0.059 C 
ATOM     22  C   UNL     1       4.904  -4.417  24.845  0.00  0.00    +0.019 C 
ATOM     23  C   UNL     1       3.907  -4.557  23.695  0.00  0.00    +0.002 C 
ATOM     24  C   UNL     1       4.032  -5.985  23.204  0.00  0.00    +0.002 C 
ATOM     25  C   UNL     1       4.616  -6.740  24.382  0.00  0.00    +0.019 C 
ENDBRANCH  20  21
BRANCH  20  26
ATOM     26  C   UNL     1       5.054  -5.691  27.388  0.00  0.00    +0.115 C 
BRANCH  26  27
ATOM     27  C   UNL     1       4.496  -6.768  28.340  0.00  0.00    +0.171 C 
BRANCH  27  28
ATOM     28  O   UNL     1       5.507  -7.743  28.622  0.00  0.00    -0.394 OA
ATOM     29  H   UNL     1       6.018  -7.414  29.381  0.00  0.00    +0.209 HD
ENDBRANCH  27  28
ENDBRANCH  26  27
ENDBRANCH  20  26
ENDBRANCH  17  20
ENDBRANCH  16  17
ENDBRANCH   1  16
TORSDOF 9
ENDMDL
MODEL 3
REMARK VINA RESULT:      -6.5      2.286      3.417
REMARK  Name = 
REMARK  9 active torsions:
REMARK  status: ('A' for Active; 'I' for Inactive)
REMARK    1  A    between atoms: C_2  and  O_3
REMARK    2  A    between atoms: C_2  and  C_4
REMARK    3  A    between atoms: C_2  and  N_18
REMARK    4  A    between atoms: C_4  and  N_5
REMARK    5  A    between atoms: C_6  and  C_8
REMARK    6  A    between atoms: N_18  and  C_19
REMARK    7  A    between atoms: N_18  and  C_22
REMARK    8  A    between atoms: C_19  and  C_20
REMARK    9  A    between atoms: C_20  and  O_21
REMARK                            x       y       z     vdW  Elec       q    Type
REMARK                         _______ _______ _______ _____ _____    ______ ____
ROOT
ATOM      1  N   UNL     1       8.857  -0.652  24.824  0.00  0.00    -0.306 N 
ATOM      2  H   UNL     1       9.768  -0.542  25.242  0.00  0.00    +0.149 HD
ATOM      3  C   UNL     1       8.354   0.361  24.032  0.00  0.00    +0.260 C 
ATOM      4  O   UNL     1       7.289   0.235  23.437  0.00  0.00    -0.269 OA
ENDROOT
BRANCH   3   5
ATOM      5  C   UNL     1       9.156   1.553  23.939  0.00  0.00    +0.103 A 
ATOM      6  N   UNL     1       8.622   2.794  24.223  0.00  0.00    -0.351 N 
ATOM      7  H   UNL     1       7.666   2.936  24.526  0.00  0.00    +0.166 HD
ATOM      8  C   UNL     1       9.537   3.792  23.990  0.00  0.00    +0.047 A 
ATOM      9  C   UNL     1      10.720   3.170  23.599  0.00  0.00    +0.002 A 
ATOM     10  C   UNL     1      11.839   3.967  23.292  0.00  0.00    +0.030 A 
ATOM     11  C   UNL     1      11.717   5.358  23.368  0.00  0.00    +0.042 A 
ATOM     12  C   UNL     1      10.522   5.957  23.762  0.00  0.00    +0.022 A 
ATOM     13 CL   UNL     1      13.064   6.346  22.946  0.00  0.00    -0.084 Cl
ATOM     14  C   UNL     1       9.406   5.181  24.092  0.00  0.00    +0.027 A 
ATOM     15  C   UNL     1      10.477   1.768  23.592  0.00  0.00    +0.041 A 
ENDBRANCH   3   5
BRANCH   1  16
ATOM     16  C   UNL     1       8.235  -1.975  24.846  0.00  0.00    +0.152 C 
BRANCH  16  17
ATOM     17  C   UNL     1       8.823  -2.964  23.792  0.00  0.00    +0.203 C 
BRANCH  17  18
ATOM     18  O   UNL     1      10.240  -3.023  23.855  0.00  0.00    -0.376 OA
ATOM     19  H   UNL     1      10.529  -3.849  23.418  0.00  0.00    +0.212 HD
ENDBRANCH  17  18
BRANCH  17  20
ATOM     20  N   UNL     1       8.263  -4.333  23.807  0.00  0.00    -0.271 NA
BRANCH  20  21
ATOM     21  C   UNL     1       7.139  -4.559  22.868  0.00  0.00    +0.059 C 
ATOM     22  C   UNL     1       5.783  -4.840  23.562  0.00  0.00    +0.019 C 
ATOM     23  C   UNL     1       4.978  -5.759  22.643  0.00  0.00    +0.002 C 
ATOM     24  C   UNL     1       5.870  -6.043  21.451  0.00  0.00    +0.002 C 
ATOM     25  C   UNL     1       7.275  -5.790  21.961  0.00  0.00    +0.019 C 
ENDBRANCH  20  21
BRANCH  20  26
ATOM     26  C   UNL     1       7.925  -4.714  25.206  0.00  0.00    +0.115 C 
BRANCH  26  27
ATOM     27  C   UNL     1       9.043  -5.250  26.124  0.00  0.00    +0.171 C 
BRANCH  27  28
ATOM     28  O   UNL     1      10.124  -5.758  25.333  0.00  0.00    -0.394 OA
ATOM     29  H   UNL     1       9.918  -5.556  24.404  0.00  0.00    +0.209 HD
ENDBRANCH  27  28
ENDBRANCH  26  27
ENDBRANCH  20  26
ENDBRANCH  17  20
ENDBRANCH  16  17
ENDBRANCH   1  16
TORSDOF 9
ENDMDL
MODEL 4
REMARK VINA RESULT:      -6.4      3.971      8.289
REMARK  Name = 
REMARK  9 active torsions:
REMARK  status: ('A' for Active; 'I' for Inactive)
REMARK    1  A    between atoms: C_2  and  O_3
REMARK    2  A    between atoms: C_2  and  C_4
REMARK    3  A    between atoms: C_2  and  N_18
REMARK    4  A    between atoms: C_4  and  N_5
REMARK    5  A    between atoms: C_6  and  C_8
REMARK    6  A    between atoms: N_18  and  C_19
REMARK    7  A    between atoms: N_18  and  C_22
REMARK    8  A    between atoms: C_19  and  C_20
REMARK    9  A    between atoms: C_20  and  O_21
REMARK                            x       y       z     vdW  Elec       q    Type
REMARK                         _______ _______ _______ _____ _____    ______ ____
ROOT
ATOM      1  N   UNL     1       8.768  -0.912  22.351  0.00  0.00    -0.306 N 
ATOM      2  H   UNL     1       7.767  -0.831  22.432  0.00  0.00    +0.149 HD
ATOM      3  C   UNL     1       9.389  -2.057  22.810  0.00  0.00    +0.260 C 
ATOM      4  O   UNL     1      10.593  -2.234  22.656  0.00  0.00    -0.269 OA
ENDROOT
BRANCH   3   5
ATOM      5  C   UNL     1       8.541  -3.022  23.460  0.00  0.00    +0.103 A 
ATOM      6  N   UNL     1       7.579  -3.714  22.753  0.00  0.00    -0.351 N 
ATOM      7  H   UNL     1       7.426  -3.603  21.758  0.00  0.00    +0.166 HD
ATOM      8  C   UNL     1       6.836  -4.518  23.584  0.00  0.00    +0.047 A 
ATOM      9  C   UNL     1       7.377  -4.385  24.861  0.00  0.00    +0.002 A 
ATOM     10  C   UNL     1       6.800  -5.108  25.922  0.00  0.00    +0.030 A 
ATOM     11  C   UNL     1       5.688  -5.916  25.663  0.00  0.00    +0.042 A 
ATOM     12  C   UNL     1       5.166  -6.032  24.376  0.00  0.00    +0.022 A 
ATOM     13 CL   UNL     1       4.943  -6.765  26.963  0.00  0.00    -0.084 Cl
ATOM     14  C   UNL     1       5.739  -5.339  23.305  0.00  0.00    +0.027 A 
ATOM     15  C   UNL     1       8.458  -3.465  24.767  0.00  0.00    +0.041 A 
ENDBRANCH   3   5
BRANCH   1  16
ATOM     16  C   UNL     1       9.481   0.049  21.510  0.00  0.00    +0.152 C 
BRANCH  16  17
ATOM     17  C   UNL     1       9.282   1.535  21.945  0.00  0.00    +0.203 C 
BRANCH  17  18
ATOM     18  O   UNL     1       8.131   2.112  21.346  0.00  0.00    -0.376 OA
ATOM     19  H   UNL     1       7.446   1.419  21.275  0.00  0.00    +0.212 HD
ENDBRANCH  17  18
BRANCH  17  20
ATOM     20  N   UNL     1       9.266   1.784  23.403  0.00  0.00    -0.271 NA
BRANCH  20  21
ATOM     21  C   UNL     1       8.608   3.047  23.813  0.00  0.00    +0.059 C 
ATOM     22  C   UNL     1       9.550   4.277  23.816  0.00  0.00    +0.019 C 
ATOM     23  C   UNL     1       9.057   5.231  24.904  0.00  0.00    +0.002 C 
ATOM     24  C   UNL     1       7.871   4.546  25.554  0.00  0.00    +0.002 C 
ATOM     25  C   UNL     1       8.072   3.075  25.252  0.00  0.00    +0.019 C 
ENDBRANCH  20  21
BRANCH  20  26
ATOM     26  C   UNL     1      10.647   1.656  23.943  0.00  0.00    +0.115 C 
BRANCH  26  27
ATOM     27  C   UNL     1      10.962   0.505  24.920  0.00  0.00    +0.171 C 
BRANCH  27  28
ATOM     28  O   UNL     1       9.752   0.020  25.511  0.00  0.00    -0.394 OA
ATOM     29  H   UNL     1       9.329   0.773  25.958  0.00  0.00    +0.209 HD
ENDBRANCH  27  28
ENDBRANCH  26  27
ENDBRANCH  20  26
ENDBRANCH  17  20
ENDBRANCH  16  17
ENDBRANCH   1  16
TORSDOF 9
ENDMDL
MODEL 5
REMARK VINA RESULT:      -6.4      1.852      2.985
REMARK  Name = 
REMARK  9 active torsions:
REMARK  status: ('A' for Active; 'I' for Inactive)
REMARK    1  A    between atoms: C_2  and  O_3
REMARK    2  A    between atoms: C_2  and  C_4
REMARK    3  A    between atoms: C_2  and  N_18
REMARK    4  A    between atoms: C_4  and  N_5
REMARK    5  A    between atoms: C_6  and  C_8
REMARK    6  A    between atoms: N_18  and  C_19
REMARK    7  A    between atoms: N_18  and  C_22
REMARK    8  A    between atoms: C_19  and  C_20
REMARK    9  A    between atoms: C_20  and  O_21
REMARK                            x       y       z     vdW  Elec       q    Type
REMARK                         _______ _______ _______ _____ _____    ______ ____
ROOT
ATOM      1  N   UNL     1       7.979  -3.422  25.772  0.00  0.00    -0.306 N 
ATOM      2  H   UNL     1       7.460  -2.622  26.099  0.00  0.00    +0.149 HD
ATOM      3  C   UNL     1       9.063  -3.226  24.941  0.00  0.00    +0.260 C 
ATOM      4  O   UNL     1       9.773  -4.163  24.587  0.00  0.00    -0.269 OA
ENDROOT
BRANCH   3   5
ATOM      5  C   UNL     1       9.313  -1.869  24.531  0.00  0.00    +0.103 A 
ATOM      6  N   UNL     1       9.261  -1.507  23.200  0.00  0.00    -0.351 N 
ATOM      7  H   UNL     1       9.029  -2.150  22.452  0.00  0.00    +0.166 HD
ATOM      8  C   UNL     1       9.611  -0.188  23.031  0.00  0.00    +0.047 A 
ATOM      9  C   UNL     1       9.840   0.332  24.303  0.00  0.00    +0.002 A 
ATOM     10  C   UNL     1      10.221   1.682  24.426  0.00  0.00    +0.030 A 
ATOM     11  C   UNL     1      10.380   2.447  23.267  0.00  0.00    +0.042 A 
ATOM     12  C   UNL     1      10.145   1.903  22.005  0.00  0.00    +0.022 A 
ATOM     13 CL   UNL     1      10.895   4.085  23.402  0.00  0.00    -0.084 Cl
ATOM     14  C   UNL     1       9.744   0.570  21.864  0.00  0.00    +0.027 A 
ATOM     15  C   UNL     1       9.629  -0.722  25.235  0.00  0.00    +0.041 A 
ENDBRANCH   3   5
BRANCH   1  16
ATOM     16  C   UNL     1       7.737  -4.718  26.407  0.00  0.00    +0.152 C 
BRANCH  16  17
ATOM     17  C   UNL     1       6.742  -5.627  25.621  0.00  0.00    +0.203 C 
BRANCH  17  18
ATOM     18  O   UNL     1       5.931  -6.401  26.493  0.00  0.00    -0.376 OA
ATOM     19  H   UNL     1       5.149  -6.704  25.991  0.00  0.00    +0.212 HD
ENDBRANCH  17  18
BRANCH  17  20
ATOM     20  N   UNL     1       5.893  -4.944  24.621  0.00  0.00    -0.271 NA
BRANCH  20  21
ATOM     21  C   UNL     1       4.434  -5.091  24.836  0.00  0.00    +0.059 C 
ATOM     22  C   UNL     1       3.679  -5.713  23.635  0.00  0.00    +0.019 C 
ATOM     23  C   UNL     1       2.265  -5.130  23.630  0.00  0.00    +0.002 C 
ATOM     24  C   UNL     1       2.213  -4.151  24.785  0.00  0.00    +0.002 C 
ATOM     25  C   UNL     1       3.661  -3.778  25.032  0.00  0.00    +0.019 C 
ENDBRANCH  20  21
BRANCH  20  26
ATOM     26  C   UNL     1       6.314  -5.350  23.253  0.00  0.00    +0.115 C 
BRANCH  26  27
ATOM     27  C   UNL     1       6.903  -4.285  22.306  0.00  0.00    +0.171 C 
BRANCH  27  28
ATOM     28  O   UNL     1       6.511  -2.977  22.737  0.00  0.00    -0.394 OA
ATOM     29  H   UNL     1       7.042  -2.338  22.232  0.00  0.00    +0.209 HD
ENDBRANCH  27  28
ENDBRANCH  26  27
ENDBRANCH  20  26
ENDBRANCH  17  20
ENDBRANCH  16  17
ENDBRANCH   1  16
TORSDOF 9
ENDMDL
MODEL 6
REMARK VINA RESULT:      -6.4      4.134      8.367
REMARK  Name = 
REMARK  9 active torsions:
REMARK  status: ('A' for Active; 'I' for Inactive)
REMARK    1  A    between atoms: C_2  and  O_3
REMARK    2  A    between atoms: C_2  and  C_4
REMARK    3  A    between atoms: C_2  and  N_18
REMARK    4  A    between atoms: C_4  and  N_5
REMARK    5  A    between atoms: C_6  and  C_8
REMARK    6  A    between atoms: N_18  and  C_19
REMARK    7  A    between atoms: N_18  and  C_22
REMARK    8  A    between atoms: C_19  and  C_20
REMARK    9  A    between atoms: C_20  and  O_21
REMARK                            x       y       z     vdW  Elec       q    Type
REMARK                         _______ _______ _______ _____ _____    ______ ____
ROOT
ATOM      1  N   UNL     1       9.791  -0.484  23.883  0.00  0.00    -0.306 N 
ATOM      2  H   UNL     1       8.997  -0.385  24.497  0.00  0.00    +0.149 HD
ATOM      3  C   UNL     1       9.884  -1.600  23.077  0.00  0.00    +0.260 C 
ATOM      4  O   UNL     1      10.788  -1.720  22.256  0.00  0.00    -0.269 OA
ENDROOT
BRANCH   3   5
ATOM      5  C   UNL     1       8.858  -2.596  23.248  0.00  0.00    +0.103 A 
ATOM      6  N   UNL     1       7.789  -2.672  22.379  0.00  0.00    -0.351 N 
ATOM      7  H   UNL     1       7.673  -2.063  21.578  0.00  0.00    +0.166 HD
ATOM      8  C   UNL     1       6.894  -3.637  22.777  0.00  0.00    +0.047 A 
ATOM      9  C   UNL     1       7.435  -4.243  23.909  0.00  0.00    +0.002 A 
ATOM     10  C   UNL     1       6.716  -5.279  24.534  0.00  0.00    +0.030 A 
ATOM     11  C   UNL     1       5.473  -5.648  24.012  0.00  0.00    +0.042 A 
ATOM     12  C   UNL     1       4.953  -5.026  22.878  0.00  0.00    +0.022 A 
ATOM     13 CL   UNL     1       4.561  -6.881  24.798  0.00  0.00    -0.084 Cl
ATOM     14  C   UNL     1       5.663  -4.010  22.230  0.00  0.00    +0.027 A 
ATOM     15  C   UNL     1       8.674  -3.599  24.181  0.00  0.00    +0.041 A 
ENDBRANCH   3   5
BRANCH   1  16
ATOM     16  C   UNL     1      10.656   0.677  23.671  0.00  0.00    +0.152 C 
BRANCH  16  17
ATOM     17  C   UNL     1      10.094   1.700  22.636  0.00  0.00    +0.203 C 
BRANCH  17  18
ATOM     18  O   UNL     1       9.556   1.054  21.492  0.00  0.00    -0.376 OA
ATOM     19  H   UNL     1       8.832   0.466  21.787  0.00  0.00    +0.212 HD
ENDBRANCH  17  18
BRANCH  17  20
ATOM     20  N   UNL     1       9.120   2.682  23.162  0.00  0.00    -0.271 NA
BRANCH  20  21
ATOM     21  C   UNL     1       9.720   3.849  23.851  0.00  0.00    +0.059 C 
ATOM     22  C   UNL     1       8.898   5.154  23.713  0.00  0.00    +0.019 C 
ATOM     23  C   UNL     1       9.883   6.323  23.742  0.00  0.00    +0.002 C 
ATOM     24  C   UNL     1      11.262   5.704  23.853  0.00  0.00    +0.002 C 
ATOM     25  C   UNL     1      11.089   4.296  23.318  0.00  0.00    +0.019 C 
ENDBRANCH  20  21
BRANCH  20  26
ATOM     26  C   UNL     1       8.111   1.978  23.999  0.00  0.00    +0.115 C 
BRANCH  26  27
ATOM     27  C   UNL     1       6.766   1.572  23.364  0.00  0.00    +0.171 C 
BRANCH  27  28
ATOM     28  O   UNL     1       6.886   0.287  22.744  0.00  0.00    -0.394 OA
ATOM     29  H   UNL     1       6.072  -0.206  22.947  0.00  0.00    +0.209 HD
ENDBRANCH  27  28
ENDBRANCH  26  27
ENDBRANCH  20  26
ENDBRANCH  17  20
ENDBRANCH  16  17
ENDBRANCH   1  16
TORSDOF 9
ENDMDL
MODEL 7
REMARK VINA RESULT:      -6.4      2.048      2.300
REMARK  Name = 
REMARK  9 active torsions:
REMARK  status: ('A' for Active; 'I' for Inactive)
REMARK    1  A    between atoms: C_2  and  O_3
REMARK    2  A    between atoms: C_2  and  C_4
REMARK    3  A    between atoms: C_2  and  N_18
REMARK    4  A    between atoms: C_4  and  N_5
REMARK    5  A    between atoms: C_6  and  C_8
REMARK    6  A    between atoms: N_18  and  C_19
REMARK    7  A    between atoms: N_18  and  C_22
REMARK    8  A    between atoms: C_19  and  C_20
REMARK    9  A    between atoms: C_20  and  O_21
REMARK                            x       y       z     vdW  Elec       q    Type
REMARK                         _______ _______ _______ _____ _____    ______ ____
ROOT
ATOM      1  N   UNL     1       8.664  -2.204  25.217  0.00  0.00    -0.306 N 
ATOM      2  H   UNL     1       8.007  -1.668  25.763  0.00  0.00    +0.149 HD
ATOM      3  C   UNL     1       9.423  -1.561  24.259  0.00  0.00    +0.260 C 
ATOM      4  O   UNL     1      10.293  -2.156  23.631  0.00  0.00    -0.269 OA
ENDROOT
BRANCH   3   5
ATOM      5  C   UNL     1       9.142  -0.164  24.058  0.00  0.00    +0.103 A 
ATOM      6  N   UNL     1       8.171   0.245  23.166  0.00  0.00    -0.351 N 
ATOM      7  H   UNL     1       7.598  -0.394  22.629  0.00  0.00    +0.166 HD
ATOM      8  C   UNL     1       8.130   1.616  23.073  0.00  0.00    +0.047 A 
ATOM      9  C   UNL     1       9.065   2.109  23.980  0.00  0.00    +0.002 A 
ATOM     10  C   UNL     1       9.235   3.502  24.092  0.00  0.00    +0.030 A 
ATOM     11  C   UNL     1       8.476   4.342  23.272  0.00  0.00    +0.042 A 
ATOM     12  C   UNL     1       7.545   3.824  22.373  0.00  0.00    +0.022 A 
ATOM     13 CL   UNL     1       8.711   6.046  23.365  0.00  0.00    -0.084 Cl
ATOM     14  C   UNL     1       7.347   2.444  22.263  0.00  0.00    +0.027 A 
ATOM     15  C   UNL     1       9.677   0.987  24.607  0.00  0.00    +0.041 A 
ENDBRANCH   3   5
BRANCH   1  16
ATOM     16  C   UNL     1       8.982  -3.565  25.646  0.00  0.00    +0.152 C 
BRANCH  16  17
ATOM     17  C   UNL     1       8.602  -4.660  24.601  0.00  0.00    +0.203 C 
BRANCH  17  18
ATOM     18  O   UNL     1       9.555  -5.713  24.568  0.00  0.00    -0.376 OA
ATOM     19  H   UNL     1       9.352  -6.280  23.798  0.00  0.00    +0.212 HD
ENDBRANCH  17  18
BRANCH  17  20
ATOM     20  N   UNL     1       7.239  -5.221  24.719  0.00  0.00    -0.271 NA
BRANCH  20  21
ATOM     21  C   UNL     1       6.377  -5.021  23.530  0.00  0.00    +0.059 C 
ATOM     22  C   UNL     1       6.499  -6.140  22.467  0.00  0.00    +0.019 C 
ATOM     23  C   UNL     1       6.239  -5.505  21.100  0.00  0.00    +0.002 C 
ATOM     24  C   UNL     1       6.011  -4.030  21.361  0.00  0.00    +0.002 C 
ATOM     25  C   UNL     1       6.688  -3.772  22.693  0.00  0.00    +0.019 C 
ENDBRANCH  20  21
BRANCH  20  26
ATOM     26  C   UNL     1       6.608  -4.728  25.973  0.00  0.00    +0.115 C 
BRANCH  26  27
ATOM     27  C   UNL     1       6.365  -5.722  27.127  0.00  0.00    +0.171 C 
BRANCH  27  28
ATOM     28  O   UNL     1       7.604  -6.034  27.774  0.00  0.00    -0.394 OA
ATOM     29  H   UNL     1       7.451  -5.970  28.732  0.00  0.00    +0.209 HD
ENDBRANCH  27  28
ENDBRANCH  26  27
ENDBRANCH  20  26
ENDBRANCH  17  20
ENDBRANCH  16  17
ENDBRANCH   1  16
TORSDOF 9
ENDMDL
MODEL 8
REMARK VINA RESULT:      -6.3      4.038      8.038
REMARK  Name = 
REMARK  9 active torsions:
REMARK  status: ('A' for Active; 'I' for Inactive)
REMARK    1  A    between atoms: C_2  and  O_3
REMARK    2  A    between atoms: C_2  and  C_4
REMARK    3  A    between atoms: C_2  and  N_18
REMARK    4  A    between atoms: C_4  and  N_5
REMARK    5  A    between atoms: C_6  and  C_8
REMARK    6  A    between atoms: N_18  and  C_19
REMARK    7  A    between atoms: N_18  and  C_22
REMARK    8  A    between atoms: C_19  and  C_20
REMARK    9  A    between atoms: C_20  and  O_21
REMARK                            x       y       z     vdW  Elec       q    Type
REMARK                         _______ _______ _______ _____ _____    ______ ____
ROOT
ATOM      1  N   UNL     1       8.359  -0.652  22.189  0.00  0.00    -0.306 N 
ATOM      2  H   UNL     1       7.360  -0.596  22.309  0.00  0.00    +0.149 HD
ATOM      3  C   UNL     1       9.006  -1.836  22.483  0.00  0.00    +0.260 C 
ATOM      4  O   UNL     1      10.206  -1.976  22.272  0.00  0.00    -0.269 OA
ENDROOT
BRANCH   3   5
ATOM      5  C   UNL     1       8.189  -2.888  23.032  0.00  0.00    +0.103 A 
ATOM      6  N   UNL     1       7.388  -3.664  22.219  0.00  0.00    -0.351 N 
ATOM      7  H   UNL     1       7.341  -3.559  21.213  0.00  0.00    +0.166 HD
ATOM      8  C   UNL     1       6.638  -4.546  22.960  0.00  0.00    +0.047 A 
ATOM      9  C   UNL     1       7.012  -4.373  24.291  0.00  0.00    +0.002 A 
ATOM     10  C   UNL     1       6.391  -5.159  25.280  0.00  0.00    +0.030 A 
ATOM     11  C   UNL     1       5.402  -6.070  24.895  0.00  0.00    +0.042 A 
ATOM     12  C   UNL     1       5.046  -6.225  23.556  0.00  0.00    +0.022 A 
ATOM     13 CL   UNL     1       4.599  -7.001  26.101  0.00  0.00    -0.084 Cl
ATOM     14  C   UNL     1       5.667  -5.469  22.557  0.00  0.00    +0.027 A 
ATOM     15  C   UNL     1       7.999  -3.349  24.321  0.00  0.00    +0.041 A 
ENDBRANCH   3   5
BRANCH   1  16
ATOM     16  C   UNL     1       9.035   0.416  21.454  0.00  0.00    +0.152 C 
BRANCH  16  17
ATOM     17  C   UNL     1       9.704   1.486  22.373  0.00  0.00    +0.203 C 
BRANCH  17  18
ATOM     18  O   UNL     1      10.439   2.442  21.623  0.00  0.00    -0.376 OA
ATOM     19  H   UNL     1      11.372   2.152  21.594  0.00  0.00    +0.212 HD
ENDBRANCH  17  18
BRANCH  17  20
ATOM     20  N   UNL     1       8.803   2.178  23.320  0.00  0.00    -0.271 NA
BRANCH  20  21
ATOM     21  C   UNL     1       8.793   1.619  24.693  0.00  0.00    +0.059 C 
ATOM     22  C   UNL     1       9.915   0.586  24.962  0.00  0.00    +0.019 C 
ATOM     23  C   UNL     1       9.383  -0.413  25.990  0.00  0.00    +0.002 C 
ATOM     24  C   UNL     1       7.957   0.009  26.283  0.00  0.00    +0.002 C 
ATOM     25  C   UNL     1       7.542   0.810  25.066  0.00  0.00    +0.019 C 
ENDBRANCH  20  21
BRANCH  20  26
ATOM     26  C   UNL     1       7.440   2.271  22.730  0.00  0.00    +0.115 C 
BRANCH  26  27
ATOM     27  C   UNL     1       7.002   3.595  22.069  0.00  0.00    +0.171 C 
BRANCH  27  28
ATOM     28  O   UNL     1       8.056   4.559  22.161  0.00  0.00    -0.394 OA
ATOM     29  H   UNL     1       8.778   4.148  22.667  0.00  0.00    +0.209 HD
ENDBRANCH  27  28
ENDBRANCH  26  27
ENDBRANCH  20  26
ENDBRANCH  17  20
ENDBRANCH  16  17
ENDBRANCH   1  16
TORSDOF 9
ENDMDL
MODEL 9
REMARK VINA RESULT:      -6.3      2.376      3.677
REMARK  Name = 
REMARK  9 active torsions:
REMARK  status: ('A' for Active; 'I' for Inactive)
REMARK    1  A    between atoms: C_2  and  O_3
REMARK    2  A    between atoms: C_2  and  C_4
REMARK    3  A    between atoms: C_2  and  N_18
REMARK    4  A    between atoms: C_4  and  N_5
REMARK    5  A    between atoms: C_6  and  C_8
REMARK    6  A    between atoms: N_18  and  C_19
REMARK    7  A    between atoms: N_18  and  C_22
REMARK    8  A    between atoms: C_19  and  C_20
REMARK    9  A    between atoms: C_20  and  O_21
REMARK                            x       y       z     vdW  Elec       q    Type
REMARK                         _______ _______ _______ _____ _____    ______ ____
ROOT
ATOM      1  N   UNL     1       9.084  -2.110  24.448  0.00  0.00    -0.306 N 
ATOM      2  H   UNL     1       8.638  -1.639  25.220  0.00  0.00    +0.149 HD
ATOM      3  C   UNL     1       9.811  -1.370  23.538  0.00  0.00    +0.260 C 
ATOM      4  O   UNL     1      10.438  -1.911  22.633  0.00  0.00    -0.269 OA
ENDROOT
BRANCH   3   5
ATOM      5  C   UNL     1       9.800   0.058  23.726  0.00  0.00    +0.103 A 
ATOM      6  N   UNL     1       8.894   0.655  24.579  0.00  0.00    -0.351 N 
ATOM      7  H   UNL     1       8.215   0.141  25.126  0.00  0.00    +0.166 HD
ATOM      8  C   UNL     1       9.008   2.025  24.541  0.00  0.00    +0.047 A 
ATOM      9  C   UNL     1      10.062   2.317  23.679  0.00  0.00    +0.002 A 
ATOM     10  C   UNL     1      10.401   3.664  23.451  0.00  0.00    +0.030 A 
ATOM     11  C   UNL     1       9.652   4.664  24.079  0.00  0.00    +0.042 A 
ATOM     12  C   UNL     1       8.602   4.346  24.938  0.00  0.00    +0.022 A 
ATOM     13 CL   UNL     1      10.025   6.317  23.769  0.00  0.00    -0.084 Cl
ATOM     14  C   UNL     1       8.264   3.013  25.194  0.00  0.00    +0.027 A 
ATOM     15  C   UNL     1      10.565   1.078  23.192  0.00  0.00    +0.041 A 
ENDBRANCH   3   5
BRANCH   1  16
ATOM     16  C   UNL     1       9.172  -3.570  24.479  0.00  0.00    +0.152 C 
BRANCH  16  17
ATOM     17  C   UNL     1       7.996  -4.287  23.746  0.00  0.00    +0.203 C 
BRANCH  17  18
ATOM     18  O   UNL     1       8.318  -5.631  23.418  0.00  0.00    -0.376 OA
ATOM     19  H   UNL     1       9.135  -5.625  22.881  0.00  0.00    +0.212 HD
ENDBRANCH  17  18
BRANCH  17  20
ATOM     20  N   UNL     1       6.684  -4.238  24.426  0.00  0.00    -0.271 NA
BRANCH  20  21
ATOM     21  C   UNL     1       6.217  -5.532  24.976  0.00  0.00    +0.059 C 
ATOM     22  C   UNL     1       4.957  -6.098  24.275  0.00  0.00    +0.019 C 
ATOM     23  C   UNL     1       4.173  -6.899  25.315  0.00  0.00    +0.002 C 
ATOM     24  C   UNL     1       4.944  -6.765  26.613  0.00  0.00    +0.002 C 
ATOM     25  C   UNL     1       5.757  -5.498  26.441  0.00  0.00    +0.019 C 
ENDBRANCH  20  21
BRANCH  20  26
ATOM     26  C   UNL     1       5.683  -3.604  23.526  0.00  0.00    +0.115 C 
BRANCH  26  27
ATOM     27  C   UNL     1       6.155  -3.027  22.175  0.00  0.00    +0.171 C 
BRANCH  27  28
ATOM     28  O   UNL     1       5.667  -3.837  21.100  0.00  0.00    -0.394 OA
ATOM     29  H   UNL     1       5.932  -3.402  20.271  0.00  0.00    +0.209 HD
ENDBRANCH  27  28
ENDBRANCH  26  27
ENDBRANCH  20  26
ENDBRANCH  17  20
ENDBRANCH  16  17
ENDBRANCH   1  16
TORSDOF 9
ENDMDL
