MODEL 1
REMARK VINA RESULT:      -7.8      0.000      0.000
REMARK  Name = 
REMARK  7 active torsions:
REMARK  status: ('A' for Active; 'I' for Inactive)
REMARK    1  A    between atoms: O_1  and  N_2
REMARK    2  A    between atoms: C_3  and  C_5
REMARK    3  A    between atoms: C_5  and  C_6
REMARK    4  A    between atoms: C_6  and  S_12
REMARK    5  A    between atoms: S_12  and  C_15
REMARK    6  A    between atoms: C_18  and  O_19
REMARK    7  A    between atoms: O_19  and  C_20
REMARK                            x       y       z     vdW  Elec       q    Type
REMARK                         _______ _______ _______ _____ _____    ______ ____
ROOT
ATOM      1  S   UNL     1       6.416  -4.777  26.467  0.00  0.00    +0.003 S 
ATOM      2  O   UNL     1       7.123  -5.912  27.031  0.00  0.00    -0.169 OA
ATOM      3  O   UNL     1       5.841  -3.791  27.362  0.00  0.00    -0.169 OA
ENDROOT
BRANCH   1   4
ATOM      4  C   UNL     1       5.110  -5.417  25.351  0.00  0.00    +0.105 C 
ATOM      5  C   UNL     1       3.985  -4.368  25.202  0.00  0.00    +0.058 C 
ATOM      6  C   UNL     1       3.021  -4.705  24.076  0.00  0.00    +0.162 C 
ATOM      7  O   UNL     1       3.735  -4.860  22.852  0.00  0.00    -0.380 OA
ATOM      8  C   UNL     1       4.659  -5.943  22.887  0.00  0.00    +0.162 C 
ATOM      9  C   UNL     1       5.720  -5.695  23.950  0.00  0.00    +0.058 C 
BRANCH   4  10
ATOM     10  C   UNL     1       4.605  -6.772  25.923  0.00  0.00    +0.128 C 
BRANCH  10  13
ATOM     11  N   UNL     1       4.402  -7.003  28.378  0.00  0.00    -0.197 N 
ATOM     12  H   UNL     1       3.811  -7.080  29.201  0.00  0.00    +0.182 HD
ATOM     13  C   UNL     1       3.797  -6.667  27.204  0.00  0.00    +0.238 C 
ATOM     14  O   UNL     1       2.637  -6.258  27.188  0.00  0.00    -0.274 OA
BRANCH  11  15
ATOM     15  O   UNL     1       5.580  -7.771  28.365  0.00  0.00    -0.295 OA
ATOM     16  H   UNL     1       5.287  -8.593  27.915  0.00  0.00    +0.241 HD
ENDBRANCH  11  15
ENDBRANCH  10  13
ENDBRANCH   4  10
ENDBRANCH   1   4
BRANCH   1  17
ATOM     17  C   UNL     1       7.568  -3.891  25.435  0.00  0.00    +0.089 A 
ATOM     18  C   UNL     1       8.891  -4.323  25.338  0.00  0.00    +0.030 A 
ATOM     19  C   UNL     1       9.757  -3.684  24.450  0.00  0.00    +0.048 A 
ATOM     20  C   UNL     1       9.335  -2.552  23.740  0.00  0.00    +0.129 A 
ATOM     21  C   UNL     1       8.016  -2.107  23.871  0.00  0.00    +0.048 A 
ATOM     22  C   UNL     1       7.132  -2.768  24.724  0.00  0.00    +0.030 A 
BRANCH  20  23
ATOM     23  O   UNL     1      10.116  -1.841  22.855  0.00  0.00    -0.456 OA
BRANCH  23  24
ATOM     24  C   UNL     1      10.180  -0.471  22.948  0.00  0.00    +0.129 A 
ATOM     25  C   UNL     1       9.877   0.394  21.892  0.00  0.00    +0.048 A 
ATOM     26  C   UNL     1       9.901   1.775  22.092  0.00  0.00    +0.023 A 
ATOM     27  C   UNL     1      10.295   2.289  23.325  0.00  0.00    +0.041 A 
ATOM     28 CL   UNL     1      10.296   3.989  23.579  0.00  0.00    -0.084 Cl
ATOM     29  C   UNL     1      10.683   1.433  24.356  0.00  0.00    +0.023 A 
ATOM     30  C   UNL     1      10.627   0.050  24.165  0.00  0.00    +0.048 A 
ENDBRANCH  23  24
ENDBRANCH  20  23
ENDBRANCH   1  17
TORSDOF 7
ENDMDL
MODEL 2
REMARK VINA RESULT:      -7.7      2.266      3.000
REMARK  Name = 
REMARK  7 active torsions:
REMARK  status: ('A' for Active; 'I' for Inactive)
REMARK    1  A    between atoms: O_1  and  N_2
REMARK    2  A    between atoms: C_3  and  C_5
REMARK    3  A    between atoms: C_5  and  C_6
REMARK    4  A    between atoms: C_6  and  S_12
REMARK    5  A    between atoms: S_12  and  C_15
REMARK    6  A    between atoms: C_18  and  O_19
REMARK    7  A    between atoms: O_19  and  C_20
REMARK                            x       y       z     vdW  Elec       q    Type
REMARK                         _______ _______ _______ _____ _____    ______ ____
ROOT
ATOM      1  S   UNL     1       8.815  -3.859  25.161  0.00  0.00    +0.003 S 
ATOM      2  O   UNL     1       9.788  -4.857  24.755  0.00  0.00    -0.169 OA
ATOM      3  O   UNL     1       8.613  -3.608  26.575  0.00  0.00    -0.169 OA
ENDROOT
BRANCH   1   4
ATOM      4  C   UNL     1       7.208  -4.284  24.385  0.00  0.00    +0.105 C 
ATOM      5  C   UNL     1       6.313  -3.027  24.311  0.00  0.00    +0.058 C 
ATOM      6  C   UNL     1       5.093  -3.233  23.426  0.00  0.00    +0.162 C 
ATOM      7  O   UNL     1       5.500  -3.645  22.123  0.00  0.00    -0.380 OA
ATOM      8  C   UNL     1       6.174  -4.899  22.127  0.00  0.00    +0.162 C 
ATOM      9  C   UNL     1       7.455  -4.805  22.943  0.00  0.00    +0.058 C 
BRANCH   4  10
ATOM     10  C   UNL     1       6.566  -5.440  25.202  0.00  0.00    +0.128 C 
BRANCH  10  13
ATOM     11  N   UNL     1       6.565  -5.189  27.663  0.00  0.00    -0.197 N 
ATOM     12  H   UNL     1       6.046  -5.049  28.526  0.00  0.00    +0.182 HD
ATOM     13  C   UNL     1       5.889  -5.015  26.493  0.00  0.00    +0.238 C 
ATOM     14  O   UNL     1       4.773  -4.498  26.481  0.00  0.00    -0.274 OA
BRANCH  11  15
ATOM     15  O   UNL     1       7.665  -6.063  27.715  0.00  0.00    -0.295 OA
ATOM     16  H   UNL     1       7.239  -6.920  27.937  0.00  0.00    +0.241 HD
ENDBRANCH  11  15
ENDBRANCH  10  13
ENDBRANCH   4  10
ENDBRANCH   1   4
BRANCH   1  17
ATOM     17  C   UNL     1       9.319  -2.304  24.452  0.00  0.00    +0.089 A 
ATOM     18  C   UNL     1       9.824  -2.261  23.152  0.00  0.00    +0.030 A 
ATOM     19  C   UNL     1      10.120  -1.027  22.572  0.00  0.00    +0.048 A 
ATOM     20  C   UNL     1      10.014   0.152  23.322  0.00  0.00    +0.129 A 
ATOM     21  C   UNL     1       9.539   0.094  24.636  0.00  0.00    +0.048 A 
ATOM     22  C   UNL     1       9.200  -1.133  25.208  0.00  0.00    +0.030 A 
BRANCH  20  23
ATOM     23  O   UNL     1      10.298   1.414  22.850  0.00  0.00    -0.456 OA
BRANCH  23  24
ATOM     24  C   UNL     1       9.290   2.343  22.732  0.00  0.00    +0.129 A 
ATOM     25  C   UNL     1       8.193   2.195  21.878  0.00  0.00    +0.048 A 
ATOM     26  C   UNL     1       7.179   3.154  21.871  0.00  0.00    +0.023 A 
ATOM     27  C   UNL     1       7.298   4.292  22.666  0.00  0.00    +0.041 A 
ATOM     28 CL   UNL     1       6.034   5.457  22.679  0.00  0.00    -0.084 Cl
ATOM     29  C   UNL     1       8.431   4.488  23.454  0.00  0.00    +0.023 A 
ATOM     30  C   UNL     1       9.430   3.511  23.486  0.00  0.00    +0.048 A 
ENDBRANCH  23  24
ENDBRANCH  20  23
ENDBRANCH   1  17
TORSDOF 7
ENDMDL
MODEL 3
REMARK VINA RESULT:      -7.5      2.599      3.825
REMARK  Name = 
REMARK  7 active torsions:
REMARK  status: ('A' for Active; 'I' for Inactive)
REMARK    1  A    between atoms: O_1  and  N_2
REMARK    2  A    between atoms: C_3  and  C_5
REMARK    3  A    between atoms: C_5  and  C_6
REMARK    4  A    between atoms: C_6  and  S_12
REMARK    5  A    between atoms: S_12  and  C_15
REMARK    6  A    between atoms: C_18  and  O_19
REMARK    7  A    between atoms: O_19  and  C_20
REMARK                            x       y       z     vdW  Elec       q    Type
REMARK                         _______ _______ _______ _____ _____    ______ ____
ROOT
ATOM      1  S   UNL     1       8.891  -2.880  24.737  0.00  0.00    +0.003 S 
ATOM      2  O   UNL     1      10.089  -3.567  24.289  0.00  0.00    -0.169 OA
ATOM      3  O   UNL     1       8.649  -2.744  26.161  0.00  0.00    -0.169 OA
ENDROOT
BRANCH   1   4
ATOM      4  C   UNL     1       7.444  -3.690  23.953  0.00  0.00    +0.105 C 
ATOM      5  C   UNL     1       6.143  -2.992  24.405  0.00  0.00    +0.058 C 
ATOM      6  C   UNL     1       4.938  -3.415  23.579  0.00  0.00    +0.162 C 
ATOM      7  O   UNL     1       5.188  -3.177  22.195  0.00  0.00    -0.380 OA
ATOM      8  C   UNL     1       6.274  -3.947  21.692  0.00  0.00    +0.162 C 
ATOM      9  C   UNL     1       7.562  -3.570  22.409  0.00  0.00    +0.058 C 
BRANCH   4  10
ATOM     10  C   UNL     1       7.480  -5.202  24.313  0.00  0.00    +0.128 C 
BRANCH  10  13
ATOM     11  N   UNL     1       8.668  -5.782  26.405  0.00  0.00    -0.197 N 
ATOM     12  H   UNL     1       8.635  -6.137  27.357  0.00  0.00    +0.182 HD
ATOM     13  C   UNL     1       7.478  -5.507  25.801  0.00  0.00    +0.238 C 
ATOM     14  O   UNL     1       6.434  -5.475  26.451  0.00  0.00    -0.274 OA
BRANCH  11  15
ATOM     15  O   UNL     1       9.782  -6.144  25.628  0.00  0.00    -0.295 OA
ATOM     16  H   UNL     1       9.713  -7.123  25.609  0.00  0.00    +0.241 HD
ENDBRANCH  11  15
ENDBRANCH  10  13
ENDBRANCH   4  10
ENDBRANCH   1   4
BRANCH   1  17
ATOM     17  C   UNL     1       8.952  -1.222  24.088  0.00  0.00    +0.089 A 
ATOM     18  C   UNL     1       9.503  -0.987  22.828  0.00  0.00    +0.030 A 
ATOM     19  C   UNL     1       9.454   0.299  22.287  0.00  0.00    +0.048 A 
ATOM     20  C   UNL     1       8.952   1.366  23.043  0.00  0.00    +0.129 A 
ATOM     21  C   UNL     1       8.433   1.125  24.319  0.00  0.00    +0.048 A 
ATOM     22  C   UNL     1       8.439  -0.166  24.848  0.00  0.00    +0.030 A 
BRANCH  20  23
ATOM     23  O   UNL     1       8.876   2.672  22.609  0.00  0.00    -0.456 OA
BRANCH  23  24
ATOM     24  C   UNL     1       9.722   3.618  23.136  0.00  0.00    +0.129 A 
ATOM     25  C   UNL     1      11.117   3.518  23.103  0.00  0.00    +0.048 A 
ATOM     26  C   UNL     1      11.903   4.558  23.601  0.00  0.00    +0.023 A 
ATOM     27  C   UNL     1      11.295   5.663  24.193  0.00  0.00    +0.041 A 
ATOM     28 CL   UNL     1      12.265   6.956  24.779  0.00  0.00    -0.084 Cl
ATOM     29  C   UNL     1       9.907   5.728  24.308  0.00  0.00    +0.023 A 
ATOM     30  C   UNL     1       9.120   4.702  23.780  0.00  0.00    +0.048 A 
ENDBRANCH  23  24
ENDBRANCH  20  23
ENDBRANCH   1  17
TORSDOF 7
ENDMDL
MODEL 4
REMARK VINA RESULT:      -7.2      1.906      3.246
REMARK  Name = 
REMARK  7 active torsions:
REMARK  status: ('A' for Active; 'I' for Inactive)
REMARK    1  A    between atoms: O_1  and  N_2
REMARK    2  A    between atoms: C_3  and  C_5
REMARK    3  A    between atoms: C_5  and  C_6
REMARK    4  A    between atoms: C_6  and  S_12
REMARK    5  A    between atoms: S_12  and  C_15
REMARK    6  A    between atoms: C_18  and  O_19
REMARK    7  A    between atoms: O_19  and  C_20
REMARK                            x       y       z     vdW  Elec       q    Type
REMARK                         _______ _______ _______ _____ _____    ______ ____
ROOT
ATOM      1  S   UNL     1       5.430  -5.032  23.284  0.00  0.00    +0.003 S 
ATOM      2  O   UNL     1       4.403  -4.422  22.458  0.00  0.00    -0.169 OA
ATOM      3  O   UNL     1       5.937  -6.342  22.923  0.00  0.00    -0.169 OA
ENDROOT
BRANCH   1   4
ATOM      4  C   UNL     1       4.818  -5.075  25.013  0.00  0.00    +0.105 C 
ATOM      5  C   UNL     1       5.760  -5.938  25.881  0.00  0.00    +0.058 C 
ATOM      6  C   UNL     1       5.484  -5.783  27.369  0.00  0.00    +0.162 C 
ATOM      7  O   UNL     1       5.568  -4.409  27.740  0.00  0.00    -0.380 OA
ATOM      8  C   UNL     1       4.588  -3.604  27.093  0.00  0.00    +0.162 C 
ATOM      9  C   UNL     1       4.795  -3.632  25.586  0.00  0.00    +0.058 C 
BRANCH   4  10
ATOM     10  C   UNL     1       3.355  -5.600  24.996  0.00  0.00    +0.128 C 
BRANCH  10  13
ATOM     11  N   UNL     1       2.669  -7.017  23.087  0.00  0.00    -0.197 N 
ATOM     12  H   UNL     1       2.403  -7.931  22.731  0.00  0.00    +0.182 HD
ATOM     13  C   UNL     1       3.170  -6.963  24.354  0.00  0.00    +0.238 C 
ATOM     14  O   UNL     1       3.492  -7.991  24.948  0.00  0.00    -0.274 OA
BRANCH  11  15
ATOM     15  O   UNL     1       2.002  -5.903  22.549  0.00  0.00    -0.295 OA
ATOM     16  H   UNL     1       2.744  -5.290  22.354  0.00  0.00    +0.241 HD
ENDBRANCH  11  15
ENDBRANCH  10  13
ENDBRANCH   4  10
ENDBRANCH   1   4
BRANCH   1  17
ATOM     17  C   UNL     1       6.838  -3.941  23.276  0.00  0.00    +0.089 A 
ATOM     18  C   UNL     1       7.951  -4.233  24.065  0.00  0.00    +0.030 A 
ATOM     19  C   UNL     1       9.087  -3.426  23.974  0.00  0.00    +0.048 A 
ATOM     20  C   UNL     1       9.074  -2.273  23.180  0.00  0.00    +0.129 A 
ATOM     21  C   UNL     1       7.940  -1.970  22.419  0.00  0.00    +0.048 A 
ATOM     22  C   UNL     1       6.817  -2.797  22.472  0.00  0.00    +0.030 A 
BRANCH  20  23
ATOM     23  O   UNL     1      10.133  -1.404  23.035  0.00  0.00    -0.456 OA
BRANCH  23  24
ATOM     24  C   UNL     1       9.948  -0.058  23.251  0.00  0.00    +0.129 A 
ATOM     25  C   UNL     1       9.625   0.492  24.495  0.00  0.00    +0.048 A 
ATOM     26  C   UNL     1       9.522   1.876  24.641  0.00  0.00    +0.023 A 
ATOM     27  C   UNL     1       9.675   2.702  23.530  0.00  0.00    +0.041 A 
ATOM     28 CL   UNL     1       9.577   4.408  23.717  0.00  0.00    -0.084 Cl
ATOM     29  C   UNL     1       9.910   2.154  22.269  0.00  0.00    +0.023 A 
ATOM     30  C   UNL     1      10.045   0.770  22.130  0.00  0.00    +0.048 A 
ENDBRANCH  23  24
ENDBRANCH  20  23
ENDBRANCH   1  17
TORSDOF 7
ENDMDL
MODEL 5
REMARK VINA RESULT:      -7.1      1.748      2.639
REMARK  Name = 
REMARK  7 active torsions:
REMARK  status: ('A' for Active; 'I' for Inactive)
REMARK    1  A    between atoms: O_1  and  N_2
REMARK    2  A    between atoms: C_3  and  C_5
REMARK    3  A    between atoms: C_5  and  C_6
REMARK    4  A    between atoms: C_6  and  S_12
REMARK    5  A    between atoms: S_12  and  C_15
REMARK    6  A    between atoms: C_18  and  O_19
REMARK    7  A    between atoms: O_19  and  C_20
REMARK                            x       y       z     vdW  Elec       q    Type
REMARK                         _______ _______ _______ _____ _____    ______ ____
ROOT
ATOM      1  S   UNL     1       5.250  -6.192  26.303  0.00  0.00    +0.003 S 
ATOM      2  O   UNL     1       4.685  -7.052  25.279  0.00  0.00    -0.169 OA
ATOM      3  O   UNL     1       5.701  -6.783  27.549  0.00  0.00    -0.169 OA
ENDROOT
BRANCH   1   4
ATOM      4  C   UNL     1       4.036  -4.866  26.667  0.00  0.00    +0.105 C 
ATOM      5  C   UNL     1       4.776  -3.542  26.959  0.00  0.00    +0.058 C 
ATOM      6  C   UNL     1       3.839  -2.344  26.981  0.00  0.00    +0.162 C 
ATOM      7  O   UNL     1       3.121  -2.264  25.752  0.00  0.00    -0.380 OA
ATOM      8  C   UNL     1       2.280  -3.391  25.532  0.00  0.00    +0.162 C 
ATOM      9  C   UNL     1       3.116  -4.659  25.434  0.00  0.00    +0.058 C 
BRANCH   4  10
ATOM     10  C   UNL     1       3.143  -5.337  27.849  0.00  0.00    +0.128 C 
BRANCH  10  13
ATOM     11  N   UNL     1       2.696  -7.682  28.500  0.00  0.00    -0.197 N 
ATOM     12  H   UNL     1       2.345  -8.604  28.254  0.00  0.00    +0.182 HD
ATOM     13  C   UNL     1       2.438  -6.664  27.631  0.00  0.00    +0.238 C 
ATOM     14  O   UNL     1       1.631  -6.809  26.714  0.00  0.00    -0.274 OA
BRANCH  11  15
ATOM     15  O   UNL     1       3.837  -7.633  29.320  0.00  0.00    -0.295 OA
ATOM     16  H   UNL     1       4.555  -7.867  28.692  0.00  0.00    +0.241 HD
ENDBRANCH  11  15
ENDBRANCH  10  13
ENDBRANCH   4  10
ENDBRANCH   1   4
BRANCH   1  17
ATOM     17  C   UNL     1       6.675  -5.388  25.597  0.00  0.00    +0.089 A 
ATOM     18  C   UNL     1       6.653  -4.975  24.264  0.00  0.00    +0.030 A 
ATOM     19  C   UNL     1       7.735  -4.257  23.751  0.00  0.00    +0.048 A 
ATOM     20  C   UNL     1       8.878  -4.044  24.533  0.00  0.00    +0.129 A 
ATOM     21  C   UNL     1       8.902  -4.492  25.857  0.00  0.00    +0.048 A 
ATOM     22  C   UNL     1       7.807  -5.172  26.390  0.00  0.00    +0.030 A 
BRANCH  20  23
ATOM     23  O   UNL     1      10.001  -3.364  24.116  0.00  0.00    -0.456 OA
BRANCH  23  24
ATOM     24  C   UNL     1       9.901  -2.047  23.733  0.00  0.00    +0.129 A 
ATOM     25  C   UNL     1       9.733  -0.988  24.630  0.00  0.00    +0.048 A 
ATOM     26  C   UNL     1       9.709   0.326  24.161  0.00  0.00    +0.023 A 
ATOM     27  C   UNL     1       9.783   0.574  22.793  0.00  0.00    +0.041 A 
ATOM     28 CL   UNL     1       9.782   2.195  22.220  0.00  0.00    -0.084 Cl
ATOM     29  C   UNL     1       9.862  -0.482  21.886  0.00  0.00    +0.023 A 
ATOM     30  C   UNL     1       9.919  -1.796  22.358  0.00  0.00    +0.048 A 
ENDBRANCH  23  24
ENDBRANCH  20  23
ENDBRANCH   1  17
TORSDOF 7
ENDMDL
MODEL 6
REMARK VINA RESULT:      -7.1      1.525      1.781
REMARK  Name = 
REMARK  7 active torsions:
REMARK  status: ('A' for Active; 'I' for Inactive)
REMARK    1  A    between atoms: O_1  and  N_2
REMARK    2  A    between atoms: C_3  and  C_5
REMARK    3  A    between atoms: C_5  and  C_6
REMARK    4  A    between atoms: C_6  and  S_12
REMARK    5  A    between atoms: S_12  and  C_15
REMARK    6  A    between atoms: C_18  and  O_19
REMARK    7  A    between atoms: O_19  and  C_20
REMARK                            x       y       z     vdW  Elec       q    Type
REMARK                         _______ _______ _______ _____ _____    ______ ____
ROOT
ATOM      1  S   UNL     1       7.581  -4.869  26.087  0.00  0.00    +0.003 S 
ATOM      2  O   UNL     1       8.491  -5.963  25.802  0.00  0.00    -0.169 OA
ATOM      3  O   UNL     1       7.207  -4.605  27.463  0.00  0.00    -0.169 OA
ENDROOT
BRANCH   1   4
ATOM      4  C   UNL     1       6.065  -5.114  25.084  0.00  0.00    +0.105 C 
ATOM      5  C   UNL     1       5.234  -3.812  25.061  0.00  0.00    +0.058 C 
ATOM      6  C   UNL     1       4.124  -3.848  24.022  0.00  0.00    +0.162 C 
ATOM      7  O   UNL     1       4.670  -4.124  22.735  0.00  0.00    -0.380 OA
ATOM      8  C   UNL     1       5.290  -5.404  22.662  0.00  0.00    +0.162 C 
ATOM      9  C   UNL     1       6.465  -5.474  23.627  0.00  0.00    +0.058 C 
BRANCH   4  10
ATOM     10  C   UNL     1       5.285  -6.323  25.672  0.00  0.00    +0.128 C 
BRANCH  10  13
ATOM     11  N   UNL     1       4.905  -6.302  28.117  0.00  0.00    -0.197 N 
ATOM     12  H   UNL     1       4.260  -6.231  28.899  0.00  0.00    +0.182 HD
ATOM     13  C   UNL     1       4.421  -6.004  26.878  0.00  0.00    +0.238 C 
ATOM     14  O   UNL     1       3.325  -5.460  26.745  0.00  0.00    -0.274 OA
BRANCH  11  15
ATOM     15  O   UNL     1       5.975  -7.205  28.253  0.00  0.00    -0.295 OA
ATOM     16  H   UNL     1       5.771  -7.640  29.109  0.00  0.00    +0.241 HD
ENDBRANCH  11  15
ENDBRANCH  10  13
ENDBRANCH   4  10
ENDBRANCH   1   4
BRANCH   1  17
ATOM     17  C   UNL     1       8.342  -3.373  25.489  0.00  0.00    +0.089 A 
ATOM     18  C   UNL     1       8.203  -2.185  26.207  0.00  0.00    +0.030 A 
ATOM     19  C   UNL     1       8.887  -1.044  25.784  0.00  0.00    +0.048 A 
ATOM     20  C   UNL     1       9.621  -1.060  24.591  0.00  0.00    +0.129 A 
ATOM     21  C   UNL     1       9.725  -2.248  23.860  0.00  0.00    +0.048 A 
ATOM     22  C   UNL     1       9.080  -3.404  24.301  0.00  0.00    +0.030 A 
BRANCH  20  23
ATOM     23  O   UNL     1      10.316   0.013  24.078  0.00  0.00    -0.456 OA
BRANCH  23  24
ATOM     24  C   UNL     1       9.630   1.080  23.546  0.00  0.00    +0.129 A 
ATOM     25  C   UNL     1       9.104   1.098  22.251  0.00  0.00    +0.048 A 
ATOM     26  C   UNL     1       8.362   2.195  21.814  0.00  0.00    +0.023 A 
ATOM     27  C   UNL     1       8.206   3.301  22.647  0.00  0.00    +0.041 A 
ATOM     28 CL   UNL     1       7.266   4.640  22.117  0.00  0.00    -0.084 Cl
ATOM     29  C   UNL     1       8.803   3.326  23.907  0.00  0.00    +0.023 A 
ATOM     30  C   UNL     1       9.518   2.214  24.356  0.00  0.00    +0.048 A 
ENDBRANCH  23  24
ENDBRANCH  20  23
ENDBRANCH   1  17
TORSDOF 7
ENDMDL
MODEL 7
REMARK VINA RESULT:      -7.0      5.050      8.771
REMARK  Name = 
REMARK  7 active torsions:
REMARK  status: ('A' for Active; 'I' for Inactive)
REMARK    1  A    between atoms: O_1  and  N_2
REMARK    2  A    between atoms: C_3  and  C_5
REMARK    3  A    between atoms: C_5  and  C_6
REMARK    4  A    between atoms: C_6  and  S_12
REMARK    5  A    between atoms: S_12  and  C_15
REMARK    6  A    between atoms: C_18  and  O_19
REMARK    7  A    between atoms: O_19  and  C_20
REMARK                            x       y       z     vdW  Elec       q    Type
REMARK                         _______ _______ _______ _____ _____    ______ ____
ROOT
ATOM      1  S   UNL     1       9.859   1.601  23.231  0.00  0.00    +0.003 S 
ATOM      2  O   UNL     1      10.822   1.834  24.293  0.00  0.00    -0.169 OA
ATOM      3  O   UNL     1      10.245   1.875  21.860  0.00  0.00    -0.169 OA
ENDROOT
BRANCH   1   4
ATOM      4  C   UNL     1       8.334   2.538  23.630  0.00  0.00    +0.105 C 
ATOM      5  C   UNL     1       7.633   2.980  22.327  0.00  0.00    +0.058 C 
ATOM      6  C   UNL     1       6.226   3.503  22.571  0.00  0.00    +0.162 C 
ATOM      7  O   UNL     1       5.453   2.520  23.255  0.00  0.00    -0.380 OA
ATOM      8  C   UNL     1       5.967   2.217  24.548  0.00  0.00    +0.162 C 
ATOM      9  C   UNL     1       7.366   1.627  24.432  0.00  0.00    +0.058 C 
BRANCH   4  10
ATOM     10  C   UNL     1       8.725   3.733  24.545  0.00  0.00    +0.128 C 
BRANCH  10  13
ATOM     11  N   UNL     1       9.973   5.317  23.112  0.00  0.00    -0.197 N 
ATOM     12  H   UNL     1      10.112   6.266  22.777  0.00  0.00    +0.182 HD
ATOM     13  C   UNL     1       8.845   5.070  23.837  0.00  0.00    +0.238 C 
ATOM     14  O   UNL     1       7.937   5.898  23.889  0.00  0.00    -0.274 OA
BRANCH  11  15
ATOM     15  O   UNL     1      11.126   4.539  23.320  0.00  0.00    -0.295 OA
ATOM     16  H   UNL     1      11.845   5.190  23.171  0.00  0.00    +0.241 HD
ENDBRANCH  11  15
ENDBRANCH  10  13
ENDBRANCH   4  10
ENDBRANCH   1   4
BRANCH   1  17
ATOM     17  C   UNL     1       9.416  -0.124  23.282  0.00  0.00    +0.089 A 
ATOM     18  C   UNL     1       8.756  -0.707  22.199  0.00  0.00    +0.030 A 
ATOM     19  C   UNL     1       8.506  -2.080  22.208  0.00  0.00    +0.048 A 
ATOM     20  C   UNL     1       8.816  -2.849  23.337  0.00  0.00    +0.129 A 
ATOM     21  C   UNL     1       9.446  -2.248  24.431  0.00  0.00    +0.048 A 
ATOM     22  C   UNL     1       9.740  -0.884  24.411  0.00  0.00    +0.030 A 
BRANCH  20  23
ATOM     23  O   UNL     1       8.593  -4.204  23.452  0.00  0.00    -0.456 OA
BRANCH  23  24
ATOM     24  C   UNL     1       7.308  -4.692  23.410  0.00  0.00    +0.129 A 
ATOM     25  C   UNL     1       6.388  -4.549  24.453  0.00  0.00    +0.048 A 
ATOM     26  C   UNL     1       5.082  -5.014  24.300  0.00  0.00    +0.023 A 
ATOM     27  C   UNL     1       4.717  -5.683  23.134  0.00  0.00    +0.041 A 
ATOM     28 CL   UNL     1       3.100  -6.230  22.936  0.00  0.00    -0.084 Cl
ATOM     29  C   UNL     1       5.655  -5.907  22.126  0.00  0.00    +0.023 A 
ATOM     30  C   UNL     1       6.954  -5.412  22.266  0.00  0.00    +0.048 A 
ENDBRANCH  23  24
ENDBRANCH  20  23
ENDBRANCH   1  17
TORSDOF 7
ENDMDL
MODEL 8
REMARK VINA RESULT:      -6.9      2.396      3.663
REMARK  Name = 
REMARK  7 active torsions:
REMARK  status: ('A' for Active; 'I' for Inactive)
REMARK    1  A    between atoms: O_1  and  N_2
REMARK    2  A    between atoms: C_3  and  C_5
REMARK    3  A    between atoms: C_5  and  C_6
REMARK    4  A    between atoms: C_6  and  S_12
REMARK    5  A    between atoms: S_12  and  C_15
REMARK    6  A    between atoms: C_18  and  O_19
REMARK    7  A    between atoms: O_19  and  C_20
REMARK                            x       y       z     vdW  Elec       q    Type
REMARK                         _______ _______ _______ _____ _____    ______ ____
ROOT
ATOM      1  S   UNL     1       8.140  -4.541  24.193  0.00  0.00    +0.003 S 
ATOM      2  O   UNL     1       8.108  -5.517  23.119  0.00  0.00    -0.169 OA
ATOM      3  O   UNL     1       8.948  -4.812  25.366  0.00  0.00    -0.169 OA
ENDROOT
BRANCH   1   4
ATOM      4  C   UNL     1       6.412  -4.209  24.711  0.00  0.00    +0.105 C 
ATOM      5  C   UNL     1       6.038  -5.116  25.904  0.00  0.00    +0.058 C 
ATOM      6  C   UNL     1       4.736  -4.697  26.568  0.00  0.00    +0.162 C 
ATOM      7  O   UNL     1       4.812  -3.332  26.972  0.00  0.00    -0.380 OA
ATOM      8  C   UNL     1       4.974  -2.441  25.874  0.00  0.00    +0.162 C 
ATOM      9  C   UNL     1       6.284  -2.726  25.154  0.00  0.00    +0.058 C 
BRANCH   4  10
ATOM     10  C   UNL     1       5.488  -4.414  23.478  0.00  0.00    +0.128 C 
BRANCH  10  13
ATOM     11  N   UNL     1       5.722  -6.259  21.845  0.00  0.00    -0.197 N 
ATOM     12  H   UNL     1       5.436  -7.179  21.522  0.00  0.00    +0.182 HD
ATOM     13  C   UNL     1       5.276  -5.861  23.070  0.00  0.00    +0.238 C 
ATOM     14  O   UNL     1       4.743  -6.663  23.836  0.00  0.00    -0.274 OA
BRANCH  11  15
ATOM     15  O   UNL     1       6.017  -5.299  20.860  0.00  0.00    -0.295 OA
ATOM     16  H   UNL     1       5.378  -5.528  20.150  0.00  0.00    +0.241 HD
ENDBRANCH  11  15
ENDBRANCH  10  13
ENDBRANCH   4  10
ENDBRANCH   1   4
BRANCH   1  17
ATOM     17  C   UNL     1       8.761  -3.017  23.509  0.00  0.00    +0.089 A 
ATOM     18  C   UNL     1       8.319  -2.583  22.258  0.00  0.00    +0.030 A 
ATOM     19  C   UNL     1       8.735  -1.340  21.778  0.00  0.00    +0.048 A 
ATOM     20  C   UNL     1       9.669  -0.580  22.494  0.00  0.00    +0.129 A 
ATOM     21  C   UNL     1      10.130  -1.040  23.731  0.00  0.00    +0.048 A 
ATOM     22  C   UNL     1       9.686  -2.262  24.238  0.00  0.00    +0.030 A 
BRANCH  20  23
ATOM     23  O   UNL     1      10.154   0.648  22.100  0.00  0.00    -0.456 OA
BRANCH  23  24
ATOM     24  C   UNL     1       9.471   1.793  22.438  0.00  0.00    +0.129 A 
ATOM     25  C   UNL     1       8.277   2.193  21.832  0.00  0.00    +0.048 A 
ATOM     26  C   UNL     1       7.613   3.335  22.284  0.00  0.00    +0.023 A 
ATOM     27  C   UNL     1       8.180   4.111  23.292  0.00  0.00    +0.041 A 
ATOM     28 CL   UNL     1       7.346   5.500  23.867  0.00  0.00    -0.084 Cl
ATOM     29  C   UNL     1       9.415   3.765  23.840  0.00  0.00    +0.023 A 
ATOM     30  C   UNL     1      10.062   2.604  23.410  0.00  0.00    +0.048 A 
ENDBRANCH  23  24
ENDBRANCH  20  23
ENDBRANCH   1  17
TORSDOF 7
ENDMDL
MODEL 9
REMARK VINA RESULT:      -6.9      2.974      4.649
REMARK  Name = 
REMARK  7 active torsions:
REMARK  status: ('A' for Active; 'I' for Inactive)
REMARK    1  A    between atoms: O_1  and  N_2
REMARK    2  A    between atoms: C_3  and  C_5
REMARK    3  A    between atoms: C_5  and  C_6
REMARK    4  A    between atoms: C_6  and  S_12
REMARK    5  A    between atoms: S_12  and  C_15
REMARK    6  A    between atoms: C_18  and  O_19
REMARK    7  A    between atoms: O_19  and  C_20
REMARK                            x       y       z     vdW  Elec       q    Type
REMARK                         _______ _______ _______ _____ _____    ______ ____
ROOT
ATOM      1  S   UNL     1       8.843  -2.737  23.575  0.00  0.00    +0.003 S 
ATOM      2  O   UNL     1       8.383  -3.171  22.268  0.00  0.00    -0.169 OA
ATOM      3  O   UNL     1      10.036  -3.340  24.136  0.00  0.00    -0.169 OA
ENDROOT
BRANCH   1   4
ATOM      4  C   UNL     1       7.455  -2.925  24.758  0.00  0.00    +0.105 C 
ATOM      5  C   UNL     1       7.724  -2.079  26.022  0.00  0.00    +0.058 C 
ATOM      6  C   UNL     1       6.496  -1.956  26.912  0.00  0.00    +0.162 C 
ATOM      7  O   UNL     1       5.405  -1.421  26.166  0.00  0.00    -0.380 OA
ATOM      8  C   UNL     1       5.005  -2.267  25.094  0.00  0.00    +0.162 C 
ATOM      9  C   UNL     1       6.142  -2.425  24.095  0.00  0.00    +0.058 C 
BRANCH   4  10
ATOM     10  C   UNL     1       7.281  -4.439  25.065  0.00  0.00    +0.128 C 
BRANCH  10  13
ATOM     11  N   UNL     1       9.308  -5.516  25.991  0.00  0.00    -0.197 N 
ATOM     12  H   UNL     1       9.767  -5.994  26.761  0.00  0.00    +0.182 HD
ATOM     13  C   UNL     1       8.092  -4.952  26.242  0.00  0.00    +0.238 C 
ATOM     14  O   UNL     1       7.679  -4.834  27.394  0.00  0.00    -0.274 OA
BRANCH  11  15
ATOM     15  O   UNL     1       9.625  -5.949  24.691  0.00  0.00    -0.295 OA
ATOM     16  H   UNL     1      10.355  -5.341  24.443  0.00  0.00    +0.241 HD
ENDBRANCH  11  15
ENDBRANCH  10  13
ENDBRANCH   4  10
ENDBRANCH   1   4
BRANCH   1  17
ATOM     17  C   UNL     1       9.178  -0.990  23.469  0.00  0.00    +0.089 A 
ATOM     18  C   UNL     1      10.178  -0.422  24.260  0.00  0.00    +0.030 A 
ATOM     19  C   UNL     1      10.500   0.926  24.095  0.00  0.00    +0.048 A 
ATOM     20  C   UNL     1       9.757   1.729  23.220  0.00  0.00    +0.129 A 
ATOM     21  C   UNL     1       8.735   1.157  22.457  0.00  0.00    +0.048 A 
ATOM     22  C   UNL     1       8.436  -0.200  22.585  0.00  0.00    +0.030 A 
BRANCH  20  23
ATOM     23  O   UNL     1       9.984   3.070  22.999  0.00  0.00    -0.456 OA
BRANCH  23  24
ATOM     24  C   UNL     1       9.563   3.996  23.924  0.00  0.00    +0.129 A 
ATOM     25  C   UNL     1      10.117   5.273  24.053  0.00  0.00    +0.048 A 
ATOM     26  C   UNL     1       9.584   6.176  24.974  0.00  0.00    +0.023 A 
ATOM     27  C   UNL     1       8.544   5.778  25.811  0.00  0.00    +0.041 A 
ATOM     28 CL   UNL     1       7.869   6.900  26.925  0.00  0.00    -0.084 Cl
ATOM     29  C   UNL     1       8.046   4.477  25.749  0.00  0.00    +0.023 A 
ATOM     30  C   UNL     1       8.558   3.584  24.804  0.00  0.00    +0.048 A 
ENDBRANCH  23  24
ENDBRANCH  20  23
ENDBRANCH   1  17
TORSDOF 7
ENDMDL
