MODEL 1
REMARK VINA RESULT:      -6.1      0.000      0.000
REMARK  Name = 
REMARK  9 active torsions:
REMARK  status: ('A' for Active; 'I' for Inactive)
REMARK    1  A    between atoms: C_1  and  C_2
REMARK    2  A    between atoms: N_4  and  C_5
REMARK    3  A    between atoms: C_5  and  C_7
REMARK    4  A    between atoms: C_5  and  C_17
REMARK    5  A    between atoms: C_7  and  C_8
REMARK    6  A    between atoms: C_12  and  O_13
REMARK    7  A    between atoms: N_19  and  CA_20
REMARK    8  A    between atoms: CA_20  and  C_21
REMARK    9  A    between atoms: C_21  and  O_22
REMARK                            x       y       z     vdW  Elec       q    Type
REMARK                         _______ _______ _______ _____ _____    ______ ____
ROOT
ATOM      1  C   UNK A   1       7.387  -4.124  24.055  0.00  0.00    +0.163 C 
ENDROOT
BRANCH   1   4
ATOM      2  C   UNK A   0       6.249  -5.756  20.817  0.00  0.00    +0.109 C 
ATOM      3  C   UNK A   0       6.189  -4.844  22.013  0.00  0.00    +0.211 C 
ATOM      4  N   UNK A   1       7.300  -4.897  22.815  0.00  0.00    -0.304 N 
ATOM      5  H   UNK A   1       8.142  -5.345  22.468  0.00  0.00    +0.149 HD
ATOM      6  O   UNK A   0       5.234  -4.113  22.259  0.00  0.00    -0.276 OA
ENDBRANCH   1   4
BRANCH   1   7
ATOM      7  C   UNK A   1       8.544  -3.121  23.902  0.00  0.00    +0.234 C 
ATOM      8  N   GLY A   2       8.169  -1.864  23.467  0.00  0.00    -0.303 N 
ATOM      9  H   GLY A   2       7.184  -1.682  23.274  0.00  0.00    +0.149 HD
ATOM     10  O   UNK A   1       9.722  -3.432  24.052  0.00  0.00    -0.274 OA
BRANCH   8  11
ATOM     11  CA  GLY A   2       9.131  -0.762  23.440  0.00  0.00    +0.224 C 
BRANCH  11  12
ATOM     12  C   GLY A   2       9.727  -0.505  22.063  0.00  0.00    +0.322 C 
ATOM     13  OXT GLY A   2       9.659   0.568  21.477  0.00  0.00    -0.249 OA
BRANCH  12  14
ATOM     14  O   GLY A   2      10.307  -1.598  21.511  0.00  0.00    -0.480 OA
ATOM     15  H   GLY A   2       9.825  -1.846  20.696  0.00  0.00    +0.295 HD
ENDBRANCH  12  14
ENDBRANCH  11  12
ENDBRANCH   8  11
ENDBRANCH   1   7
BRANCH   1  16
ATOM     16  C   UNK A   1       7.654  -5.019  25.281  0.00  0.00    +0.067 C 
BRANCH  16  17
ATOM     17  C   UNK A   1       6.442  -5.548  26.020  0.00  0.00    -0.043 A 
ATOM     18  C   UNK A   1       5.323  -6.085  25.367  0.00  0.00    +0.021 A 
ATOM     19  C   UNK A   1       4.277  -6.658  26.101  0.00  0.00    +0.056 A 
ATOM     20  I   UNK A   1       2.707  -7.545  25.035  0.00  0.00    -0.040 I 
ATOM     21  C   UNK A   1       4.316  -6.665  27.498  0.00  0.00    +0.143 A 
ATOM     22  C   UNK A   1       5.390  -6.059  28.157  0.00  0.00    +0.056 A 
ATOM     23  I   UNK A   1       5.492  -5.994  30.243  0.00  0.00    -0.040 I 
ATOM     24  C   UNK A   1       6.442  -5.501  27.424  0.00  0.00    +0.021 A 
BRANCH  21  25
ATOM     25  O   UNK A   1       3.309  -7.270  28.199  0.00  0.00    -0.505 OA
ATOM     26  H   UNK A   1       2.622  -7.541  27.565  0.00  0.00    +0.292 HD
ENDBRANCH  21  25
ENDBRANCH  16  17
ENDBRANCH   1  16
TORSDOF 8
ENDMDL
MODEL 2
REMARK VINA RESULT:      -6.0      0.196      2.117
REMARK  Name = 
REMARK  9 active torsions:
REMARK  status: ('A' for Active; 'I' for Inactive)
REMARK    1  A    between atoms: C_1  and  C_2
REMARK    2  A    between atoms: N_4  and  C_5
REMARK    3  A    between atoms: C_5  and  C_7
REMARK    4  A    between atoms: C_5  and  C_17
REMARK    5  A    between atoms: C_7  and  C_8
REMARK    6  A    between atoms: C_12  and  O_13
REMARK    7  A    between atoms: N_19  and  CA_20
REMARK    8  A    between atoms: CA_20  and  C_21
REMARK    9  A    between atoms: C_21  and  O_22
REMARK                            x       y       z     vdW  Elec       q    Type
REMARK                         _______ _______ _______ _____ _____    ______ ____
ROOT
ATOM      1  C   UNK A   1       7.366  -4.141  24.083  0.00  0.00    +0.163 C 
ENDROOT
BRANCH   1   4
ATOM      2  C   UNK A   0       6.202  -5.781  20.859  0.00  0.00    +0.109 C 
ATOM      3  C   UNK A   0       6.174  -4.833  22.027  0.00  0.00    +0.211 C 
ATOM      4  N   UNK A   1       7.257  -4.941  22.862  0.00  0.00    -0.304 N 
ATOM      5  H   UNK A   1       8.074  -5.456  22.551  0.00  0.00    +0.149 HD
ATOM      6  O   UNK A   0       5.268  -4.030  22.227  0.00  0.00    -0.276 OA
ENDBRANCH   1   4
BRANCH   1   7
ATOM      7  C   UNK A   1       8.462  -3.084  23.855  0.00  0.00    +0.234 C 
ATOM      8  N   GLY A   2       8.009  -1.874  23.365  0.00  0.00    -0.303 N 
ATOM      9  H   GLY A   2       7.012  -1.757  23.183  0.00  0.00    +0.149 HD
ATOM     10  O   UNK A   1       9.658  -3.321  23.997  0.00  0.00    -0.274 OA
BRANCH   8  11
ATOM     11  CA  GLY A   2       8.906  -0.723  23.262  0.00  0.00    +0.224 C 
BRANCH  11  12
ATOM     12  C   GLY A   2       9.490  -0.526  21.869  0.00  0.00    +0.322 C 
ATOM     13  OXT GLY A   2       9.246   0.439  21.156  0.00  0.00    -0.249 OA
BRANCH  12  14
ATOM     14  O   GLY A   2      10.277  -1.551  21.461  0.00  0.00    -0.480 OA
ATOM     15  H   GLY A   2      11.013  -1.200  20.919  0.00  0.00    +0.295 HD
ENDBRANCH  12  14
ENDBRANCH  11  12
ENDBRANCH   8  11
ENDBRANCH   1   7
BRANCH   1  16
ATOM     16  C   UNK A   1       7.738  -4.997  25.309  0.00  0.00    +0.067 C 
BRANCH  16  17
ATOM     17  C   UNK A   1       6.593  -5.607  26.091  0.00  0.00    -0.043 A 
ATOM     18  C   UNK A   1       6.542  -5.615  27.491  0.00  0.00    +0.021 A 
ATOM     19  C   UNK A   1       5.410  -6.097  28.161  0.00  0.00    +0.056 A 
ATOM     20  I   UNK A   1       5.376  -5.953  30.250  0.00  0.00    -0.040 I 
ATOM     21  C   UNK A   1       4.331  -6.614  27.440  0.00  0.00    +0.143 A 
ATOM     22  C   UNK A   1       4.408  -6.684  26.046  0.00  0.00    +0.056 A 
ATOM     23  I   UNK A   1       2.851  -7.487  24.906  0.00  0.00    -0.040 I 
ATOM     24  C   UNK A   1       5.532  -6.190  25.377  0.00  0.00    +0.021 A 
BRANCH  21  25
ATOM     25  O   UNK A   1       3.213  -7.037  28.106  0.00  0.00    -0.505 OA
ATOM     26  H   UNK A   1       2.579  -7.373  27.448  0.00  0.00    +0.292 HD
ENDBRANCH  21  25
ENDBRANCH  16  17
ENDBRANCH   1  16
TORSDOF 8
ENDMDL
MODEL 3
REMARK VINA RESULT:      -5.9      2.385      4.315
REMARK  Name = 
REMARK  9 active torsions:
REMARK  status: ('A' for Active; 'I' for Inactive)
REMARK    1  A    between atoms: C_1  and  C_2
REMARK    2  A    between atoms: N_4  and  C_5
REMARK    3  A    between atoms: C_5  and  C_7
REMARK    4  A    between atoms: C_5  and  C_17
REMARK    5  A    between atoms: C_7  and  C_8
REMARK    6  A    between atoms: C_12  and  O_13
REMARK    7  A    between atoms: N_19  and  CA_20
REMARK    8  A    between atoms: CA_20  and  C_21
REMARK    9  A    between atoms: C_21  and  O_22
REMARK                            x       y       z     vdW  Elec       q    Type
REMARK                         _______ _______ _______ _____ _____    ______ ____
ROOT
ATOM      1  C   UNK A   1       9.517  -2.047  24.802  0.00  0.00    +0.163 C 
ENDROOT
BRANCH   1   4
ATOM      2  C   UNK A   0       6.477  -0.616  26.578  0.00  0.00    +0.109 C 
ATOM      3  C   UNK A   0       7.919  -0.992  26.370  0.00  0.00    +0.211 C 
ATOM      4  N   UNK A   1       8.180  -1.563  25.151  0.00  0.00    -0.304 N 
ATOM      5  H   UNK A   1       7.484  -1.502  24.415  0.00  0.00    +0.149 HD
ATOM      6  O   UNK A   0       8.794  -0.808  27.211  0.00  0.00    -0.276 OA
ENDBRANCH   1   4
BRANCH   1   7
ATOM      7  C   UNK A   1       9.799  -1.637  23.346  0.00  0.00    +0.234 C 
ATOM      8  N   GLY A   2       8.994  -0.625  22.861  0.00  0.00    -0.303 N 
ATOM      9  H   GLY A   2       8.281  -0.225  23.472  0.00  0.00    +0.149 HD
ATOM     10  O   UNK A   1      10.604  -2.227  22.630  0.00  0.00    -0.274 OA
BRANCH   8  11
ATOM     11  CA  GLY A   2       9.259  -0.014  21.558  0.00  0.00    +0.224 C 
BRANCH  11  12
ATOM     12  C   GLY A   2       9.006   1.487  21.524  0.00  0.00    +0.322 C 
ATOM     13  OXT GLY A   2       7.892   1.991  21.455  0.00  0.00    -0.249 OA
BRANCH  12  14
ATOM     14  O   GLY A   2      10.140   2.229  21.527  0.00  0.00    -0.480 OA
ATOM     15  H   GLY A   2      10.640   2.062  20.702  0.00  0.00    +0.295 HD
ENDBRANCH  12  14
ENDBRANCH  11  12
ENDBRANCH   8  11
ENDBRANCH   1   7
BRANCH   1  16
ATOM     16  C   UNK A   1       9.632  -3.578  24.927  0.00  0.00    +0.067 C 
BRANCH  16  17
ATOM     17  C   UNK A   1       8.356  -4.378  24.758  0.00  0.00    -0.043 A 
ATOM     18  C   UNK A   1       7.569  -4.798  25.839  0.00  0.00    +0.021 A 
ATOM     19  C   UNK A   1       6.343  -5.440  25.621  0.00  0.00    +0.056 A 
ATOM     20  I   UNK A   1       5.181  -5.920  27.296  0.00  0.00    -0.040 I 
ATOM     21  C   UNK A   1       5.908  -5.707  24.320  0.00  0.00    +0.143 A 
ATOM     22  C   UNK A   1       6.726  -5.364  23.240  0.00  0.00    +0.056 A 
ATOM     23  I   UNK A   1       6.159  -5.773  21.270  0.00  0.00    -0.040 I 
ATOM     24  C   UNK A   1       7.942  -4.709  23.457  0.00  0.00    +0.021 A 
BRANCH  21  25
ATOM     25  O   UNK A   1       4.688  -6.294  24.123  0.00  0.00    -0.505 OA
ATOM     26  H   UNK A   1       4.070  -5.606  23.818  0.00  0.00    +0.292 HD
ENDBRANCH  21  25
ENDBRANCH  16  17
ENDBRANCH   1  16
TORSDOF 8
ENDMDL
MODEL 4
REMARK VINA RESULT:      -5.9      2.578      3.721
REMARK  Name = 
REMARK  9 active torsions:
REMARK  status: ('A' for Active; 'I' for Inactive)
REMARK    1  A    between atoms: C_1  and  C_2
REMARK    2  A    between atoms: N_4  and  C_5
REMARK    3  A    between atoms: C_5  and  C_7
REMARK    4  A    between atoms: C_5  and  C_17
REMARK    5  A    between atoms: C_7  and  C_8
REMARK    6  A    between atoms: C_12  and  O_13
REMARK    7  A    between atoms: N_19  and  CA_20
REMARK    8  A    between atoms: CA_20  and  C_21
REMARK    9  A    between atoms: C_21  and  O_22
REMARK                            x       y       z     vdW  Elec       q    Type
REMARK                         _______ _______ _______ _____ _____    ______ ____
ROOT
ATOM      1  C   UNK A   1       8.660  -1.914  25.636  0.00  0.00    +0.163 C 
ENDROOT
BRANCH   1   4
ATOM      2  C   UNK A   0       5.156  -0.456  25.833  0.00  0.00    +0.109 C 
ATOM      3  C   UNK A   0       6.568  -0.749  26.262  0.00  0.00    +0.211 C 
ATOM      4  N   UNK A   1       7.289  -1.485  25.356  0.00  0.00    -0.304 N 
ATOM      5  H   UNK A   1       6.934  -1.594  24.411  0.00  0.00    +0.149 HD
ATOM      6  O   UNK A   0       7.045  -0.368  27.327  0.00  0.00    -0.276 OA
ENDBRANCH   1   4
BRANCH   1   7
ATOM      7  C   UNK A   1       9.544  -1.456  24.462  0.00  0.00    +0.234 C 
ATOM      8  N   GLY A   2       9.514  -0.098  24.208  0.00  0.00    -0.303 N 
ATOM      9  H   GLY A   2       8.925   0.500  24.788  0.00  0.00    +0.149 HD
ATOM     10  O   UNK A   1      10.151  -2.240  23.737  0.00  0.00    -0.274 OA
BRANCH   8  11
ATOM     11  CA  GLY A   2      10.431   0.504  23.240  0.00  0.00    +0.224 C 
BRANCH  11  12
ATOM     12  C   GLY A   2       9.797   0.767  21.881  0.00  0.00    +0.322 C 
ATOM     13  OXT GLY A   2       9.325  -0.108  21.165  0.00  0.00    -0.249 OA
BRANCH  12  14
ATOM     14  O   GLY A   2       9.843   2.068  21.503  0.00  0.00    -0.480 OA
ATOM     15  H   GLY A   2      10.749   2.287  21.202  0.00  0.00    +0.295 HD
ENDBRANCH  12  14
ENDBRANCH  11  12
ENDBRANCH   8  11
ENDBRANCH   1   7
BRANCH   1  16
ATOM     16  C   UNK A   1       8.771  -3.444  25.784  0.00  0.00    +0.067 C 
BRANCH  16  17
ATOM     17  C   UNK A   1       7.633  -4.272  25.222  0.00  0.00    -0.043 A 
ATOM     18  C   UNK A   1       7.457  -4.497  23.850  0.00  0.00    +0.021 A 
ATOM     19  C   UNK A   1       6.451  -5.358  23.392  0.00  0.00    +0.056 A 
ATOM     20  I   UNK A   1       6.345  -5.729  21.333  0.00  0.00    -0.040 I 
ATOM     21  C   UNK A   1       5.582  -5.972  24.298  0.00  0.00    +0.143 A 
ATOM     22  C   UNK A   1       5.701  -5.688  25.661  0.00  0.00    +0.056 A 
ATOM     23  I   UNK A   1       4.408  -6.536  27.068  0.00  0.00    -0.040 I 
ATOM     24  C   UNK A   1       6.714  -4.841  26.119  0.00  0.00    +0.021 A 
BRANCH  21  25
ATOM     25  O   UNK A   1       4.635  -6.846  23.839  0.00  0.00    -0.505 OA
ATOM     26  H   UNK A   1       4.527  -6.698  22.883  0.00  0.00    +0.292 HD
ENDBRANCH  21  25
ENDBRANCH  16  17
ENDBRANCH   1  16
TORSDOF 8
ENDMDL
MODEL 5
REMARK VINA RESULT:      -5.7      3.440      6.579
REMARK  Name = 
REMARK  9 active torsions:
REMARK  status: ('A' for Active; 'I' for Inactive)
REMARK    1  A    between atoms: C_1  and  C_2
REMARK    2  A    between atoms: N_4  and  C_5
REMARK    3  A    between atoms: C_5  and  C_7
REMARK    4  A    between atoms: C_5  and  C_17
REMARK    5  A    between atoms: C_7  and  C_8
REMARK    6  A    between atoms: C_12  and  O_13
REMARK    7  A    between atoms: N_19  and  CA_20
REMARK    8  A    between atoms: CA_20  and  C_21
REMARK    9  A    between atoms: C_21  and  O_22
REMARK                            x       y       z     vdW  Elec       q    Type
REMARK                         _______ _______ _______ _____ _____    ______ ____
ROOT
ATOM      1  C   UNK A   1       8.182  -4.945  24.587  0.00  0.00    +0.163 C 
ENDROOT
BRANCH   1   4
ATOM      2  C   UNK A   0       6.138  -4.227  21.465  0.00  0.00    +0.109 C 
ATOM      3  C   UNK A   0       7.044  -4.993  22.389  0.00  0.00    +0.211 C 
ATOM      4  N   UNK A   1       7.275  -4.372  23.591  0.00  0.00    -0.304 N 
ATOM      5  H   UNK A   1       6.687  -3.594  23.868  0.00  0.00    +0.149 HD
ATOM      6  O   UNK A   0       7.540  -6.080  22.105  0.00  0.00    -0.276 OA
ENDBRANCH   1   4
BRANCH   1   7
ATOM      7  C   UNK A   1       7.357  -5.256  25.849  0.00  0.00    +0.234 C 
ATOM      8  N   GLY A   2       6.034  -4.864  25.789  0.00  0.00    -0.303 N 
ATOM      9  H   GLY A   2       5.693  -4.402  24.945  0.00  0.00    +0.149 HD
ATOM     10  O   UNK A   1       7.851  -5.722  26.872  0.00  0.00    -0.274 OA
BRANCH   8  11
ATOM     11  CA  GLY A   2       5.090  -5.246  26.839  0.00  0.00    +0.224 C 
BRANCH  11  12
ATOM     12  C   GLY A   2       4.747  -6.730  26.842  0.00  0.00    +0.322 C 
ATOM     13  OXT GLY A   2       4.016  -7.264  26.018  0.00  0.00    -0.249 OA
BRANCH  12  14
ATOM     14  O   GLY A   2       5.291  -7.410  27.880  0.00  0.00    -0.480 OA
ATOM     15  H   GLY A   2       6.263  -7.449  27.771  0.00  0.00    +0.295 HD
ENDBRANCH  12  14
ENDBRANCH  11  12
ENDBRANCH   8  11
ENDBRANCH   1   7
BRANCH   1  16
ATOM     16  C   UNK A   1       9.325  -3.979  24.956  0.00  0.00    +0.067 C 
BRANCH  16  17
ATOM     17  C   UNK A   1       9.028  -2.497  24.857  0.00  0.00    -0.043 A 
ATOM     18  C   UNK A   1       9.406  -1.715  23.757  0.00  0.00    +0.021 A 
ATOM     19  C   UNK A   1       9.012  -0.373  23.667  0.00  0.00    +0.056 A 
ATOM     20  I   UNK A   1       9.519   0.680  21.929  0.00  0.00    -0.040 I 
ATOM     21  C   UNK A   1       8.270   0.214  24.695  0.00  0.00    +0.143 A 
ATOM     22  C   UNK A   1       7.960  -0.537  25.832  0.00  0.00    +0.056 A 
ATOM     23  I   UNK A   1       6.892   0.289  27.428  0.00  0.00    -0.040 I 
ATOM     24  C   UNK A   1       8.340  -1.881  25.914  0.00  0.00    +0.021 A 
BRANCH  21  25
ATOM     25  O   UNK A   1       7.854   1.512  24.572  0.00  0.00    -0.505 OA
ATOM     26  H   UNK A   1       8.636   2.063  24.395  0.00  0.00    +0.292 HD
ENDBRANCH  21  25
ENDBRANCH  16  17
ENDBRANCH   1  16
TORSDOF 8
ENDMDL
MODEL 6
REMARK VINA RESULT:      -5.6      2.906      3.760
REMARK  Name = 
REMARK  9 active torsions:
REMARK  status: ('A' for Active; 'I' for Inactive)
REMARK    1  A    between atoms: C_1  and  C_2
REMARK    2  A    between atoms: N_4  and  C_5
REMARK    3  A    between atoms: C_5  and  C_7
REMARK    4  A    between atoms: C_5  and  C_17
REMARK    5  A    between atoms: C_7  and  C_8
REMARK    6  A    between atoms: C_12  and  O_13
REMARK    7  A    between atoms: N_19  and  CA_20
REMARK    8  A    between atoms: CA_20  and  C_21
REMARK    9  A    between atoms: C_21  and  O_22
REMARK                            x       y       z     vdW  Elec       q    Type
REMARK                         _______ _______ _______ _____ _____    ______ ____
ROOT
ATOM      1  C   UNK A   1       8.642  -2.655  23.155  0.00  0.00    +0.163 C 
ENDROOT
BRANCH   1   4
ATOM      2  C   UNK A   0       8.726  -4.557  26.444  0.00  0.00    +0.109 C 
ATOM      3  C   UNK A   0       8.804  -4.344  24.956  0.00  0.00    +0.211 C 
ATOM      4  N   UNK A   1       8.656  -3.037  24.568  0.00  0.00    -0.304 N 
ATOM      5  H   UNK A   1       8.724  -2.302  25.264  0.00  0.00    +0.149 HD
ATOM      6  O   UNK A   0       8.984  -5.253  24.151  0.00  0.00    -0.276 OA
ENDBRANCH   1   4
BRANCH   1   7
ATOM      7  C   UNK A   1       9.740  -1.597  22.945  0.00  0.00    +0.234 C 
ATOM      8  N   GLY A   2       9.472  -0.362  23.503  0.00  0.00    -0.303 N 
ATOM      9  H   GLY A   2       8.590  -0.226  23.999  0.00  0.00    +0.149 HD
ATOM     10  O   UNK A   1      10.733  -1.793  22.249  0.00  0.00    -0.274 OA
BRANCH   8  11
ATOM     11  CA  GLY A   2      10.492   0.686  23.533  0.00  0.00    +0.224 C 
BRANCH  11  12
ATOM     12  C   GLY A   2      10.065   1.974  22.842  0.00  0.00    +0.322 C 
ATOM     13  OXT GLY A   2       9.894   3.038  23.423  0.00  0.00    -0.249 OA
BRANCH  12  14
ATOM     14  O   GLY A   2       9.841   1.828  21.513  0.00  0.00    -0.480 OA
ATOM     15  H   GLY A   2       9.736   2.710  21.102  0.00  0.00    +0.295 HD
ENDBRANCH  12  14
ENDBRANCH  11  12
ENDBRANCH   8  11
ENDBRANCH   1   7
BRANCH   1  16
ATOM     16  C   UNK A   1       7.285  -2.066  22.724  0.00  0.00    +0.067 C 
BRANCH  16  17
ATOM     17  C   UNK A   1       6.073  -2.476  23.536  0.00  0.00    -0.043 A 
ATOM     18  C   UNK A   1       5.275  -3.582  23.212  0.00  0.00    +0.021 A 
ATOM     19  C   UNK A   1       4.231  -3.979  24.057  0.00  0.00    +0.056 A 
ATOM     20  I   UNK A   1       3.175  -5.717  23.554  0.00  0.00    -0.040 I 
ATOM     21  C   UNK A   1       3.944  -3.251  25.215  0.00  0.00    +0.143 A 
ATOM     22  C   UNK A   1       4.683  -2.100  25.500  0.00  0.00    +0.056 A 
ATOM     23  I   UNK A   1       4.280  -0.937  27.190  0.00  0.00    -0.040 I 
ATOM     24  C   UNK A   1       5.736  -1.712  24.665  0.00  0.00    +0.021 A 
BRANCH  21  25
ATOM     25  O   UNK A   1       2.951  -3.678  26.053  0.00  0.00    -0.505 OA
ATOM     26  H   UNK A   1       3.205  -3.444  26.964  0.00  0.00    +0.292 HD
ENDBRANCH  21  25
ENDBRANCH  16  17
ENDBRANCH   1  16
TORSDOF 8
ENDMDL
MODEL 7
REMARK VINA RESULT:      -5.6      2.960      4.194
REMARK  Name = 
REMARK  9 active torsions:
REMARK  status: ('A' for Active; 'I' for Inactive)
REMARK    1  A    between atoms: C_1  and  C_2
REMARK    2  A    between atoms: N_4  and  C_5
REMARK    3  A    between atoms: C_5  and  C_7
REMARK    4  A    between atoms: C_5  and  C_17
REMARK    5  A    between atoms: C_7  and  C_8
REMARK    6  A    between atoms: C_12  and  O_13
REMARK    7  A    between atoms: N_19  and  CA_20
REMARK    8  A    between atoms: CA_20  and  C_21
REMARK    9  A    between atoms: C_21  and  O_22
REMARK                            x       y       z     vdW  Elec       q    Type
REMARK                         _______ _______ _______ _____ _____    ______ ____
ROOT
ATOM      1  C   UNK A   1       8.590  -2.661  23.240  0.00  0.00    +0.163 C 
ENDROOT
BRANCH   1   4
ATOM      2  C   UNK A   0       8.887  -4.626  26.479  0.00  0.00    +0.109 C 
ATOM      3  C   UNK A   0       8.860  -4.386  24.994  0.00  0.00    +0.211 C 
ATOM      4  N   UNK A   1       8.701  -3.070  24.641  0.00  0.00    -0.304 N 
ATOM      5  H   UNK A   1       8.829  -2.349  25.343  0.00  0.00    +0.149 HD
ATOM      6  O   UNK A   0       8.968  -5.281  24.161  0.00  0.00    -0.276 OA
ENDBRANCH   1   4
BRANCH   1   7
ATOM      7  C   UNK A   1       9.687  -1.616  22.968  0.00  0.00    +0.234 C 
ATOM      8  N   GLY A   2       9.413  -0.348  23.442  0.00  0.00    -0.303 N 
ATOM      9  H   GLY A   2       8.528  -0.181  23.923  0.00  0.00    +0.149 HD
ATOM     10  O   UNK A   1      10.685  -1.856  22.293  0.00  0.00    -0.274 OA
BRANCH   8  11
ATOM     11  CA  GLY A   2      10.432   0.701  23.410  0.00  0.00    +0.224 C 
BRANCH  11  12
ATOM     12  C   GLY A   2       9.930   2.022  22.842  0.00  0.00    +0.322 C 
ATOM     13  OXT GLY A   2       9.537   2.957  23.528  0.00  0.00    -0.249 OA
BRANCH  12  14
ATOM     14  O   GLY A   2       9.910   2.057  21.487  0.00  0.00    -0.480 OA
ATOM     15  H   GLY A   2      10.302   1.232  21.134  0.00  0.00    +0.295 HD
ENDBRANCH  12  14
ENDBRANCH  11  12
ENDBRANCH   8  11
ENDBRANCH   1   7
BRANCH   1  16
ATOM     16  C   UNK A   1       7.215  -2.042  22.922  0.00  0.00    +0.067 C 
BRANCH  16  17
ATOM     17  C   UNK A   1       6.057  -2.453  23.809  0.00  0.00    -0.043 A 
ATOM     18  C   UNK A   1       5.693  -1.748  24.964  0.00  0.00    +0.021 A 
ATOM     19  C   UNK A   1       4.548  -2.109  25.688  0.00  0.00    +0.056 A 
ATOM     20  I   UNK A   1       4.016  -0.920  27.328  0.00  0.00    -0.040 I 
ATOM     21  C   UNK A   1       3.778  -3.203  25.289  0.00  0.00    +0.143 A 
ATOM     22  C   UNK A   1       4.181  -3.960  24.186  0.00  0.00    +0.056 A 
ATOM     23  I   UNK A   1       3.101  -5.637  23.560  0.00  0.00    -0.040 I 
ATOM     24  C   UNK A   1       5.314  -3.591  23.454  0.00  0.00    +0.021 A 
BRANCH  21  25
ATOM     25  O   UNK A   1       2.638  -3.514  25.979  0.00  0.00    -0.505 OA
ATOM     26  H   UNK A   1       1.910  -3.596  25.337  0.00  0.00    +0.292 HD
ENDBRANCH  21  25
ENDBRANCH  16  17
ENDBRANCH   1  16
TORSDOF 8
ENDMDL
MODEL 8
REMARK VINA RESULT:      -5.6      3.460      6.843
REMARK  Name = 
REMARK  9 active torsions:
REMARK  status: ('A' for Active; 'I' for Inactive)
REMARK    1  A    between atoms: C_1  and  C_2
REMARK    2  A    between atoms: N_4  and  C_5
REMARK    3  A    between atoms: C_5  and  C_7
REMARK    4  A    between atoms: C_5  and  C_17
REMARK    5  A    between atoms: C_7  and  C_8
REMARK    6  A    between atoms: C_12  and  O_13
REMARK    7  A    between atoms: N_19  and  CA_20
REMARK    8  A    between atoms: CA_20  and  C_21
REMARK    9  A    between atoms: C_21  and  O_22
REMARK                            x       y       z     vdW  Elec       q    Type
REMARK                         _______ _______ _______ _____ _____    ______ ____
ROOT
ATOM      1  C   UNK A   1       8.102  -5.023  24.873  0.00  0.00    +0.163 C 
ENDROOT
BRANCH   1   4
ATOM      2  C   UNK A   0       5.988  -4.499  21.758  0.00  0.00    +0.109 C 
ATOM      3  C   UNK A   0       7.012  -5.142  22.654  0.00  0.00    +0.211 C 
ATOM      4  N   UNK A   1       7.114  -4.565  23.894  0.00  0.00    -0.304 N 
ATOM      5  H   UNK A   1       6.390  -3.926  24.206  0.00  0.00    +0.149 HD
ATOM      6  O   UNK A   0       7.702  -6.099  22.316  0.00  0.00    -0.276 OA
ENDBRANCH   1   4
BRANCH   1   7
ATOM      7  C   UNK A   1       7.364  -5.283  26.198  0.00  0.00    +0.234 C 
ATOM      8  N   GLY A   2       6.033  -4.915  26.204  0.00  0.00    -0.303 N 
ATOM      9  H   GLY A   2       5.631  -4.502  25.362  0.00  0.00    +0.149 HD
ATOM     10  O   UNK A   1       7.930  -5.690  27.209  0.00  0.00    -0.274 OA
BRANCH   8  11
ATOM     11  CA  GLY A   2       5.164  -5.259  27.330  0.00  0.00    +0.224 C 
BRANCH  11  12
ATOM     12  C   GLY A   2       4.714  -6.714  27.331  0.00  0.00    +0.322 C 
ATOM     13  OXT GLY A   2       3.795  -7.146  26.646  0.00  0.00    -0.249 OA
BRANCH  12  14
ATOM     14  O   GLY A   2       5.397  -7.492  28.205  0.00  0.00    -0.480 OA
ATOM     15  H   GLY A   2       5.187  -8.434  28.036  0.00  0.00    +0.295 HD
ENDBRANCH  12  14
ENDBRANCH  11  12
ENDBRANCH   8  11
ENDBRANCH   1   7
BRANCH   1  16
ATOM     16  C   UNK A   1       9.212  -3.980  25.110  0.00  0.00    +0.067 C 
BRANCH  16  17
ATOM     17  C   UNK A   1       8.818  -2.522  24.994  0.00  0.00    -0.043 A 
ATOM     18  C   UNK A   1       8.124  -1.836  26.001  0.00  0.00    +0.021 A 
ATOM     19  C   UNK A   1       7.879  -0.461  25.888  0.00  0.00    +0.056 A 
ATOM     20  I   UNK A   1       6.945   0.499  27.498  0.00  0.00    -0.040 I 
ATOM     21  C   UNK A   1       8.290   0.237  24.750  0.00  0.00    +0.143 A 
ATOM     22  C   UNK A   1       8.911  -0.456  23.707  0.00  0.00    +0.056 A 
ATOM     23  I   UNK A   1       9.511   0.516  21.957  0.00  0.00    -0.040 I 
ATOM     24  C   UNK A   1       9.168  -1.825  23.826  0.00  0.00    +0.021 A 
BRANCH  21  25
ATOM     25  O   UNK A   1       8.086   1.588  24.676  0.00  0.00    -0.505 OA
ATOM     26  H   UNK A   1       7.215   1.738  24.268  0.00  0.00    +0.292 HD
ENDBRANCH  21  25
ENDBRANCH  16  17
ENDBRANCH   1  16
TORSDOF 8
ENDMDL
MODEL 9
REMARK VINA RESULT:      -5.6      3.119      5.372
REMARK  Name = 
REMARK  9 active torsions:
REMARK  status: ('A' for Active; 'I' for Inactive)
REMARK    1  A    between atoms: C_1  and  C_2
REMARK    2  A    between atoms: N_4  and  C_5
REMARK    3  A    between atoms: C_5  and  C_7
REMARK    4  A    between atoms: C_5  and  C_17
REMARK    5  A    between atoms: C_7  and  C_8
REMARK    6  A    between atoms: C_12  and  O_13
REMARK    7  A    between atoms: N_19  and  CA_20
REMARK    8  A    between atoms: CA_20  and  C_21
REMARK    9  A    between atoms: C_21  and  O_22
REMARK                            x       y       z     vdW  Elec       q    Type
REMARK                         _______ _______ _______ _____ _____    ______ ____
ROOT
ATOM      1  C   UNK A   1       8.436  -0.610  24.425  0.00  0.00    +0.163 C 
ENDROOT
BRANCH   1   4
ATOM      2  C   UNK A   0      10.649   2.423  23.839  0.00  0.00    +0.109 C 
ATOM      3  C   UNK A   0       9.491   1.628  24.379  0.00  0.00    +0.211 C 
ATOM      4  N   UNK A   1       9.516   0.299  24.038  0.00  0.00    -0.304 N 
ATOM      5  H   UNK A   1      10.368  -0.100  23.659  0.00  0.00    +0.149 HD
ATOM      6  O   UNK A   0       8.596   2.114  25.065  0.00  0.00    -0.276 OA
ENDBRANCH   1   4
BRANCH   1   7
ATOM      7  C   UNK A   1       9.062  -1.988  24.705  0.00  0.00    +0.234 C 
ATOM      8  N   GLY A   2       8.669  -2.574  25.893  0.00  0.00    -0.303 N 
ATOM      9  H   GLY A   2       8.014  -2.075  26.497  0.00  0.00    +0.149 HD
ATOM     10  O   UNK A   1       9.922  -2.490  23.987  0.00  0.00    -0.274 OA
BRANCH   8  11
ATOM     11  CA  GLY A   2       9.044  -3.952  26.211  0.00  0.00    +0.224 C 
BRANCH  11  12
ATOM     12  C   GLY A   2       8.259  -4.995  25.428  0.00  0.00    +0.322 C 
ATOM     13  OXT GLY A   2       7.213  -5.499  25.817  0.00  0.00    -0.249 OA
BRANCH  12  14
ATOM     14  O   GLY A   2       8.851  -5.360  24.265  0.00  0.00    -0.480 OA
ATOM     15  H   GLY A   2       9.753  -4.982  24.226  0.00  0.00    +0.295 HD
ENDBRANCH  12  14
ENDBRANCH  11  12
ENDBRANCH   8  11
ENDBRANCH   1   7
BRANCH   1  16
ATOM     16  C   UNK A   1       7.373  -0.755  23.319  0.00  0.00    +0.067 C 
BRANCH  16  17
ATOM     17  C   UNK A   1       6.500  -1.993  23.364  0.00  0.00    -0.043 A 
ATOM     18  C   UNK A   1       6.658  -3.071  22.483  0.00  0.00    +0.021 A 
ATOM     19  C   UNK A   1       5.895  -4.236  22.639  0.00  0.00    +0.056 A 
ATOM     20  I   UNK A   1       6.289  -5.840  21.350  0.00  0.00    -0.040 I 
ATOM     21  C   UNK A   1       4.937  -4.322  23.652  0.00  0.00    +0.143 A 
ATOM     22  C   UNK A   1       4.718  -3.220  24.483  0.00  0.00    +0.056 A 
ATOM     23  I   UNK A   1       3.270  -3.261  25.990  0.00  0.00    -0.040 I 
ATOM     24  C   UNK A   1       5.490  -2.063  24.338  0.00  0.00    +0.021 A 
BRANCH  21  25
ATOM     25  O   UNK A   1       4.233  -5.483  23.820  0.00  0.00    -0.505 OA
ATOM     26  H   UNK A   1       4.465  -6.084  23.090  0.00  0.00    +0.292 HD
ENDBRANCH  21  25
ENDBRANCH  16  17
ENDBRANCH   1  16
TORSDOF 8
ENDMDL
