MODEL 1
REMARK VINA RESULT:      -5.9      0.000      0.000
REMARK  Name = 
REMARK  14 active torsions:
REMARK  status: ('A' for Active; 'I' for Inactive)
REMARK    1  A    between atoms: C_2  and  O_3
REMARK    2  A    between atoms: C_2  and  C_4
REMARK    3  A    between atoms: C_2  and  C_25
REMARK    4  A    between atoms: C_4  and  C_5
REMARK    5  A    between atoms: C_5  and  C_6
REMARK    6  A    between atoms: C_7  and  C_18
REMARK    7  A    between atoms: N_14  and  C_15
REMARK    8  A    between atoms: C_15  and  C_16
REMARK    9  A    between atoms: C_15  and  C_17
REMARK   10  A    between atoms: C_25  and  C_26
REMARK   11  A    between atoms: C_26  and  O_28
REMARK   12  A    between atoms: C_26  and  C_29
REMARK   13  A    between atoms: C_29  and  C_30
REMARK   14  A    between atoms: C_30  and  O_31
REMARK                            x       y       z     vdW  Elec       q    Type
REMARK                         _______ _______ _______ _____ _____    ______ ____
ROOT
ATOM      1  C   UNL     1       8.061   3.483  23.583  0.00  0.00    +0.028 A 
ATOM      2  N   UNL     1       8.272   4.844  23.819  0.00  0.00    -0.341 N 
ATOM      3  C   UNL     1       9.646   5.106  23.808  0.00  0.00    +0.050 A 
ATOM      4  C   UNL     1      10.358   6.316  23.963  0.00  0.00    +0.026 A 
ATOM      5  C   UNL     1      11.750   6.306  23.859  0.00  0.00    +0.002 A 
ATOM      6  C   UNL     1      12.425   5.128  23.589  0.00  0.00    +0.001 A 
ATOM      7  C   UNL     1      11.718   3.932  23.441  0.00  0.00    +0.010 A 
ATOM      8  C   UNL     1      10.307   3.903  23.572  0.00  0.00    +0.008 A 
ATOM      9  C   UNL     1       9.320   2.862  23.506  0.00  0.00    +0.011 A 
ENDROOT
BRANCH   9  10
ATOM     10  C   UNL     1       9.580   1.409  23.362  0.00  0.00    -0.015 A 
ATOM     11  C   UNL     1       9.859   0.632  24.501  0.00  0.00    +0.011 A 
ATOM     12  C   UNL     1      10.145  -0.738  24.402  0.00  0.00    +0.039 A 
ATOM     13  C   UNL     1      10.121  -1.355  23.162  0.00  0.00    +0.123 A 
ATOM     14  F   UNL     1      10.369  -2.667  23.069  0.00  0.00    -0.205 F 
ATOM     15  C   UNL     1       9.839  -0.627  22.021  0.00  0.00    +0.039 A 
ATOM     16  C   UNL     1       9.594   0.747  22.126  0.00  0.00    +0.011 A 
ENDBRANCH   9  10
BRANCH   2  17
ATOM     17  C   UNL     1       7.313   5.954  23.950  0.00  0.00    +0.081 C 
ATOM     18  C   UNL     1       6.286   5.911  25.082  0.00  0.00    +0.030 C 
ATOM     19  C   UNL     1       6.666   6.321  22.612  0.00  0.00    +0.030 C 
ENDBRANCH   2  17
BRANCH   1  20
ATOM     20  C   UNL     1       6.702   2.849  23.404  0.00  0.00    +0.056 C 
BRANCH  20  21
ATOM     21  C   UNL     1       6.270   2.146  24.701  0.00  0.00    +0.037 C 
BRANCH  21  22
ATOM     22  C   UNL     1       5.866   0.678  24.530  0.00  0.00    +0.117 C 
BRANCH  22  23
ATOM     23  O   UNL     1       6.283   0.232  23.240  0.00  0.00    -0.392 OA
ATOM     24  H   UNL     1       5.507   0.209  22.654  0.00  0.00    +0.210 HD
ENDBRANCH  22  23
BRANCH  22  25
ATOM     25  C   UNL     1       6.556  -0.219  25.575  0.00  0.00    +0.063 C 
BRANCH  25  26
ATOM     26  C   UNL     1       6.067  -1.673  25.628  0.00  0.00    +0.128 C 
BRANCH  26  27
ATOM     27  O   UNL     1       4.890  -1.839  24.823  0.00  0.00    -0.391 OA
ATOM     28  H   UNL     1       4.161  -2.113  25.409  0.00  0.00    +0.210 HD
ENDBRANCH  26  27
BRANCH  26  29
ATOM     29  C   UNL     1       7.133  -2.628  25.085  0.00  0.00    +0.151 C 
BRANCH  29  30
ATOM     30  C   UNL     1       6.752  -3.217  23.744  0.00  0.00    +0.307 C 
ATOM     31  O   UNL     1       6.874  -2.613  22.687  0.00  0.00    -0.251 OA
BRANCH  30  32
ATOM     32  O   UNL     1       6.184  -4.441  23.819  0.00  0.00    -0.481 OA
ATOM     33  H   UNL     1       5.405  -4.509  23.215  0.00  0.00    +0.295 HD
ENDBRANCH  30  32
ENDBRANCH  29  30
ENDBRANCH  26  29
ENDBRANCH  25  26
ENDBRANCH  22  25
ENDBRANCH  21  22
ENDBRANCH  20  21
ENDBRANCH   1  20
TORSDOF 12
ENDMDL
MODEL 2
REMARK VINA RESULT:      -5.7      3.234      7.762
REMARK  Name = 
REMARK  14 active torsions:
REMARK  status: ('A' for Active; 'I' for Inactive)
REMARK    1  A    between atoms: C_2  and  O_3
REMARK    2  A    between atoms: C_2  and  C_4
REMARK    3  A    between atoms: C_2  and  C_25
REMARK    4  A    between atoms: C_4  and  C_5
REMARK    5  A    between atoms: C_5  and  C_6
REMARK    6  A    between atoms: C_7  and  C_18
REMARK    7  A    between atoms: N_14  and  C_15
REMARK    8  A    between atoms: C_15  and  C_16
REMARK    9  A    between atoms: C_15  and  C_17
REMARK   10  A    between atoms: C_25  and  C_26
REMARK   11  A    between atoms: C_26  and  O_28
REMARK   12  A    between atoms: C_26  and  C_29
REMARK   13  A    between atoms: C_29  and  C_30
REMARK   14  A    between atoms: C_30  and  O_31
REMARK                            x       y       z     vdW  Elec       q    Type
REMARK                         _______ _______ _______ _____ _____    ______ ____
ROOT
ATOM      1  C   UNL     1       7.355  -3.101  25.189  0.00  0.00    +0.028 A 
ATOM      2  N   UNL     1       6.567  -4.251  25.297  0.00  0.00    -0.341 N 
ATOM      3  C   UNL     1       6.425  -4.832  24.033  0.00  0.00    +0.050 A 
ATOM      4  C   UNL     1       5.760  -6.009  23.625  0.00  0.00    +0.026 A 
ATOM      5  C   UNL     1       5.815  -6.394  22.285  0.00  0.00    +0.002 A 
ATOM      6  C   UNL     1       6.530  -5.643  21.367  0.00  0.00    +0.001 A 
ATOM      7  C   UNL     1       7.185  -4.477  21.773  0.00  0.00    +0.010 A 
ATOM      8  C   UNL     1       7.120  -4.041  23.120  0.00  0.00    +0.008 A 
ATOM      9  C   UNL     1       7.644  -2.907  23.828  0.00  0.00    +0.011 A 
ENDROOT
BRANCH   9  10
ATOM     10  C   UNL     1       8.372  -1.758  23.235  0.00  0.00    -0.015 A 
ATOM     11  C   UNL     1       9.776  -1.706  23.309  0.00  0.00    +0.011 A 
ATOM     12  C   UNL     1      10.497  -0.620  22.791  0.00  0.00    +0.039 A 
ATOM     13  C   UNL     1       9.823   0.413  22.161  0.00  0.00    +0.123 A 
ATOM     14  F   UNL     1      10.512   1.438  21.644  0.00  0.00    -0.205 F 
ATOM     15  C   UNL     1       8.444   0.391  22.058  0.00  0.00    +0.039 A 
ATOM     16  C   UNL     1       7.730  -0.678  22.613  0.00  0.00    +0.011 A 
ENDBRANCH   9  10
BRANCH   2  17
ATOM     17  C   UNL     1       6.016  -4.927  26.483  0.00  0.00    +0.081 C 
ATOM     18  C   UNL     1       4.981  -4.192  27.337  0.00  0.00    +0.030 C 
ATOM     19  C   UNL     1       7.107  -5.569  27.343  0.00  0.00    +0.030 C 
ENDBRANCH   2  17
BRANCH   1  20
ATOM     20  C   UNL     1       7.823  -2.276  26.364  0.00  0.00    +0.056 C 
BRANCH  20  21
ATOM     21  C   UNL     1       6.983  -0.993  26.480  0.00  0.00    +0.037 C 
BRANCH  21  22
ATOM     22  C   UNL     1       7.797   0.304  26.529  0.00  0.00    +0.117 C 
BRANCH  22  23
ATOM     23  O   UNL     1       9.173  -0.006  26.304  0.00  0.00    -0.392 OA
ATOM     24  H   UNL     1       9.657   0.824  26.154  0.00  0.00    +0.210 HD
ENDBRANCH  22  23
BRANCH  22  25
ATOM     25  C   UNL     1       7.358   1.284  25.424  0.00  0.00    +0.063 C 
BRANCH  25  26
ATOM     26  C   UNL     1       8.120   2.616  25.377  0.00  0.00    +0.128 C 
BRANCH  26  27
ATOM     27  O   UNL     1       9.443   2.422  24.853  0.00  0.00    -0.391 OA
ATOM     28  H   UNL     1      10.080   2.727  25.524  0.00  0.00    +0.210 HD
ENDBRANCH  26  27
BRANCH  26  29
ATOM     29  C   UNL     1       7.409   3.620  24.467  0.00  0.00    +0.151 C 
BRANCH  29  30
ATOM     30  C   UNL     1       8.351   4.278  23.483  0.00  0.00    +0.307 C 
ATOM     31  O   UNL     1       9.029   5.259  23.757  0.00  0.00    -0.251 OA
BRANCH  30  32
ATOM     32  O   UNL     1       8.320   3.743  22.243  0.00  0.00    -0.481 OA
ATOM     33  H   UNL     1       8.703   4.363  21.577  0.00  0.00    +0.295 HD
ENDBRANCH  30  32
ENDBRANCH  29  30
ENDBRANCH  26  29
ENDBRANCH  25  26
ENDBRANCH  22  25
ENDBRANCH  21  22
ENDBRANCH  20  21
ENDBRANCH   1  20
TORSDOF 12
ENDMDL
MODEL 3
REMARK VINA RESULT:      -5.6      1.601      2.252
REMARK  Name = 
REMARK  14 active torsions:
REMARK  status: ('A' for Active; 'I' for Inactive)
REMARK    1  A    between atoms: C_2  and  O_3
REMARK    2  A    between atoms: C_2  and  C_4
REMARK    3  A    between atoms: C_2  and  C_25
REMARK    4  A    between atoms: C_4  and  C_5
REMARK    5  A    between atoms: C_5  and  C_6
REMARK    6  A    between atoms: C_7  and  C_18
REMARK    7  A    between atoms: N_14  and  C_15
REMARK    8  A    between atoms: C_15  and  C_16
REMARK    9  A    between atoms: C_15  and  C_17
REMARK   10  A    between atoms: C_25  and  C_26
REMARK   11  A    between atoms: C_26  and  O_28
REMARK   12  A    between atoms: C_26  and  C_29
REMARK   13  A    between atoms: C_29  and  C_30
REMARK   14  A    between atoms: C_30  and  O_31
REMARK                            x       y       z     vdW  Elec       q    Type
REMARK                         _______ _______ _______ _____ _____    ______ ____
ROOT
ATOM      1  C   UNL     1       7.655   2.804  25.800  0.00  0.00    +0.028 A 
ATOM      2  N   UNL     1       7.506   4.097  26.308  0.00  0.00    -0.341 N 
ATOM      3  C   UNL     1       8.348   4.968  25.609  0.00  0.00    +0.050 A 
ATOM      4  C   UNL     1       8.536   6.363  25.723  0.00  0.00    +0.026 A 
ATOM      5  C   UNL     1       9.419   7.005  24.852  0.00  0.00    +0.002 A 
ATOM      6  C   UNL     1      10.089   6.287  23.876  0.00  0.00    +0.001 A 
ATOM      7  C   UNL     1       9.903   4.906  23.769  0.00  0.00    +0.010 A 
ATOM      8  C   UNL     1       9.039   4.220  24.658  0.00  0.00    +0.008 A 
ATOM      9  C   UNL     1       8.665   2.843  24.823  0.00  0.00    +0.011 A 
ENDROOT
BRANCH   9  10
ATOM     10  C   UNL     1       9.226   1.684  24.086  0.00  0.00    -0.015 A 
ATOM     11  C   UNL     1       8.875   1.476  22.740  0.00  0.00    +0.011 A 
ATOM     12  C   UNL     1       9.357   0.373  22.019  0.00  0.00    +0.039 A 
ATOM     13  C   UNL     1      10.225  -0.519  22.629  0.00  0.00    +0.123 A 
ATOM     14  F   UNL     1      10.705  -1.558  21.935  0.00  0.00    -0.205 F 
ATOM     15  C   UNL     1      10.601  -0.340  23.947  0.00  0.00    +0.039 A 
ATOM     16  C   UNL     1      10.084   0.742  24.670  0.00  0.00    +0.011 A 
ENDBRANCH   9  10
BRANCH   2  17
ATOM     17  C   UNL     1       6.574   4.628  27.318  0.00  0.00    +0.081 C 
ATOM     18  C   UNL     1       6.638   4.077  28.743  0.00  0.00    +0.030 C 
ATOM     19  C   UNL     1       5.135   4.695  26.800  0.00  0.00    +0.030 C 
ENDBRANCH   2  17
BRANCH   1  20
ATOM     20  C   UNL     1       6.821   1.619  26.225  0.00  0.00    +0.056 C 
BRANCH  20  21
ATOM     21  C   UNL     1       5.863   1.212  25.093  0.00  0.00    +0.037 C 
BRANCH  21  22
ATOM     22  C   UNL     1       5.887  -0.277  24.737  0.00  0.00    +0.117 C 
BRANCH  22  23
ATOM     23  O   UNL     1       6.139  -0.414  23.338  0.00  0.00    -0.392 OA
ATOM     24  H   UNL     1       5.290  -0.545  22.882  0.00  0.00    +0.210 HD
ENDBRANCH  22  23
BRANCH  22  25
ATOM     25  C   UNL     1       7.016  -1.014  25.484  0.00  0.00    +0.063 C 
BRANCH  25  26
ATOM     26  C   UNL     1       7.008  -2.544  25.355  0.00  0.00    +0.128 C 
BRANCH  26  27
ATOM     27  O   UNL     1       5.828  -2.986  24.668  0.00  0.00    -0.391 OA
ATOM     28  H   UNL     1       5.342  -2.197  24.367  0.00  0.00    +0.210 HD
ENDBRANCH  26  27
BRANCH  26  29
ATOM     29  C   UNL     1       8.217  -3.030  24.552  0.00  0.00    +0.151 C 
BRANCH  29  30
ATOM     30  C   UNL     1       7.832  -3.533  23.177  0.00  0.00    +0.307 C 
ATOM     31  O   UNL     1       7.589  -2.793  22.235  0.00  0.00    -0.251 OA
BRANCH  30  32
ATOM     32  O   UNL     1       7.696  -4.875  23.098  0.00  0.00    -0.481 OA
ATOM     33  H   UNL     1       6.877  -5.122  22.604  0.00  0.00    +0.295 HD
ENDBRANCH  30  32
ENDBRANCH  29  30
ENDBRANCH  26  29
ENDBRANCH  25  26
ENDBRANCH  22  25
ENDBRANCH  21  22
ENDBRANCH  20  21
ENDBRANCH   1  20
TORSDOF 12
ENDMDL
MODEL 4
REMARK VINA RESULT:      -5.6      3.242      7.000
REMARK  Name = 
REMARK  14 active torsions:
REMARK  status: ('A' for Active; 'I' for Inactive)
REMARK    1  A    between atoms: C_2  and  O_3
REMARK    2  A    between atoms: C_2  and  C_4
REMARK    3  A    between atoms: C_2  and  C_25
REMARK    4  A    between atoms: C_4  and  C_5
REMARK    5  A    between atoms: C_5  and  C_6
REMARK    6  A    between atoms: C_7  and  C_18
REMARK    7  A    between atoms: N_14  and  C_15
REMARK    8  A    between atoms: C_15  and  C_16
REMARK    9  A    between atoms: C_15  and  C_17
REMARK   10  A    between atoms: C_25  and  C_26
REMARK   11  A    between atoms: C_26  and  O_28
REMARK   12  A    between atoms: C_26  and  C_29
REMARK   13  A    between atoms: C_29  and  C_30
REMARK   14  A    between atoms: C_30  and  O_31
REMARK                            x       y       z     vdW  Elec       q    Type
REMARK                         _______ _______ _______ _____ _____    ______ ____
ROOT
ATOM      1  C   UNL     1       6.570  -1.450  25.043  0.00  0.00    +0.028 A 
ATOM      2  N   UNL     1       6.193  -2.671  25.609  0.00  0.00    -0.341 N 
ATOM      3  C   UNL     1       7.259  -3.571  25.518  0.00  0.00    +0.050 A 
ATOM      4  C   UNL     1       7.386  -4.903  25.969  0.00  0.00    +0.026 A 
ATOM      5  C   UNL     1       8.599  -5.571  25.791  0.00  0.00    +0.002 A 
ATOM      6  C   UNL     1       9.673  -4.929  25.196  0.00  0.00    +0.001 A 
ATOM      7  C   UNL     1       9.543  -3.612  24.748  0.00  0.00    +0.010 A 
ATOM      8  C   UNL     1       8.314  -2.918  24.885  0.00  0.00    +0.008 A 
ATOM      9  C   UNL     1       7.862  -1.606  24.514  0.00  0.00    +0.011 A 
ENDROOT
BRANCH   9  10
ATOM     10  C   UNL     1       8.625  -0.599  23.736  0.00  0.00    -0.015 A 
ATOM     11  C   UNL     1       9.639   0.148  24.363  0.00  0.00    +0.011 A 
ATOM     12  C   UNL     1      10.359   1.133  23.670  0.00  0.00    +0.039 A 
ATOM     13  C   UNL     1      10.095   1.358  22.328  0.00  0.00    +0.123 A 
ATOM     14  F   UNL     1      10.799   2.280  21.660  0.00  0.00    -0.205 F 
ATOM     15  C   UNL     1       9.115   0.635  21.675  0.00  0.00    +0.039 A 
ATOM     16  C   UNL     1       8.375  -0.318  22.385  0.00  0.00    +0.011 A 
ENDBRANCH   9  10
BRANCH   2  17
ATOM     17  C   UNL     1       4.965  -3.056  26.326  0.00  0.00    +0.081 C 
ATOM     18  C   UNL     1       3.631  -3.010  25.580  0.00  0.00    +0.030 C 
ATOM     19  C   UNL     1       4.867  -2.395  27.704  0.00  0.00    +0.030 C 
ENDBRANCH   2  17
BRANCH   1  20
ATOM     20  C   UNL     1       5.722  -0.201  25.066  0.00  0.00    +0.056 C 
BRANCH  20  21
ATOM     21  C   UNL     1       6.215   0.755  26.165  0.00  0.00    +0.037 C 
BRANCH  21  22
ATOM     22  C   UNL     1       6.503   2.182  25.691  0.00  0.00    +0.117 C 
BRANCH  22  23
ATOM     23  O   UNL     1       7.833   2.535  26.072  0.00  0.00    -0.392 OA
ATOM     24  H   UNL     1       8.367   1.724  26.122  0.00  0.00    +0.210 HD
ENDBRANCH  22  23
BRANCH  22  25
ATOM     25  C   UNL     1       6.418   2.292  24.156  0.00  0.00    +0.063 C 
BRANCH  25  26
ATOM     26  C   UNL     1       6.425   3.719  23.591  0.00  0.00    +0.128 C 
BRANCH  26  27
ATOM     27  O   UNL     1       6.472   4.682  24.655  0.00  0.00    -0.391 OA
ATOM     28  H   UNL     1       6.262   5.556  24.278  0.00  0.00    +0.210 HD
ENDBRANCH  26  27
BRANCH  26  29
ATOM     29  C   UNL     1       7.653   3.950  22.708  0.00  0.00    +0.151 C 
BRANCH  29  30
ATOM     30  C   UNL     1       8.711   4.786  23.396  0.00  0.00    +0.307 C 
ATOM     31  O   UNL     1       9.339   4.403  24.373  0.00  0.00    -0.251 OA
BRANCH  30  32
ATOM     32  O   UNL     1       8.846   6.032  22.891  0.00  0.00    -0.481 OA
ATOM     33  H   UNL     1       8.558   6.714  23.544  0.00  0.00    +0.295 HD
ENDBRANCH  30  32
ENDBRANCH  29  30
ENDBRANCH  26  29
ENDBRANCH  25  26
ENDBRANCH  22  25
ENDBRANCH  21  22
ENDBRANCH  20  21
ENDBRANCH   1  20
TORSDOF 12
ENDMDL
MODEL 5
REMARK VINA RESULT:      -5.5      3.427      8.250
REMARK  Name = 
REMARK  14 active torsions:
REMARK  status: ('A' for Active; 'I' for Inactive)
REMARK    1  A    between atoms: C_2  and  O_3
REMARK    2  A    between atoms: C_2  and  C_4
REMARK    3  A    between atoms: C_2  and  C_25
REMARK    4  A    between atoms: C_4  and  C_5
REMARK    5  A    between atoms: C_5  and  C_6
REMARK    6  A    between atoms: C_7  and  C_18
REMARK    7  A    between atoms: N_14  and  C_15
REMARK    8  A    between atoms: C_15  and  C_16
REMARK    9  A    between atoms: C_15  and  C_17
REMARK   10  A    between atoms: C_25  and  C_26
REMARK   11  A    between atoms: C_26  and  O_28
REMARK   12  A    between atoms: C_26  and  C_29
REMARK   13  A    between atoms: C_29  and  C_30
REMARK   14  A    between atoms: C_30  and  O_31
REMARK                            x       y       z     vdW  Elec       q    Type
REMARK                         _______ _______ _______ _____ _____    ______ ____
ROOT
ATOM      1  C   UNL     1       6.663  -2.930  23.298  0.00  0.00    +0.028 A 
ATOM      2  N   UNL     1       6.019  -4.165  23.176  0.00  0.00    -0.341 N 
ATOM      3  C   UNL     1       4.924  -4.201  24.045  0.00  0.00    +0.050 A 
ATOM      4  C   UNL     1       3.952  -5.201  24.267  0.00  0.00    +0.026 A 
ATOM      5  C   UNL     1       2.918  -4.958  25.173  0.00  0.00    +0.002 A 
ATOM      6  C   UNL     1       2.835  -3.745  25.834  0.00  0.00    +0.001 A 
ATOM      7  C   UNL     1       3.801  -2.759  25.616  0.00  0.00    +0.010 A 
ATOM      8  C   UNL     1       4.881  -2.987  24.726  0.00  0.00    +0.008 A 
ATOM      9  C   UNL     1       6.018  -2.211  24.317  0.00  0.00    +0.011 A 
ENDROOT
BRANCH   9  10
ATOM     10  C   UNL     1       6.421  -0.888  24.856  0.00  0.00    -0.015 A 
ATOM     11  C   UNL     1       7.183  -0.817  26.036  0.00  0.00    +0.011 A 
ATOM     12  C   UNL     1       7.554   0.416  26.595  0.00  0.00    +0.039 A 
ATOM     13  C   UNL     1       7.195   1.593  25.959  0.00  0.00    +0.123 A 
ATOM     14  F   UNL     1       7.571   2.768  26.478  0.00  0.00    -0.205 F 
ATOM     15  C   UNL     1       6.457   1.562  24.791  0.00  0.00    +0.039 A 
ATOM     16  C   UNL     1       6.058   0.329  24.262  0.00  0.00    +0.011 A 
ENDBRANCH   9  10
BRANCH   2  17
ATOM     17  C   UNL     1       6.259  -5.283  22.248  0.00  0.00    +0.081 C 
ATOM     18  C   UNL     1       7.525  -6.124  22.418  0.00  0.00    +0.030 C 
ATOM     19  C   UNL     1       6.036  -4.882  20.787  0.00  0.00    +0.030 C 
ENDBRANCH   2  17
BRANCH   1  20
ATOM     20  C   UNL     1       7.815  -2.481  22.431  0.00  0.00    +0.056 C 
BRANCH  20  21
ATOM     21  C   UNL     1       9.105  -2.399  23.263  0.00  0.00    +0.037 C 
BRANCH  21  22
ATOM     22  C   UNL     1      10.068  -1.283  22.845  0.00  0.00    +0.117 C 
BRANCH  22  23
ATOM     23  O   UNL     1      10.594  -1.588  21.553  0.00  0.00    -0.392 OA
ATOM     24  H   UNL     1       9.879  -1.499  20.899  0.00  0.00    +0.210 HD
ENDBRANCH  22  23
BRANCH  22  25
ATOM     25  C   UNL     1       9.344   0.073  22.742  0.00  0.00    +0.063 C 
BRANCH  25  26
ATOM     26  C   UNL     1      10.254   1.302  22.601  0.00  0.00    +0.128 C 
BRANCH  26  27
ATOM     27  O   UNL     1       9.841   2.111  21.490  0.00  0.00    -0.391 OA
ATOM     28  H   UNL     1       9.188   1.602  20.975  0.00  0.00    +0.210 HD
ENDBRANCH  26  27
BRANCH  26  29
ATOM     29  C   UNL     1      10.186   2.177  23.855  0.00  0.00    +0.151 C 
BRANCH  29  30
ATOM     30  C   UNL     1       9.754   3.594  23.549  0.00  0.00    +0.307 C 
ATOM     31  O   UNL     1       8.582   3.932  23.448  0.00  0.00    -0.251 OA
BRANCH  30  32
ATOM     32  O   UNL     1      10.776   4.445  23.311  0.00  0.00    -0.481 OA
ATOM     33  H   UNL     1      10.473   5.231  22.796  0.00  0.00    +0.295 HD
ENDBRANCH  30  32
ENDBRANCH  29  30
ENDBRANCH  26  29
ENDBRANCH  25  26
ENDBRANCH  22  25
ENDBRANCH  21  22
ENDBRANCH  20  21
ENDBRANCH   1  20
TORSDOF 12
ENDMDL
MODEL 6
REMARK VINA RESULT:      -5.5      3.295      7.938
REMARK  Name = 
REMARK  14 active torsions:
REMARK  status: ('A' for Active; 'I' for Inactive)
REMARK    1  A    between atoms: C_2  and  O_3
REMARK    2  A    between atoms: C_2  and  C_4
REMARK    3  A    between atoms: C_2  and  C_25
REMARK    4  A    between atoms: C_4  and  C_5
REMARK    5  A    between atoms: C_5  and  C_6
REMARK    6  A    between atoms: C_7  and  C_18
REMARK    7  A    between atoms: N_14  and  C_15
REMARK    8  A    between atoms: C_15  and  C_16
REMARK    9  A    between atoms: C_15  and  C_17
REMARK   10  A    between atoms: C_25  and  C_26
REMARK   11  A    between atoms: C_26  and  O_28
REMARK   12  A    between atoms: C_26  and  C_29
REMARK   13  A    between atoms: C_29  and  C_30
REMARK   14  A    between atoms: C_30  and  O_31
REMARK                            x       y       z     vdW  Elec       q    Type
REMARK                         _______ _______ _______ _____ _____    ______ ____
ROOT
ATOM      1  C   UNL     1       7.325  -2.286  24.766  0.00  0.00    +0.028 A 
ATOM      2  N   UNL     1       7.033  -3.493  25.408  0.00  0.00    -0.341 N 
ATOM      3  C   UNL     1       6.148  -3.252  26.463  0.00  0.00    +0.050 A 
ATOM      4  C   UNL     1       5.537  -4.136  27.379  0.00  0.00    +0.026 A 
ATOM      5  C   UNL     1       4.639  -3.630  28.321  0.00  0.00    +0.002 A 
ATOM      6  C   UNL     1       4.335  -2.280  28.345  0.00  0.00    +0.001 A 
ATOM      7  C   UNL     1       4.944  -1.406  27.440  0.00  0.00    +0.010 A 
ATOM      8  C   UNL     1       5.884  -1.884  26.494  0.00  0.00    +0.008 A 
ATOM      9  C   UNL     1       6.682  -1.259  25.476  0.00  0.00    +0.011 A 
ENDROOT
BRANCH   9  10
ATOM     10  C   UNL     1       6.789   0.198  25.212  0.00  0.00    -0.015 A 
ATOM     11  C   UNL     1       6.086   0.766  24.135  0.00  0.00    +0.011 A 
ATOM     12  C   UNL     1       6.189   2.133  23.832  0.00  0.00    +0.039 A 
ATOM     13  C   UNL     1       6.972   2.954  24.628  0.00  0.00    +0.123 A 
ATOM     14  F   UNL     1       7.050   4.262  24.355  0.00  0.00    -0.205 F 
ATOM     15  C   UNL     1       7.667   2.433  25.703  0.00  0.00    +0.039 A 
ATOM     16  C   UNL     1       7.590   1.062  25.973  0.00  0.00    +0.011 A 
ENDBRANCH   9  10
BRANCH   2  17
ATOM     17  C   UNL     1       7.417  -4.875  25.072  0.00  0.00    +0.081 C 
ATOM     18  C   UNL     1       8.885  -5.284  25.194  0.00  0.00    +0.030 C 
ATOM     19  C   UNL     1       6.808  -5.338  23.745  0.00  0.00    +0.030 C 
ENDBRANCH   2  17
BRANCH   1  20
ATOM     20  C   UNL     1       8.151  -2.169  23.508  0.00  0.00    +0.056 C 
BRANCH  20  21
ATOM     21  C   UNL     1       9.597  -1.778  23.857  0.00  0.00    +0.037 C 
BRANCH  21  22
ATOM     22  C   UNL     1      10.275  -0.854  22.841  0.00  0.00    +0.117 C 
BRANCH  22  23
ATOM     23  O   UNL     1      10.574  -1.603  21.663  0.00  0.00    -0.392 OA
ATOM     24  H   UNL     1      11.535  -1.579  21.516  0.00  0.00    +0.210 HD
ENDBRANCH  22  23
BRANCH  22  25
ATOM     25  C   UNL     1       9.345   0.304  22.428  0.00  0.00    +0.063 C 
BRANCH  25  26
ATOM     26  C   UNL     1      10.033   1.656  22.196  0.00  0.00    +0.128 C 
BRANCH  26  27
ATOM     27  O   UNL     1       9.123   2.587  21.589  0.00  0.00    -0.391 OA
ATOM     28  H   UNL     1       9.216   3.441  22.049  0.00  0.00    +0.210 HD
ENDBRANCH  26  27
BRANCH  26  29
ATOM     29  C   UNL     1      10.499   2.267  23.520  0.00  0.00    +0.151 C 
BRANCH  29  30
ATOM     30  C   UNL     1      10.931   3.709  23.372  0.00  0.00    +0.307 C 
ATOM     31  O   UNL     1      12.102   4.061  23.356  0.00  0.00    -0.251 OA
BRANCH  30  32
ATOM     32  O   UNL     1       9.909   4.593  23.344  0.00  0.00    -0.481 OA
ATOM     33  H   UNL     1       9.655   4.815  22.416  0.00  0.00    +0.295 HD
ENDBRANCH  30  32
ENDBRANCH  29  30
ENDBRANCH  26  29
ENDBRANCH  25  26
ENDBRANCH  22  25
ENDBRANCH  21  22
ENDBRANCH  20  21
ENDBRANCH   1  20
TORSDOF 12
ENDMDL
MODEL 7
REMARK VINA RESULT:      -5.4      2.977      5.112
REMARK  Name = 
REMARK  14 active torsions:
REMARK  status: ('A' for Active; 'I' for Inactive)
REMARK    1  A    between atoms: C_2  and  O_3
REMARK    2  A    between atoms: C_2  and  C_4
REMARK    3  A    between atoms: C_2  and  C_25
REMARK    4  A    between atoms: C_4  and  C_5
REMARK    5  A    between atoms: C_5  and  C_6
REMARK    6  A    between atoms: C_7  and  C_18
REMARK    7  A    between atoms: N_14  and  C_15
REMARK    8  A    between atoms: C_15  and  C_16
REMARK    9  A    between atoms: C_15  and  C_17
REMARK   10  A    between atoms: C_25  and  C_26
REMARK   11  A    between atoms: C_26  and  O_28
REMARK   12  A    between atoms: C_26  and  C_29
REMARK   13  A    between atoms: C_29  and  C_30
REMARK   14  A    between atoms: C_30  and  O_31
REMARK                            x       y       z     vdW  Elec       q    Type
REMARK                         _______ _______ _______ _____ _____    ______ ____
ROOT
ATOM      1  C   UNL     1       7.756   1.572  23.416  0.00  0.00    +0.028 A 
ATOM      2  N   UNL     1       9.128   1.826  23.331  0.00  0.00    -0.341 N 
ATOM      3  C   UNL     1       9.356   3.195  23.499  0.00  0.00    +0.050 A 
ATOM      4  C   UNL     1      10.557   3.937  23.529  0.00  0.00    +0.026 A 
ATOM      5  C   UNL     1      10.504   5.312  23.765  0.00  0.00    +0.002 A 
ATOM      6  C   UNL     1       9.290   5.940  23.986  0.00  0.00    +0.001 A 
ATOM      7  C   UNL     1       8.103   5.204  23.953  0.00  0.00    +0.010 A 
ATOM      8  C   UNL     1       8.120   3.812  23.683  0.00  0.00    +0.008 A 
ATOM      9  C   UNL     1       7.102   2.807  23.556  0.00  0.00    +0.011 A 
ENDROOT
BRANCH   9  10
ATOM     10  C   UNL     1       5.635   3.031  23.587  0.00  0.00    -0.015 A 
ATOM     11  C   UNL     1       4.941   3.284  22.390  0.00  0.00    +0.011 A 
ATOM     12  C   UNL     1       3.560   3.534  22.382  0.00  0.00    +0.039 A 
ATOM     13  C   UNL     1       2.851   3.500  23.572  0.00  0.00    +0.123 A 
ATOM     14  F   UNL     1       1.530   3.714  23.562  0.00  0.00    -0.205 F 
ATOM     15  C   UNL     1       3.497   3.243  24.767  0.00  0.00    +0.039 A 
ATOM     16  C   UNL     1       4.881   3.033  24.769  0.00  0.00    +0.011 A 
ENDBRANCH   9  10
BRANCH   2  17
ATOM     17  C   UNL     1      10.268   0.900  23.213  0.00  0.00    +0.081 C 
ATOM     18  C   UNL     1      10.211  -0.211  22.164  0.00  0.00    +0.030 C 
ATOM     19  C   UNL     1      10.728   0.372  24.575  0.00  0.00    +0.030 C 
ENDBRANCH   2  17
BRANCH   1  20
ATOM     20  C   UNL     1       7.142   0.192  23.403  0.00  0.00    +0.056 C 
BRANCH  20  21
ATOM     21  C   UNL     1       6.983  -0.330  24.841  0.00  0.00    +0.037 C 
BRANCH  21  22
ATOM     22  C   UNL     1       7.702  -1.653  25.125  0.00  0.00    +0.117 C 
BRANCH  22  23
ATOM     23  O   UNL     1       7.233  -2.175  26.368  0.00  0.00    -0.392 OA
ATOM     24  H   UNL     1       6.315  -1.882  26.501  0.00  0.00    +0.210 HD
ENDBRANCH  22  23
BRANCH  22  25
ATOM     25  C   UNL     1       7.396  -2.702  24.039  0.00  0.00    +0.063 C 
BRANCH  25  26
ATOM     26  C   UNL     1       8.526  -3.698  23.741  0.00  0.00    +0.128 C 
BRANCH  26  27
ATOM     27  O   UNL     1       9.802  -3.124  24.065  0.00  0.00    -0.391 OA
ATOM     28  H   UNL     1      10.483  -3.805  23.919  0.00  0.00    +0.210 HD
ENDBRANCH  26  27
BRANCH  26  29
ATOM     29  C   UNL     1       8.368  -4.969  24.579  0.00  0.00    +0.151 C 
BRANCH  29  30
ATOM     30  C   UNL     1       9.308  -5.000  25.765  0.00  0.00    +0.307 C 
ATOM     31  O   UNL     1       9.049  -4.479  26.841  0.00  0.00    -0.251 OA
BRANCH  30  32
ATOM     32  O   UNL     1      10.501  -5.581  25.510  0.00  0.00    -0.481 OA
ATOM     33  H   UNL     1      11.173  -4.911  25.239  0.00  0.00    +0.295 HD
ENDBRANCH  30  32
ENDBRANCH  29  30
ENDBRANCH  26  29
ENDBRANCH  25  26
ENDBRANCH  22  25
ENDBRANCH  21  22
ENDBRANCH  20  21
ENDBRANCH   1  20
TORSDOF 12
ENDMDL
MODEL 8
REMARK VINA RESULT:      -5.3      3.006      4.993
REMARK  Name = 
REMARK  14 active torsions:
REMARK  status: ('A' for Active; 'I' for Inactive)
REMARK    1  A    between atoms: C_2  and  O_3
REMARK    2  A    between atoms: C_2  and  C_4
REMARK    3  A    between atoms: C_2  and  C_25
REMARK    4  A    between atoms: C_4  and  C_5
REMARK    5  A    between atoms: C_5  and  C_6
REMARK    6  A    between atoms: C_7  and  C_18
REMARK    7  A    between atoms: N_14  and  C_15
REMARK    8  A    between atoms: C_15  and  C_16
REMARK    9  A    between atoms: C_15  and  C_17
REMARK   10  A    between atoms: C_25  and  C_26
REMARK   11  A    between atoms: C_26  and  O_28
REMARK   12  A    between atoms: C_26  and  C_29
REMARK   13  A    between atoms: C_29  and  C_30
REMARK   14  A    between atoms: C_30  and  O_31
REMARK                            x       y       z     vdW  Elec       q    Type
REMARK                         _______ _______ _______ _____ _____    ______ ____
ROOT
ATOM      1  C   UNL     1       8.209   2.299  24.020  0.00  0.00    +0.028 A 
ATOM      2  N   UNL     1       9.516   2.346  23.529  0.00  0.00    -0.341 N 
ATOM      3  C   UNL     1      10.030   3.634  23.706  0.00  0.00    +0.050 A 
ATOM      4  C   UNL     1      11.301   4.173  23.408  0.00  0.00    +0.026 A 
ATOM      5  C   UNL     1      11.573   5.501  23.737  0.00  0.00    +0.002 A 
ATOM      6  C   UNL     1      10.616   6.279  24.367  0.00  0.00    +0.001 A 
ATOM      7  C   UNL     1       9.358   5.745  24.657  0.00  0.00    +0.010 A 
ATOM      8  C   UNL     1       9.039   4.409  24.306  0.00  0.00    +0.008 A 
ATOM      9  C   UNL     1       7.863   3.596  24.437  0.00  0.00    +0.011 A 
ENDROOT
BRANCH   9  10
ATOM     10  C   UNL     1       6.538   4.038  24.938  0.00  0.00    -0.015 A 
ATOM     11  C   UNL     1       6.290   4.071  26.322  0.00  0.00    +0.011 A 
ATOM     12  C   UNL     1       5.039   4.450  26.833  0.00  0.00    +0.039 A 
ATOM     13  C   UNL     1       4.031   4.835  25.964  0.00  0.00    +0.123 A 
ATOM     14  F   UNL     1       2.846   5.221  26.452  0.00  0.00    -0.205 F 
ATOM     15  C   UNL     1       4.243   4.827  24.598  0.00  0.00    +0.039 A 
ATOM     16  C   UNL     1       5.481   4.409  24.095  0.00  0.00    +0.011 A 
ENDBRANCH   9  10
BRANCH   2  17
ATOM     17  C   UNL     1      10.380   1.276  23.001  0.00  0.00    +0.081 C 
ATOM     18  C   UNL     1       9.812   0.318  21.954  0.00  0.00    +0.030 C 
ATOM     19  C   UNL     1      11.119   0.527  24.114  0.00  0.00    +0.030 C 
ENDBRANCH   2  17
BRANCH   1  20
ATOM     20  C   UNL     1       7.376   1.042  24.109  0.00  0.00    +0.056 C 
BRANCH  20  21
ATOM     21  C   UNL     1       7.624   0.337  25.453  0.00  0.00    +0.037 C 
BRANCH  21  22
ATOM     22  C   UNL     1       8.440  -0.956  25.357  0.00  0.00    +0.117 C 
BRANCH  22  23
ATOM     23  O   UNL     1       8.631  -1.480  26.671  0.00  0.00    -0.392 OA
ATOM     24  H   UNL     1       9.571  -1.702  26.783  0.00  0.00    +0.210 HD
ENDBRANCH  22  23
BRANCH  22  25
ATOM     25  C   UNL     1       7.699  -2.028  24.535  0.00  0.00    +0.063 C 
BRANCH  25  26
ATOM     26  C   UNL     1       8.587  -3.098  23.885  0.00  0.00    +0.128 C 
BRANCH  26  27
ATOM     27  O   UNL     1       9.974  -2.823  24.137  0.00  0.00    -0.391 OA
ATOM     28  H   UNL     1      10.232  -2.059  23.589  0.00  0.00    +0.210 HD
ENDBRANCH  26  27
BRANCH  26  29
ATOM     29  C   UNL     1       8.282  -4.483  24.460  0.00  0.00    +0.151 C 
BRANCH  29  30
ATOM     30  C   UNL     1       9.211  -4.855  25.596  0.00  0.00    +0.307 C 
ATOM     31  O   UNL     1       9.110  -4.394  26.725  0.00  0.00    -0.251 OA
BRANCH  30  32
ATOM     32  O   UNL     1      10.221  -5.678  25.237  0.00  0.00    -0.481 OA
ATOM     33  H   UNL     1       9.878  -6.489  24.790  0.00  0.00    +0.295 HD
ENDBRANCH  30  32
ENDBRANCH  29  30
ENDBRANCH  26  29
ENDBRANCH  25  26
ENDBRANCH  22  25
ENDBRANCH  21  22
ENDBRANCH  20  21
ENDBRANCH   1  20
TORSDOF 12
ENDMDL
MODEL 9
REMARK VINA RESULT:      -4.8      2.631      5.203
REMARK  Name = 
REMARK  14 active torsions:
REMARK  status: ('A' for Active; 'I' for Inactive)
REMARK    1  A    between atoms: C_2  and  O_3
REMARK    2  A    between atoms: C_2  and  C_4
REMARK    3  A    between atoms: C_2  and  C_25
REMARK    4  A    between atoms: C_4  and  C_5
REMARK    5  A    between atoms: C_5  and  C_6
REMARK    6  A    between atoms: C_7  and  C_18
REMARK    7  A    between atoms: N_14  and  C_15
REMARK    8  A    between atoms: C_15  and  C_16
REMARK    9  A    between atoms: C_15  and  C_17
REMARK   10  A    between atoms: C_25  and  C_26
REMARK   11  A    between atoms: C_26  and  O_28
REMARK   12  A    between atoms: C_26  and  C_29
REMARK   13  A    between atoms: C_29  and  C_30
REMARK   14  A    between atoms: C_30  and  O_31
REMARK                            x       y       z     vdW  Elec       q    Type
REMARK                         _______ _______ _______ _____ _____    ______ ____
ROOT
ATOM      1  C   UNL     1       8.039   0.579  24.347  0.00  0.00    +0.028 A 
ATOM      2  N   UNL     1       8.204   1.705  23.535  0.00  0.00    -0.341 N 
ATOM      3  C   UNL     1       6.984   2.379  23.428  0.00  0.00    +0.050 A 
ATOM      4  C   UNL     1       6.643   3.573  22.756  0.00  0.00    +0.026 A 
ATOM      5  C   UNL     1       5.339   4.062  22.852  0.00  0.00    +0.002 A 
ATOM      6  C   UNL     1       4.394   3.394  23.613  0.00  0.00    +0.001 A 
ATOM      7  C   UNL     1       4.733   2.211  24.274  0.00  0.00    +0.010 A 
ATOM      8  C   UNL     1       6.040   1.672  24.169  0.00  0.00    +0.008 A 
ATOM      9  C   UNL     1       6.679   0.495  24.688  0.00  0.00    +0.011 A 
ENDROOT
BRANCH   9  10
ATOM     10  C   UNL     1       6.027  -0.594  25.458  0.00  0.00    -0.015 A 
ATOM     11  C   UNL     1       5.454  -1.684  24.778  0.00  0.00    +0.011 A 
ATOM     12  C   UNL     1       4.799  -2.715  25.469  0.00  0.00    +0.039 A 
ATOM     13  C   UNL     1       4.740  -2.684  26.853  0.00  0.00    +0.123 A 
ATOM     14  F   UNL     1       4.138  -3.680  27.514  0.00  0.00    -0.205 F 
ATOM     15  C   UNL     1       5.303  -1.635  27.555  0.00  0.00    +0.039 A 
ATOM     16  C   UNL     1       5.920  -0.591  26.856  0.00  0.00    +0.011 A 
ENDBRANCH   9  10
BRANCH   2  17
ATOM     17  C   UNL     1       9.418   2.279  22.929  0.00  0.00    +0.081 C 
ATOM     18  C   UNL     1      10.099   1.526  21.786  0.00  0.00    +0.030 C 
ATOM     19  C   UNL     1      10.427   2.744  23.983  0.00  0.00    +0.030 C 
ENDBRANCH   2  17
BRANCH   1  20
ATOM     20  C   UNL     1       9.164  -0.327  24.788  0.00  0.00    +0.056 C 
BRANCH  20  21
ATOM     21  C   UNL     1       9.428  -1.403  23.722  0.00  0.00    +0.037 C 
BRANCH  21  22
ATOM     22  C   UNL     1       9.167  -2.840  24.183  0.00  0.00    +0.117 C 
BRANCH  22  23
ATOM     23  O   UNL     1       8.718  -2.815  25.538  0.00  0.00    -0.392 OA
ATOM     24  H   UNL     1       8.894  -1.932  25.907  0.00  0.00    +0.210 HD
ENDBRANCH  22  23
BRANCH  22  25
ATOM     25  C   UNL     1       8.062  -3.507  23.343  0.00  0.00    +0.063 C 
BRANCH  25  26
ATOM     26  C   UNL     1       7.852  -5.007  23.593  0.00  0.00    +0.128 C 
BRANCH  26  27
ATOM     27  O   UNL     1       7.198  -5.222  24.852  0.00  0.00    -0.391 OA
ATOM     28  H   UNL     1       6.293  -5.533  24.671  0.00  0.00    +0.210 HD
ENDBRANCH  26  27
BRANCH  26  29
ATOM     29  C   UNL     1       6.969  -5.624  22.506  0.00  0.00    +0.151 C 
BRANCH  29  30
ATOM     30  C   UNL     1       5.497  -5.560  22.852  0.00  0.00    +0.307 C 
ATOM     31  O   UNL     1       4.931  -6.403  23.535  0.00  0.00    -0.251 OA
BRANCH  30  32
ATOM     32  O   UNL     1       4.836  -4.535  22.270  0.00  0.00    -0.481 OA
ATOM     33  H   UNL     1       4.676  -3.803  22.913  0.00  0.00    +0.295 HD
ENDBRANCH  30  32
ENDBRANCH  29  30
ENDBRANCH  26  29
ENDBRANCH  25  26
ENDBRANCH  22  25
ENDBRANCH  21  22
ENDBRANCH  20  21
ENDBRANCH   1  20
TORSDOF 12
ENDMDL
