MODEL 1
REMARK VINA RESULT:      -5.9      0.000      0.000
REMARK  Name = 
REMARK  6 active torsions:
REMARK  status: ('A' for Active; 'I' for Inactive)
REMARK    1  A    between atoms: C_1  and  C_2
REMARK    2  A    between atoms: N_4  and  C_5
REMARK    3  A    between atoms: C_6  and  O_7
REMARK    4  A    between atoms: C_9  and  C_15
REMARK    5  A    between atoms: C_11  and  N_12
REMARK    6  A    between atoms: C_15  and  O_16
REMARK                            x       y       z     vdW  Elec       q    Type
REMARK                         _______ _______ _______ _____ _____    ______ ____
ROOT
ATOM      1  C   UNL     1       8.891  -1.019  24.847  0.00  0.00    +0.153 A 
ATOM      2  C   UNL     1       9.243  -2.010  23.889  0.00  0.00    +0.298 A 
ATOM      3  C   UNL     1       9.233  -3.386  24.214  0.00  0.00    +0.101 A 
ATOM      4  C   UNL     1       8.843  -3.805  25.486  0.00  0.00    +0.069 A 
ATOM      5  C   UNL     1       8.405  -2.861  26.407  0.00  0.00    +0.062 A 
ATOM      6  C   UNL     1       8.441  -1.496  26.096  0.00  0.00    +0.145 A 
ENDROOT
BRANCH   1   9
ATOM      7  C   UNL     1       9.769   2.611  24.094  0.00  0.00    +0.109 C 
ATOM      8  C   UNL     1      10.078   1.180  24.441  0.00  0.00    +0.214 C 
ATOM      9  N   UNL     1       8.965   0.371  24.511  0.00  0.00    -0.278 N 
ATOM     10  H   UNL     1       8.112   0.776  24.117  0.00  0.00    +0.155 HD
ATOM     11  O   UNL     1      11.233   0.807  24.626  0.00  0.00    -0.276 OA
ENDBRANCH   1   9
BRANCH   2  12
ATOM     12  N   UNL     1       9.652  -1.659  22.515  0.00  0.00    +0.082 N 
ATOM     13  O   UNL     1      10.842  -1.803  22.207  0.00  0.00    +0.042 OA
ATOM     14  O   UNL     1       8.783  -1.240  21.736  0.00  0.00    -0.576 OA
ENDBRANCH   2  12
BRANCH   4  15
ATOM     15  C   UNL     1       8.856  -5.254  25.799  0.00  0.00    +0.337 C 
ATOM     16  O   UNL     1       7.970  -5.787  26.444  0.00  0.00    -0.245 OA
BRANCH  15  17
ATOM     17  O   UNL     1       9.892  -5.930  25.263  0.00  0.00    -0.477 OA
ATOM     18  H   UNL     1      10.677  -6.046  25.830  0.00  0.00    +0.295 HD
ENDBRANCH  15  17
ENDBRANCH   4  15
BRANCH   6  19
ATOM     19  O   UNL     1       7.933  -0.727  27.105  0.00  0.00    -0.505 OA
ATOM     20  H   UNL     1       7.119  -0.279  26.793  0.00  0.00    +0.292 HD
ENDBRANCH   6  19
TORSDOF 5
ENDMDL
MODEL 2
REMARK VINA RESULT:      -5.7      3.152      4.352
REMARK  Name = 
REMARK  6 active torsions:
REMARK  status: ('A' for Active; 'I' for Inactive)
REMARK    1  A    between atoms: C_1  and  C_2
REMARK    2  A    between atoms: N_4  and  C_5
REMARK    3  A    between atoms: C_6  and  O_7
REMARK    4  A    between atoms: C_9  and  C_15
REMARK    5  A    between atoms: C_11  and  N_12
REMARK    6  A    between atoms: C_15  and  O_16
REMARK                            x       y       z     vdW  Elec       q    Type
REMARK                         _______ _______ _______ _____ _____    ______ ____
ROOT
ATOM      1  C   UNL     1       7.405  -3.649  22.837  0.00  0.00    +0.153 A 
ATOM      2  C   UNL     1       7.776  -4.293  24.050  0.00  0.00    +0.298 A 
ATOM      3  C   UNL     1       6.937  -5.253  24.661  0.00  0.00    +0.101 A 
ATOM      4  C   UNL     1       5.730  -5.614  24.065  0.00  0.00    +0.069 A 
ATOM      5  C   UNL     1       5.392  -5.067  22.832  0.00  0.00    +0.062 A 
ATOM      6  C   UNL     1       6.208  -4.096  22.240  0.00  0.00    +0.145 A 
ENDROOT
BRANCH   1   9
ATOM      7  C   UNL     1       9.200  -0.512  21.632  0.00  0.00    +0.109 C 
ATOM      8  C   UNL     1       8.165  -1.271  22.418  0.00  0.00    +0.214 C 
ATOM      9  N   UNL     1       8.244  -2.638  22.269  0.00  0.00    -0.278 N 
ATOM     10  H   UNL     1       9.104  -2.975  21.830  0.00  0.00    +0.155 HD
ATOM     11  O   UNL     1       7.350  -0.685  23.125  0.00  0.00    -0.276 OA
ENDBRANCH   1   9
BRANCH   2  12
ATOM     12  N   UNL     1       9.043  -3.987  24.743  0.00  0.00    +0.082 N 
ATOM     13  O   UNL     1       9.929  -4.851  24.744  0.00  0.00    +0.042 OA
ATOM     14  O   UNL     1       9.158  -2.879  25.287  0.00  0.00    -0.576 OA
ENDBRANCH   2  12
BRANCH   4  15
ATOM     15  C   UNL     1       4.867  -6.614  24.738  0.00  0.00    +0.337 C 
ATOM     16  O   UNL     1       4.692  -6.614  25.944  0.00  0.00    -0.245 OA
BRANCH  15  17
ATOM     17  O   UNL     1       4.257  -7.476  23.900  0.00  0.00    -0.477 OA
ATOM     18  H   UNL     1       4.672  -8.353  23.798  0.00  0.00    +0.295 HD
ENDBRANCH  15  17
ENDBRANCH   4  15
BRANCH   6  19
ATOM     19  O   UNL     1       5.737  -3.708  21.016  0.00  0.00    -0.505 OA
ATOM     20  H   UNL     1       4.951  -3.134  21.138  0.00  0.00    +0.292 HD
ENDBRANCH   6  19
TORSDOF 5
ENDMDL
MODEL 3
REMARK VINA RESULT:      -5.7      2.201      5.978
REMARK  Name = 
REMARK  6 active torsions:
REMARK  status: ('A' for Active; 'I' for Inactive)
REMARK    1  A    between atoms: C_1  and  C_2
REMARK    2  A    between atoms: N_4  and  C_5
REMARK    3  A    between atoms: C_6  and  O_7
REMARK    4  A    between atoms: C_9  and  C_15
REMARK    5  A    between atoms: C_11  and  N_12
REMARK    6  A    between atoms: C_15  and  O_16
REMARK                            x       y       z     vdW  Elec       q    Type
REMARK                         _______ _______ _______ _____ _____    ______ ____
ROOT
ATOM      1  C   UNL     1       9.427  -1.419  23.808  0.00  0.00    +0.153 A 
ATOM      2  C   UNL     1       9.081  -0.466  24.806  0.00  0.00    +0.298 A 
ATOM      3  C   UNL     1       9.332   0.914  24.625  0.00  0.00    +0.101 A 
ATOM      4  C   UNL     1       9.903   1.376  23.440  0.00  0.00    +0.069 A 
ATOM      5  C   UNL     1      10.162   0.473  22.415  0.00  0.00    +0.062 A 
ATOM      6  C   UNL     1       9.940  -0.896  22.603  0.00  0.00    +0.145 A 
ENDROOT
BRANCH   1   9
ATOM      7  C   UNL     1       8.267  -5.037  24.080  0.00  0.00    +0.109 C 
ATOM      8  C   UNL     1       8.178  -3.612  23.608  0.00  0.00    +0.214 C 
ATOM      9  N   UNL     1       9.216  -2.816  24.039  0.00  0.00    -0.278 N 
ATOM     10  H   UNL     1      10.013  -3.323  24.434  0.00  0.00    +0.155 HD
ATOM     11  O   UNL     1       7.253  -3.236  22.894  0.00  0.00    -0.276 OA
ENDBRANCH   1   9
BRANCH   2  12
ATOM     12  N   UNL     1       8.457  -0.862  26.084  0.00  0.00    +0.082 N 
ATOM     13  O   UNL     1       9.135  -0.768  27.115  0.00  0.00    +0.042 OA
ATOM     14  O   UNL     1       7.285  -1.267  26.061  0.00  0.00    -0.576 OA
ENDBRANCH   2  12
BRANCH   4  15
ATOM     15  C   UNL     1      10.165   2.827  23.287  0.00  0.00    +0.337 C 
ATOM     16  O   UNL     1      11.260   3.316  23.502  0.00  0.00    -0.245 OA
BRANCH  15  17
ATOM     17  O   UNL     1       9.110   3.538  22.839  0.00  0.00    -0.477 OA
ATOM     18  H   UNL     1       9.079   4.479  23.093  0.00  0.00    +0.295 HD
ENDBRANCH  15  17
ENDBRANCH   4  15
BRANCH   6  19
ATOM     19  O   UNL     1      10.212  -1.618  21.475  0.00  0.00    -0.505 OA
ATOM     20  H   UNL     1       9.647  -2.419  21.458  0.00  0.00    +0.292 HD
ENDBRANCH   6  19
TORSDOF 5
ENDMDL
MODEL 4
REMARK VINA RESULT:      -5.6      3.065      3.838
REMARK  Name = 
REMARK  6 active torsions:
REMARK  status: ('A' for Active; 'I' for Inactive)
REMARK    1  A    between atoms: C_1  and  C_2
REMARK    2  A    between atoms: N_4  and  C_5
REMARK    3  A    between atoms: C_6  and  O_7
REMARK    4  A    between atoms: C_9  and  C_15
REMARK    5  A    between atoms: C_11  and  N_12
REMARK    6  A    between atoms: C_15  and  O_16
REMARK                            x       y       z     vdW  Elec       q    Type
REMARK                         _______ _______ _______ _____ _____    ______ ____
ROOT
ATOM      1  C   UNL     1       7.699  -2.418  24.092  0.00  0.00    +0.153 A 
ATOM      2  C   UNL     1       7.928  -3.788  24.401  0.00  0.00    +0.298 A 
ATOM      3  C   UNL     1       7.064  -4.804  23.933  0.00  0.00    +0.101 A 
ATOM      4  C   UNL     1       5.975  -4.483  23.124  0.00  0.00    +0.069 A 
ATOM      5  C   UNL     1       5.786  -3.163  22.732  0.00  0.00    +0.062 A 
ATOM      6  C   UNL     1       6.624  -2.153  23.217  0.00  0.00    +0.145 A 
ENDROOT
BRANCH   1   9
ATOM      7  C   UNL     1      10.382   0.141  24.966  0.00  0.00    +0.109 C 
ATOM      8  C   UNL     1       9.725  -0.900  24.101  0.00  0.00    +0.214 C 
ATOM      9  N   UNL     1       8.554  -1.403  24.626  0.00  0.00    -0.278 N 
ATOM     10  H   UNL     1       8.170  -0.870  25.410  0.00  0.00    +0.155 HD
ATOM     11  O   UNL     1      10.214  -1.233  23.026  0.00  0.00    -0.276 OA
ENDBRANCH   1   9
BRANCH   2  12
ATOM     12  N   UNL     1       9.066  -4.221  25.236  0.00  0.00    +0.082 N 
ATOM     13  O   UNL     1      10.021  -4.774  24.676  0.00  0.00    +0.042 OA
ATOM     14  O   UNL     1       9.009  -4.009  26.457  0.00  0.00    -0.576 OA
ENDBRANCH   2  12
BRANCH   4  15
ATOM     15  C   UNL     1       5.081  -5.571  22.660  0.00  0.00    +0.337 C 
ATOM     16  O   UNL     1       3.867  -5.467  22.679  0.00  0.00    -0.245 OA
BRANCH  15  17
ATOM     17  O   UNL     1       5.725  -6.648  22.168  0.00  0.00    -0.477 OA
ATOM     18  H   UNL     1       6.210  -7.198  22.811  0.00  0.00    +0.295 HD
ENDBRANCH  15  17
ENDBRANCH   4  15
BRANCH   6  19
ATOM     19  O   UNL     1       6.312  -0.931  22.690  0.00  0.00    -0.505 OA
ATOM     20  H   UNL     1       6.254  -1.004  21.714  0.00  0.00    +0.292 HD
ENDBRANCH   6  19
TORSDOF 5
ENDMDL
MODEL 5
REMARK VINA RESULT:      -5.6      1.837      3.267
REMARK  Name = 
REMARK  6 active torsions:
REMARK  status: ('A' for Active; 'I' for Inactive)
REMARK    1  A    between atoms: C_1  and  C_2
REMARK    2  A    between atoms: N_4  and  C_5
REMARK    3  A    between atoms: C_6  and  O_7
REMARK    4  A    between atoms: C_9  and  C_15
REMARK    5  A    between atoms: C_11  and  N_12
REMARK    6  A    between atoms: C_15  and  O_16
REMARK                            x       y       z     vdW  Elec       q    Type
REMARK                         _______ _______ _______ _____ _____    ______ ____
ROOT
ATOM      1  C   UNL     1       8.055  -2.306  23.890  0.00  0.00    +0.153 A 
ATOM      2  C   UNL     1       8.244  -2.209  25.297  0.00  0.00    +0.298 A 
ATOM      3  C   UNL     1       7.916  -3.279  26.160  0.00  0.00    +0.101 A 
ATOM      4  C   UNL     1       7.424  -4.476  25.641  0.00  0.00    +0.069 A 
ATOM      5  C   UNL     1       7.321  -4.627  24.264  0.00  0.00    +0.062 A 
ATOM      6  C   UNL     1       7.618  -3.558  23.409  0.00  0.00    +0.145 A 
ENDROOT
BRANCH   1   9
ATOM      7  C   UNL     1       9.420   0.348  21.522  0.00  0.00    +0.109 C 
ATOM      8  C   UNL     1       9.444  -0.969  22.249  0.00  0.00    +0.214 C 
ATOM      9  N   UNL     1       8.340  -1.188  23.043  0.00  0.00    -0.278 N 
ATOM     10  H   UNL     1       7.558  -0.548  22.880  0.00  0.00    +0.155 HD
ATOM     11  O   UNL     1      10.378  -1.754  22.110  0.00  0.00    -0.276 OA
ENDBRANCH   1   9
BRANCH   2  12
ATOM     12  N   UNL     1       8.776  -0.987  25.932  0.00  0.00    +0.082 N 
ATOM     13  O   UNL     1       9.805  -0.486  25.460  0.00  0.00    +0.042 OA
ATOM     14  O   UNL     1       8.165  -0.522  26.906  0.00  0.00    -0.576 OA
ENDBRANCH   2  12
BRANCH   4  15
ATOM     15  C   UNL     1       7.078  -5.575  26.575  0.00  0.00    +0.337 C 
ATOM     16  O   UNL     1       6.066  -6.242  26.446  0.00  0.00    -0.245 OA
BRANCH  15  17
ATOM     17  O   UNL     1       8.001  -5.803  27.531  0.00  0.00    -0.477 OA
ATOM     18  H   UNL     1       7.971  -5.222  28.313  0.00  0.00    +0.295 HD
ENDBRANCH  15  17
ENDBRANCH   4  15
BRANCH   6  19
ATOM     19  O   UNL     1       7.499  -3.907  22.093  0.00  0.00    -0.505 OA
ATOM     20  H   UNL     1       8.389  -4.091  21.724  0.00  0.00    +0.292 HD
ENDBRANCH   6  19
TORSDOF 5
ENDMDL
MODEL 6
REMARK VINA RESULT:      -5.5      2.899      3.641
REMARK  Name = 
REMARK  6 active torsions:
REMARK  status: ('A' for Active; 'I' for Inactive)
REMARK    1  A    between atoms: C_1  and  C_2
REMARK    2  A    between atoms: N_4  and  C_5
REMARK    3  A    between atoms: C_6  and  O_7
REMARK    4  A    between atoms: C_9  and  C_15
REMARK    5  A    between atoms: C_11  and  N_12
REMARK    6  A    between atoms: C_15  and  O_16
REMARK                            x       y       z     vdW  Elec       q    Type
REMARK                         _______ _______ _______ _____ _____    ______ ____
ROOT
ATOM      1  C   UNL     1       8.260  -2.457  24.171  0.00  0.00    +0.153 A 
ATOM      2  C   UNL     1       6.926  -2.186  23.758  0.00  0.00    +0.298 A 
ATOM      3  C   UNL     1       6.102  -3.198  23.216  0.00  0.00    +0.101 A 
ATOM      4  C   UNL     1       6.575  -4.505  23.103  0.00  0.00    +0.069 A 
ATOM      5  C   UNL     1       7.841  -4.812  23.587  0.00  0.00    +0.062 A 
ATOM      6  C   UNL     1       8.669  -3.805  24.098  0.00  0.00    +0.145 A 
ENDROOT
BRANCH   1   9
ATOM      7  C   UNL     1      10.742   0.356  24.831  0.00  0.00    +0.109 C 
ATOM      8  C   UNL     1      10.014  -0.642  23.973  0.00  0.00    +0.214 C 
ATOM      9  N   UNL     1       9.094  -1.403  24.662  0.00  0.00    -0.278 N 
ATOM     10  H   UNL     1       8.867  -1.060  25.599  0.00  0.00    +0.155 HD
ATOM     11  O   UNL     1      10.240  -0.730  22.770  0.00  0.00    -0.276 OA
ENDBRANCH   1   9
BRANCH   2  12
ATOM     12  N   UNL     1       6.336  -0.836  23.857  0.00  0.00    +0.082 N 
ATOM     13  O   UNL     1       5.463  -0.645  24.714  0.00  0.00    +0.042 OA
ATOM     14  O   UNL     1       6.745   0.039  23.080  0.00  0.00    -0.576 OA
ENDBRANCH   2  12
BRANCH   4  15
ATOM     15  C   UNL     1       5.690  -5.541  22.519  0.00  0.00    +0.337 C 
ATOM     16  O   UNL     1       4.488  -5.377  22.401  0.00  0.00    -0.245 OA
BRANCH  15  17
ATOM     17  O   UNL     1       6.335  -6.642  22.084  0.00  0.00    -0.477 OA
ATOM     18  H   UNL     1       7.302  -6.570  21.984  0.00  0.00    +0.295 HD
ENDBRANCH  15  17
ENDBRANCH   4  15
BRANCH   6  19
ATOM     19  O   UNL     1       9.854  -4.303  24.562  0.00  0.00    -0.505 OA
ATOM     20  H   UNL     1       9.815  -4.374  25.540  0.00  0.00    +0.292 HD
ENDBRANCH   6  19
TORSDOF 5
ENDMDL
MODEL 7
REMARK VINA RESULT:      -5.5      2.785      5.399
REMARK  Name = 
REMARK  6 active torsions:
REMARK  status: ('A' for Active; 'I' for Inactive)
REMARK    1  A    between atoms: C_1  and  C_2
REMARK    2  A    between atoms: N_4  and  C_5
REMARK    3  A    between atoms: C_6  and  O_7
REMARK    4  A    between atoms: C_9  and  C_15
REMARK    5  A    between atoms: C_11  and  N_12
REMARK    6  A    between atoms: C_15  and  O_16
REMARK                            x       y       z     vdW  Elec       q    Type
REMARK                         _______ _______ _______ _____ _____    ______ ____
ROOT
ATOM      1  C   UNL     1       7.150  -3.707  24.458  0.00  0.00    +0.153 A 
ATOM      2  C   UNL     1       7.294  -3.666  23.044  0.00  0.00    +0.298 A 
ATOM      3  C   UNL     1       8.172  -2.750  22.418  0.00  0.00    +0.101 A 
ATOM      4  C   UNL     1       8.945  -1.881  23.187  0.00  0.00    +0.069 A 
ATOM      5  C   UNL     1       8.891  -1.969  24.572  0.00  0.00    +0.062 A 
ATOM      6  C   UNL     1       8.001  -2.854  25.193  0.00  0.00    +0.145 A 
ENDROOT
BRANCH   1   9
ATOM      7  C   UNL     1       5.214  -6.373  26.369  0.00  0.00    +0.109 C 
ATOM      8  C   UNL     1       6.446  -5.601  25.983  0.00  0.00    +0.214 C 
ATOM      9  N   UNL     1       6.212  -4.602  25.064  0.00  0.00    -0.278 N 
ATOM     10  H   UNL     1       5.226  -4.369  24.923  0.00  0.00    +0.155 HD
ATOM     11  O   UNL     1       7.540  -5.862  26.475  0.00  0.00    -0.276 OA
ENDBRANCH   1   9
BRANCH   2  12
ATOM     12  N   UNL     1       6.529  -4.560  22.153  0.00  0.00    +0.082 N 
ATOM     13  O   UNL     1       6.733  -5.778  22.237  0.00  0.00    +0.042 OA
ATOM     14  O   UNL     1       5.719  -4.048  21.366  0.00  0.00    -0.576 OA
ENDBRANCH   2  12
BRANCH   4  15
ATOM     15  C   UNL     1       9.847  -0.925  22.500  0.00  0.00    +0.337 C 
ATOM     16  O   UNL     1      10.598  -0.186  23.112  0.00  0.00    -0.245 OA
BRANCH  15  17
ATOM     17  O   UNL     1       9.802  -0.987  21.154  0.00  0.00    -0.477 OA
ATOM     18  H   UNL     1      10.612  -0.727  20.678  0.00  0.00    +0.295 HD
ENDBRANCH  15  17
ENDBRANCH   4  15
BRANCH   6  19
ATOM     19  O   UNL     1       8.120  -2.830  26.554  0.00  0.00    -0.505 OA
ATOM     20  H   UNL     1       7.898  -1.933  26.883  0.00  0.00    +0.292 HD
ENDBRANCH   6  19
TORSDOF 5
ENDMDL
MODEL 8
REMARK VINA RESULT:      -5.5      3.047      4.192
REMARK  Name = 
REMARK  6 active torsions:
REMARK  status: ('A' for Active; 'I' for Inactive)
REMARK    1  A    between atoms: C_1  and  C_2
REMARK    2  A    between atoms: N_4  and  C_5
REMARK    3  A    between atoms: C_6  and  O_7
REMARK    4  A    between atoms: C_9  and  C_15
REMARK    5  A    between atoms: C_11  and  N_12
REMARK    6  A    between atoms: C_15  and  O_16
REMARK                            x       y       z     vdW  Elec       q    Type
REMARK                         _______ _______ _______ _____ _____    ______ ____
ROOT
ATOM      1  C   UNL     1       7.923  -4.490  25.033  0.00  0.00    +0.153 A 
ATOM      2  C   UNL     1       6.615  -4.722  24.525  0.00  0.00    +0.298 A 
ATOM      3  C   UNL     1       5.658  -5.457  25.261  0.00  0.00    +0.101 A 
ATOM      4  C   UNL     1       5.972  -5.950  26.527  0.00  0.00    +0.069 A 
ATOM      5  C   UNL     1       7.212  -5.656  27.082  0.00  0.00    +0.062 A 
ATOM      6  C   UNL     1       8.170  -4.952  26.343  0.00  0.00    +0.145 A 
ENDROOT
BRANCH   1   9
ATOM      7  C   UNL     1      10.207  -2.060  23.192  0.00  0.00    +0.109 C 
ATOM      8  C   UNL     1       9.125  -2.438  24.167  0.00  0.00    +0.214 C 
ATOM      9  N   UNL     1       8.893  -3.793  24.244  0.00  0.00    -0.278 N 
ATOM     10  H   UNL     1       9.608  -4.379  23.805  0.00  0.00    +0.155 HD
ATOM     11  O   UNL     1       8.536  -1.584  24.824  0.00  0.00    -0.276 OA
ENDBRANCH   1   9
BRANCH   2  12
ATOM     12  N   UNL     1       6.189  -4.222  23.203  0.00  0.00    +0.082 N 
ATOM     13  O   UNL     1       6.863  -4.543  22.215  0.00  0.00    +0.042 OA
ATOM     14  O   UNL     1       5.177  -3.508  23.146  0.00  0.00    -0.576 OA
ENDBRANCH   2  12
BRANCH   4  15
ATOM     15  C   UNL     1       4.950  -6.729  27.268  0.00  0.00    +0.337 C 
ATOM     16  O   UNL     1       3.768  -6.694  26.974  0.00  0.00    -0.245 OA
BRANCH  15  17
ATOM     17  O   UNL     1       5.449  -7.511  28.247  0.00  0.00    -0.477 OA
ATOM     18  H   UNL     1       5.475  -8.469  28.068  0.00  0.00    +0.295 HD
ENDBRANCH  15  17
ENDBRANCH   4  15
BRANCH   6  19
ATOM     19  O   UNL     1       9.307  -4.721  27.066  0.00  0.00    -0.505 OA
ATOM     20  H   UNL     1       9.377  -5.389  27.781  0.00  0.00    +0.292 HD
ENDBRANCH   6  19
TORSDOF 5
ENDMDL
MODEL 9
REMARK VINA RESULT:      -5.5      2.516      3.283
REMARK  Name = 
REMARK  6 active torsions:
REMARK  status: ('A' for Active; 'I' for Inactive)
REMARK    1  A    between atoms: C_1  and  C_2
REMARK    2  A    between atoms: N_4  and  C_5
REMARK    3  A    between atoms: C_6  and  O_7
REMARK    4  A    between atoms: C_9  and  C_15
REMARK    5  A    between atoms: C_11  and  N_12
REMARK    6  A    between atoms: C_15  and  O_16
REMARK                            x       y       z     vdW  Elec       q    Type
REMARK                         _______ _______ _______ _____ _____    ______ ____
ROOT
ATOM      1  C   UNL     1       7.733  -2.899  23.778  0.00  0.00    +0.153 A 
ATOM      2  C   UNL     1       6.974  -4.065  23.478  0.00  0.00    +0.298 A 
ATOM      3  C   UNL     1       6.649  -5.010  24.478  0.00  0.00    +0.101 A 
ATOM      4  C   UNL     1       7.044  -4.800  25.799  0.00  0.00    +0.069 A 
ATOM      5  C   UNL     1       7.704  -3.623  26.131  0.00  0.00    +0.062 A 
ATOM      6  C   UNL     1       8.051  -2.700  25.138  0.00  0.00    +0.145 A 
ENDROOT
BRANCH   1   9
ATOM      7  C   UNL     1       9.352  -0.532  21.270  0.00  0.00    +0.109 C 
ATOM      8  C   UNL     1       9.352  -1.519  22.406  0.00  0.00    +0.214 C 
ATOM      9  N   UNL     1       8.100  -1.988  22.737  0.00  0.00    -0.278 N 
ATOM     10  H   UNL     1       7.368  -1.783  22.052  0.00  0.00    +0.155 HD
ATOM     11  O   UNL     1      10.398  -1.858  22.952  0.00  0.00    -0.276 OA
ENDBRANCH   1   9
BRANCH   2  12
ATOM     12  N   UNL     1       6.499  -4.359  22.112  0.00  0.00    +0.082 N 
ATOM     13  O   UNL     1       5.628  -3.625  21.628  0.00  0.00    +0.042 OA
ATOM     14  O   UNL     1       6.997  -5.326  21.516  0.00  0.00    -0.576 OA
ENDBRANCH   2  12
BRANCH   4  15
ATOM     15  C   UNL     1       6.698  -5.816  26.822  0.00  0.00    +0.337 C 
ATOM     16  O   UNL     1       7.312  -5.919  27.869  0.00  0.00    -0.245 OA
BRANCH  15  17
ATOM     17  O   UNL     1       5.620  -6.567  26.517  0.00  0.00    -0.477 OA
ATOM     18  H   UNL     1       4.789  -6.086  26.344  0.00  0.00    +0.295 HD
ENDBRANCH  15  17
ENDBRANCH   4  15
BRANCH   6  19
ATOM     19  O   UNL     1       8.655  -1.590  25.658  0.00  0.00    -0.505 OA
ATOM     20  H   UNL     1       8.438  -0.812  25.102  0.00  0.00    +0.292 HD
ENDBRANCH   6  19
TORSDOF 5
ENDMDL
