MODEL 1
REMARK VINA RESULT:      -7.2      0.000      0.000
REMARK  Name = 
REMARK  5 active torsions:
REMARK  status: ('A' for Active; 'I' for Inactive)
REMARK    1  A    between atoms: C_2  and  C_4
REMARK    2  A    between atoms: C_8  and  C_9
REMARK    3  A    between atoms: C_9  and  N_10
REMARK    4  A    between atoms: C_22  and  C_23
REMARK    5  A    between atoms: C_23  and  O_24
REMARK                            x       y       z     vdW  Elec       q    Type
REMARK                         _______ _______ _______ _____ _____    ______ ____
ROOT
ATOM      1  N   UNL     1       8.067  -0.185  24.454  0.00  0.00    -0.339 N 
ATOM      2  C   UNL     1       7.621   0.913  23.669  0.00  0.00    +0.064 A 
ATOM      3  C   UNL     1       6.522   1.475  24.356  0.00  0.00    +0.004 A 
ATOM      4  C   UNL     1       5.798   2.551  23.799  0.00  0.00    +0.010 A 
ATOM      5  C   UNL     1       6.144   3.078  22.567  0.00  0.00    +0.002 A 
ATOM      6  C   UNL     1       7.230   2.557  21.891  0.00  0.00    +0.017 A 
ATOM      7  C   UNL     1       6.348   0.765  25.566  0.00  0.00    -0.019 A 
ATOM      8  C   UNL     1       5.279   0.977  26.596  0.00  0.00    +0.037 C 
ATOM      9  C   UNL     1       4.325  -0.219  26.701  0.00  0.00    +0.005 C 
ATOM     10  C   UNL     1       4.909  -1.451  27.406  0.00  0.00    +0.001 C 
ATOM     11  C   UNL     1       6.127  -2.090  26.729  0.00  0.00    +0.006 C 
ATOM     12  C   UNL     1       7.366  -1.189  26.766  0.00  0.00    +0.054 C 
ATOM     13  C   UNL     1       8.013   1.499  22.424  0.00  0.00    +0.083 A 
ATOM     14  C   UNL     1       7.315  -0.218  25.623  0.00  0.00    +0.023 A 
ENDROOT
BRANCH  13  15
ATOM     15  C   UNL     1       9.169   1.063  21.601  0.00  0.00    +0.339 C 
ATOM     16  O   UNL     1       9.214   0.009  20.996  0.00  0.00    -0.245 OA
BRANCH  15  17
ATOM     17  O   UNL     1      10.163   1.969  21.548  0.00  0.00    -0.477 OA
ATOM     18  H   UNL     1      10.573   2.195  22.403  0.00  0.00    +0.295 HD
ENDBRANCH  15  17
ENDBRANCH  13  15
BRANCH   1  19
ATOM     19  C   UNL     1       9.086  -1.153  23.975  0.00  0.00    +0.157 C 
BRANCH  19  22
ATOM     20  C   UNL     1       7.376  -4.323  22.635  0.00  0.00    +0.037 A 
ATOM     21  C   UNL     1       7.854  -3.002  22.720  0.00  0.00    +0.018 A 
ATOM     22  C   UNL     1       8.714  -2.612  23.771  0.00  0.00    -0.027 A 
ATOM     23  C   UNL     1       9.190  -3.599  24.651  0.00  0.00    +0.005 A 
ATOM     24  C   UNL     1       8.767  -4.926  24.531  0.00  0.00    +0.001 A 
ATOM     25  C   UNL     1       7.848  -5.281  23.544  0.00  0.00    +0.013 A 
BRANCH  20  29
ATOM     26  N   UNL     1       6.035  -6.092  21.566  0.00  0.00    -0.325 N 
ATOM     27  H   UNL     1       6.487  -6.832  22.079  0.00  0.00    +0.145 HD
ATOM     28  H   UNL     1       5.347  -6.351  20.870  0.00  0.00    +0.145 HD
ATOM     29  C   UNL     1       6.307  -4.757  21.683  0.00  0.00    +0.242 C 
ATOM     30  O   UNL     1       5.701  -3.952  20.986  0.00  0.00    -0.270 OA
ENDBRANCH  20  29
ENDBRANCH  19  22
ENDBRANCH   1  19
TORSDOF 5
ENDMDL
MODEL 2
REMARK VINA RESULT:      -7.2      2.790      5.803
REMARK  Name = 
REMARK  5 active torsions:
REMARK  status: ('A' for Active; 'I' for Inactive)
REMARK    1  A    between atoms: C_2  and  C_4
REMARK    2  A    between atoms: C_8  and  C_9
REMARK    3  A    between atoms: C_9  and  N_10
REMARK    4  A    between atoms: C_22  and  C_23
REMARK    5  A    between atoms: C_23  and  O_24
REMARK                            x       y       z     vdW  Elec       q    Type
REMARK                         _______ _______ _______ _____ _____    ______ ____
ROOT
ATOM      1  N   UNL     1       7.873  -3.044  24.935  0.00  0.00    -0.339 N 
ATOM      2  C   UNL     1       6.894  -2.368  25.712  0.00  0.00    +0.064 A 
ATOM      3  C   UNL     1       5.685  -3.079  25.539  0.00  0.00    +0.004 A 
ATOM      4  C   UNL     1       4.488  -2.618  26.128  0.00  0.00    +0.010 A 
ATOM      5  C   UNL     1       4.468  -1.460  26.885  0.00  0.00    +0.002 A 
ATOM      6  C   UNL     1       5.644  -0.764  27.085  0.00  0.00    +0.017 A 
ATOM      7  C   UNL     1       5.946  -4.201  24.721  0.00  0.00    -0.019 A 
ATOM      8  C   UNL     1       4.958  -5.216  24.232  0.00  0.00    +0.037 C 
ATOM      9  C   UNL     1       4.776  -5.167  22.710  0.00  0.00    +0.005 C 
ATOM     10  C   UNL     1       5.939  -5.753  21.900  0.00  0.00    +0.001 C 
ATOM     11  C   UNL     1       7.291  -5.048  22.069  0.00  0.00    +0.006 C 
ATOM     12  C   UNL     1       7.875  -5.215  23.476  0.00  0.00    +0.054 C 
ATOM     13  C   UNL     1       6.881  -1.204  26.544  0.00  0.00    +0.083 A 
ATOM     14  C   UNL     1       7.287  -4.181  24.390  0.00  0.00    +0.023 A 
ENDROOT
BRANCH  13  15
ATOM     15  C   UNL     1       8.068  -0.372  26.868  0.00  0.00    +0.339 C 
ATOM     16  O   UNL     1       9.069  -0.800  27.410  0.00  0.00    -0.245 OA
BRANCH  15  17
ATOM     17  O   UNL     1       7.953   0.908  26.468  0.00  0.00    -0.477 OA
ATOM     18  H   UNL     1       7.703   1.544  27.161  0.00  0.00    +0.295 HD
ENDBRANCH  15  17
ENDBRANCH  13  15
BRANCH   1  19
ATOM     19  C   UNL     1       9.232  -2.494  24.702  0.00  0.00    +0.157 C 
BRANCH  19  22
ATOM     20  C   UNL     1       9.828   0.942  23.087  0.00  0.00    +0.037 A 
ATOM     21  C   UNL     1       9.797  -0.096  24.036  0.00  0.00    +0.018 A 
ATOM     22  C   UNL     1       9.446  -1.411  23.657  0.00  0.00    -0.027 A 
ATOM     23  C   UNL     1       9.260  -1.690  22.293  0.00  0.00    +0.005 A 
ATOM     24  C   UNL     1       9.352  -0.673  21.337  0.00  0.00    +0.001 A 
ATOM     25  C   UNL     1       9.612   0.638  21.735  0.00  0.00    +0.013 A 
BRANCH  20  29
ATOM     26  N   UNL     1      10.790   3.171  22.665  0.00  0.00    -0.325 N 
ATOM     27  H   UNL     1      11.293   2.868  21.847  0.00  0.00    +0.145 HD
ATOM     28  H   UNL     1      10.916   4.127  22.972  0.00  0.00    +0.145 HD
ATOM     29  C   UNL     1       9.984   2.386  23.443  0.00  0.00    +0.242 C 
ATOM     30  O   UNL     1       9.439   2.867  24.429  0.00  0.00    -0.270 OA
ENDBRANCH  20  29
ENDBRANCH  19  22
ENDBRANCH   1  19
TORSDOF 5
ENDMDL
MODEL 3
REMARK VINA RESULT:      -7.1      1.828      2.237
REMARK  Name = 
REMARK  5 active torsions:
REMARK  status: ('A' for Active; 'I' for Inactive)
REMARK    1  A    between atoms: C_2  and  C_4
REMARK    2  A    between atoms: C_8  and  C_9
REMARK    3  A    between atoms: C_9  and  N_10
REMARK    4  A    between atoms: C_22  and  C_23
REMARK    5  A    between atoms: C_23  and  O_24
REMARK                            x       y       z     vdW  Elec       q    Type
REMARK                         _______ _______ _______ _____ _____    ______ ____
ROOT
ATOM      1  N   UNL     1       8.089   0.649  24.682  0.00  0.00    -0.339 N 
ATOM      2  C   UNL     1       7.692   1.689  23.797  0.00  0.00    +0.064 A 
ATOM      3  C   UNL     1       6.644   2.383  24.442  0.00  0.00    +0.004 A 
ATOM      4  C   UNL     1       5.972   3.440  23.791  0.00  0.00    +0.010 A 
ATOM      5  C   UNL     1       6.321   3.820  22.507  0.00  0.00    +0.002 A 
ATOM      6  C   UNL     1       7.359   3.168  21.869  0.00  0.00    +0.017 A 
ATOM      7  C   UNL     1       6.455   1.809  25.720  0.00  0.00    -0.019 A 
ATOM      8  C   UNL     1       5.424   2.188  26.741  0.00  0.00    +0.037 C 
ATOM      9  C   UNL     1       4.404   1.069  26.983  0.00  0.00    +0.005 C 
ATOM     10  C   UNL     1       4.929  -0.120  27.798  0.00  0.00    +0.001 C 
ATOM     11  C   UNL     1       6.093  -0.897  27.169  0.00  0.00    +0.006 C 
ATOM     12  C   UNL     1       7.383  -0.074  27.094  0.00  0.00    +0.054 C 
ATOM     13  C   UNL     1       8.089   2.123  22.494  0.00  0.00    +0.083 A 
ATOM     14  C   UNL     1       7.364   0.779  25.861  0.00  0.00    +0.023 A 
ENDROOT
BRANCH  13  15
ATOM     15  C   UNL     1       9.199   1.537  21.699  0.00  0.00    +0.339 C 
ATOM     16  O   UNL     1       9.109   0.502  21.067  0.00  0.00    -0.245 OA
BRANCH  15  17
ATOM     17  O   UNL     1      10.318   2.285  21.707  0.00  0.00    -0.477 OA
ATOM     18  H   UNL     1      10.203   3.213  21.980  0.00  0.00    +0.295 HD
ENDBRANCH  15  17
ENDBRANCH  13  15
BRANCH   1  19
ATOM     19  C   UNL     1       9.038  -0.421  24.286  0.00  0.00    +0.157 C 
BRANCH  19  22
ATOM     20  C   UNL     1       8.397  -4.182  24.751  0.00  0.00    +0.037 A 
ATOM     21  C   UNL     1       8.706  -2.839  25.034  0.00  0.00    +0.018 A 
ATOM     22  C   UNL     1       8.536  -1.836  24.052  0.00  0.00    -0.027 A 
ATOM     23  C   UNL     1       7.927  -2.185  22.835  0.00  0.00    +0.005 A 
ATOM     24  C   UNL     1       7.559  -3.509  22.574  0.00  0.00    +0.001 A 
ATOM     25  C   UNL     1       7.814  -4.504  23.517  0.00  0.00    +0.013 A 
BRANCH  20  29
ATOM     26  N   UNL     1       9.998  -5.859  25.586  0.00  0.00    -0.325 N 
ATOM     27  H   UNL     1      10.736  -5.549  24.976  0.00  0.00    +0.145 HD
ATOM     28  H   UNL     1      10.174  -6.664  26.173  0.00  0.00    +0.145 HD
ATOM     29  C   UNL     1       8.743  -5.320  25.657  0.00  0.00    +0.242 C 
ATOM     30  O   UNL     1       7.920  -5.799  26.430  0.00  0.00    -0.270 OA
ENDBRANCH  20  29
ENDBRANCH  19  22
ENDBRANCH   1  19
TORSDOF 5
ENDMDL
MODEL 4
REMARK VINA RESULT:      -7.1      2.265      3.145
REMARK  Name = 
REMARK  5 active torsions:
REMARK  status: ('A' for Active; 'I' for Inactive)
REMARK    1  A    between atoms: C_2  and  C_4
REMARK    2  A    between atoms: C_8  and  C_9
REMARK    3  A    between atoms: C_9  and  N_10
REMARK    4  A    between atoms: C_22  and  C_23
REMARK    5  A    between atoms: C_23  and  O_24
REMARK                            x       y       z     vdW  Elec       q    Type
REMARK                         _______ _______ _______ _____ _____    ______ ____
ROOT
ATOM      1  N   UNL     1       7.326   0.004  23.939  0.00  0.00    -0.339 N 
ATOM      2  C   UNL     1       8.475   0.746  23.550  0.00  0.00    +0.064 A 
ATOM      3  C   UNL     1       8.612   1.792  24.490  0.00  0.00    +0.004 A 
ATOM      4  C   UNL     1       9.625   2.763  24.344  0.00  0.00    +0.010 A 
ATOM      5  C   UNL     1      10.507   2.716  23.278  0.00  0.00    +0.002 A 
ATOM      6  C   UNL     1      10.403   1.688  22.361  0.00  0.00    +0.017 A 
ATOM      7  C   UNL     1       7.599   1.646  25.464  0.00  0.00    -0.019 A 
ATOM      8  C   UNL     1       7.323   2.549  26.629  0.00  0.00    +0.037 C 
ATOM      9  C   UNL     1       5.973   3.265  26.506  0.00  0.00    +0.005 C 
ATOM     10  C   UNL     1       4.746   2.381  26.764  0.00  0.00    +0.001 C 
ATOM     11  C   UNL     1       4.558   1.204  25.799  0.00  0.00    +0.006 C 
ATOM     12  C   UNL     1       5.650   0.139  25.942  0.00  0.00    +0.054 C 
ATOM     13  C   UNL     1       9.424   0.667  22.483  0.00  0.00    +0.083 A 
ATOM     14  C   UNL     1       6.847   0.536  25.131  0.00  0.00    +0.023 A 
ENDROOT
BRANCH  13  15
ATOM     15  C   UNL     1       9.453  -0.392  21.441  0.00  0.00    +0.339 C 
ATOM     16  O   UNL     1       8.895  -0.300  20.364  0.00  0.00    -0.245 OA
BRANCH  15  17
ATOM     17  O   UNL     1      10.195  -1.462  21.783  0.00  0.00    -0.477 OA
ATOM     18  H   UNL     1      10.204  -2.190  21.137  0.00  0.00    +0.295 HD
ENDBRANCH  15  17
ENDBRANCH  13  15
BRANCH   1  19
ATOM     19  C   UNL     1       6.737  -1.064  23.093  0.00  0.00    +0.157 C 
BRANCH  19  22
ATOM     20  C   UNL     1       8.251  -4.223  24.672  0.00  0.00    +0.037 A 
ATOM     21  C   UNL     1       7.754  -2.916  24.525  0.00  0.00    +0.018 A 
ATOM     22  C   UNL     1       7.111  -2.517  23.331  0.00  0.00    -0.027 A 
ATOM     23  C   UNL     1       6.858  -3.489  22.348  0.00  0.00    +0.005 A 
ATOM     24  C   UNL     1       7.295  -4.806  22.518  0.00  0.00    +0.001 A 
ATOM     25  C   UNL     1       8.007  -5.165  23.662  0.00  0.00    +0.013 A 
BRANCH  20  29
ATOM     26  N   UNL     1      10.125  -5.550  25.565  0.00  0.00    -0.325 N 
ATOM     27  H   UNL     1      10.353  -5.948  24.669  0.00  0.00    +0.145 HD
ATOM     28  H   UNL     1      10.653  -5.863  26.371  0.00  0.00    +0.145 HD
ATOM     29  C   UNL     1       9.120  -4.657  25.810  0.00  0.00    +0.242 C 
ATOM     30  O   UNL     1       8.927  -4.259  26.953  0.00  0.00    -0.270 OA
ENDBRANCH  20  29
ENDBRANCH  19  22
ENDBRANCH   1  19
TORSDOF 5
ENDMDL
MODEL 5
REMARK VINA RESULT:      -7.0      2.360      2.864
REMARK  Name = 
REMARK  5 active torsions:
REMARK  status: ('A' for Active; 'I' for Inactive)
REMARK    1  A    between atoms: C_2  and  C_4
REMARK    2  A    between atoms: C_8  and  C_9
REMARK    3  A    between atoms: C_9  and  N_10
REMARK    4  A    between atoms: C_22  and  C_23
REMARK    5  A    between atoms: C_23  and  O_24
REMARK                            x       y       z     vdW  Elec       q    Type
REMARK                         _______ _______ _______ _____ _____    ______ ____
ROOT
ATOM      1  N   UNL     1       7.833  -0.599  24.567  0.00  0.00    -0.339 N 
ATOM      2  C   UNL     1       8.722   0.344  23.983  0.00  0.00    +0.064 A 
ATOM      3  C   UNL     1       8.544   1.553  24.692  0.00  0.00    +0.004 A 
ATOM      4  C   UNL     1       9.235   2.722  24.308  0.00  0.00    +0.010 A 
ATOM      5  C   UNL     1      10.101   2.714  23.228  0.00  0.00    +0.002 A 
ATOM      6  C   UNL     1      10.305   1.535  22.536  0.00  0.00    +0.017 A 
ATOM      7  C   UNL     1       7.609   1.324  25.727  0.00  0.00    -0.019 A 
ATOM      8  C   UNL     1       7.077   2.327  26.706  0.00  0.00    +0.037 C 
ATOM      9  C   UNL     1       5.578   2.590  26.515  0.00  0.00    +0.005 C 
ATOM     10  C   UNL     1       4.657   1.465  27.003  0.00  0.00    +0.001 C 
ATOM     11  C   UNL     1       4.823   0.114  26.297  0.00  0.00    +0.006 C 
ATOM     12  C   UNL     1       6.175  -0.545  26.589  0.00  0.00    +0.054 C 
ATOM     13  C   UNL     1       9.661   0.325  22.904  0.00  0.00    +0.083 A 
ATOM     14  C   UNL     1       7.213   0.003  25.656  0.00  0.00    +0.023 A 
ENDROOT
BRANCH  13  15
ATOM     15  C   UNL     1      10.001  -0.869  22.089  0.00  0.00    +0.339 C 
ATOM     16  O   UNL     1      10.645  -1.814  22.505  0.00  0.00    -0.245 OA
BRANCH  15  17
ATOM     17  O   UNL     1       9.494  -0.833  20.843  0.00  0.00    -0.477 OA
ATOM     18  H   UNL     1       8.546  -1.043  20.769  0.00  0.00    +0.295 HD
ENDBRANCH  15  17
ENDBRANCH  13  15
BRANCH   1  19
ATOM     19  C   UNL     1       7.583  -1.938  23.977  0.00  0.00    +0.157 C 
BRANCH  19  22
ATOM     20  C   UNL     1       6.714  -5.216  25.783  0.00  0.00    +0.037 A 
ATOM     21  C   UNL     1       6.677  -4.154  24.863  0.00  0.00    +0.018 A 
ATOM     22  C   UNL     1       7.706  -3.185  24.837  0.00  0.00    -0.027 A 
ATOM     23  C   UNL     1       8.831  -3.378  25.657  0.00  0.00    +0.005 A 
ATOM     24  C   UNL     1       8.900  -4.469  26.529  0.00  0.00    +0.001 A 
ATOM     25  C   UNL     1       7.838  -5.369  26.608  0.00  0.00    +0.013 A 
BRANCH  20  29
ATOM     26  N   UNL     1       5.461  -6.773  27.226  0.00  0.00    -0.325 N 
ATOM     27  H   UNL     1       6.084  -6.648  28.008  0.00  0.00    +0.145 HD
ATOM     28  H   UNL     1       4.709  -7.444  27.322  0.00  0.00    +0.145 HD
ATOM     29  C   UNL     1       5.571  -6.154  26.012  0.00  0.00    +0.242 C 
ATOM     30  O   UNL     1       4.759  -6.405  25.128  0.00  0.00    -0.270 OA
ENDBRANCH  20  29
ENDBRANCH  19  22
ENDBRANCH   1  19
TORSDOF 5
ENDMDL
MODEL 6
REMARK VINA RESULT:      -7.0      3.119      6.547
REMARK  Name = 
REMARK  5 active torsions:
REMARK  status: ('A' for Active; 'I' for Inactive)
REMARK    1  A    between atoms: C_2  and  C_4
REMARK    2  A    between atoms: C_8  and  C_9
REMARK    3  A    between atoms: C_9  and  N_10
REMARK    4  A    between atoms: C_22  and  C_23
REMARK    5  A    between atoms: C_23  and  O_24
REMARK                            x       y       z     vdW  Elec       q    Type
REMARK                         _______ _______ _______ _____ _____    ______ ____
ROOT
ATOM      1  N   UNL     1       8.701  -1.616  25.442  0.00  0.00    -0.339 N 
ATOM      2  C   UNL     1       8.101  -2.772  24.871  0.00  0.00    +0.064 A 
ATOM      3  C   UNL     1       8.481  -2.789  23.511  0.00  0.00    +0.004 A 
ATOM      4  C   UNL     1       7.986  -3.780  22.636  0.00  0.00    +0.010 A 
ATOM      5  C   UNL     1       7.116  -4.756  23.088  0.00  0.00    +0.002 A 
ATOM      6  C   UNL     1       6.750  -4.770  24.421  0.00  0.00    +0.017 A 
ATOM      7  C   UNL     1       9.347  -1.696  23.281  0.00  0.00    -0.019 A 
ATOM      8  C   UNL     1       9.964  -1.286  21.977  0.00  0.00    +0.037 C 
ATOM      9  C   UNL     1       9.443   0.069  21.485  0.00  0.00    +0.005 C 
ATOM     10  C   UNL     1       9.985   1.286  22.246  0.00  0.00    +0.001 C 
ATOM     11  C   UNL     1       9.637   1.348  23.738  0.00  0.00    +0.006 C 
ATOM     12  C   UNL     1      10.314   0.240  24.552  0.00  0.00    +0.054 C 
ATOM     13  C   UNL     1       7.248  -3.817  25.348  0.00  0.00    +0.083 A 
ATOM     14  C   UNL     1       9.495  -1.014  24.472  0.00  0.00    +0.023 A 
ENDROOT
BRANCH  13  15
ATOM     15  C   UNL     1       6.794  -3.975  26.753  0.00  0.00    +0.339 C 
ATOM     16  O   UNL     1       5.800  -3.442  27.210  0.00  0.00    -0.245 OA
BRANCH  15  17
ATOM     17  O   UNL     1       7.568  -4.804  27.478  0.00  0.00    -0.477 OA
ATOM     18  H   UNL     1       7.656  -5.709  27.130  0.00  0.00    +0.295 HD
ENDBRANCH  15  17
ENDBRANCH  13  15
BRANCH   1  19
ATOM     19  C   UNL     1       8.383  -1.142  26.812  0.00  0.00    +0.157 C 
BRANCH  19  22
ATOM     20  C   UNL     1       5.579   1.397  26.135  0.00  0.00    +0.037 A 
ATOM     21  C   UNL     1       6.411   0.269  26.016  0.00  0.00    +0.018 A 
ATOM     22  C   UNL     1       7.359  -0.038  27.018  0.00  0.00    -0.027 A 
ATOM     23  C   UNL     1       7.363   0.728  28.196  0.00  0.00    +0.005 A 
ATOM     24  C   UNL     1       6.493   1.812  28.345  0.00  0.00    +0.001 A 
ATOM     25  C   UNL     1       5.623   2.158  27.312  0.00  0.00    +0.013 A 
BRANCH  20  29
ATOM     26  N   UNL     1       5.236   2.031  23.779  0.00  0.00    -0.325 N 
ATOM     27  H   UNL     1       6.181   1.803  23.515  0.00  0.00    +0.145 HD
ATOM     28  H   UNL     1       4.630   2.430  23.073  0.00  0.00    +0.145 HD
ATOM     29  C   UNL     1       4.704   1.902  25.032  0.00  0.00    +0.242 C 
ATOM     30  O   UNL     1       3.542   2.233  25.234  0.00  0.00    -0.270 OA
ENDBRANCH  20  29
ENDBRANCH  19  22
ENDBRANCH   1  19
TORSDOF 5
ENDMDL
MODEL 7
REMARK VINA RESULT:      -6.9      1.743      2.507
REMARK  Name = 
REMARK  5 active torsions:
REMARK  status: ('A' for Active; 'I' for Inactive)
REMARK    1  A    between atoms: C_2  and  C_4
REMARK    2  A    between atoms: C_8  and  C_9
REMARK    3  A    between atoms: C_9  and  N_10
REMARK    4  A    between atoms: C_22  and  C_23
REMARK    5  A    between atoms: C_23  and  O_24
REMARK                            x       y       z     vdW  Elec       q    Type
REMARK                         _______ _______ _______ _____ _____    ______ ____
ROOT
ATOM      1  N   UNL     1       8.366  -0.617  25.018  0.00  0.00    -0.339 N 
ATOM      2  C   UNL     1       8.857   0.173  23.943  0.00  0.00    +0.064 A 
ATOM      3  C   UNL     1       8.540   1.513  24.256  0.00  0.00    +0.004 A 
ATOM      4  C   UNL     1       8.829   2.554  23.346  0.00  0.00    +0.010 A 
ATOM      5  C   UNL     1       9.428   2.286  22.127  0.00  0.00    +0.002 A 
ATOM      6  C   UNL     1       9.766   0.984  21.814  0.00  0.00    +0.017 A 
ATOM      7  C   UNL     1       7.923   1.536  25.527  0.00  0.00    -0.019 A 
ATOM      8  C   UNL     1       7.376   2.731  26.248  0.00  0.00    +0.037 C 
ATOM      9  C   UNL     1       5.852   2.667  26.410  0.00  0.00    +0.005 C 
ATOM     10  C   UNL     1       5.355   1.670  27.465  0.00  0.00    +0.001 C 
ATOM     11  C   UNL     1       5.697   0.198  27.203  0.00  0.00    +0.006 C 
ATOM     12  C   UNL     1       7.200  -0.088  27.298  0.00  0.00    +0.054 C 
ATOM     13  C   UNL     1       9.529  -0.093  22.709  0.00  0.00    +0.083 A 
ATOM     14  C   UNL     1       7.856   0.237  25.989  0.00  0.00    +0.023 A 
ENDROOT
BRANCH  13  15
ATOM     15  C   UNL     1       9.976  -1.433  22.250  0.00  0.00    +0.339 C 
ATOM     16  O   UNL     1      10.887  -2.057  22.761  0.00  0.00    -0.245 OA
BRANCH  15  17
ATOM     17  O   UNL     1       9.247  -1.923  21.230  0.00  0.00    -0.477 OA
ATOM     18  H   UNL     1       8.702  -2.703  21.439  0.00  0.00    +0.295 HD
ENDBRANCH  15  17
ENDBRANCH  13  15
BRANCH   1  19
ATOM     19  C   UNL     1       8.336  -2.101  24.974  0.00  0.00    +0.157 C 
BRANCH  19  22
ATOM     20  C   UNL     1       6.069  -4.403  22.893  0.00  0.00    +0.037 A 
ATOM     21  C   UNL     1       7.215  -3.855  23.497  0.00  0.00    +0.018 A 
ATOM     22  C   UNL     1       7.104  -2.822  24.455  0.00  0.00    -0.027 A 
ATOM     23  C   UNL     1       5.821  -2.447  24.890  0.00  0.00    +0.005 A 
ATOM     24  C   UNL     1       4.679  -3.034  24.338  0.00  0.00    +0.001 A 
ATOM     25  C   UNL     1       4.802  -3.989  23.329  0.00  0.00    +0.013 A 
BRANCH  20  29
ATOM     26  N   UNL     1       6.395  -6.661  21.961  0.00  0.00    -0.325 N 
ATOM     27  H   UNL     1       6.568  -7.076  22.862  0.00  0.00    +0.145 HD
ATOM     28  H   UNL     1       6.474  -7.253  21.144  0.00  0.00    +0.145 HD
ATOM     29  C   UNL     1       6.114  -5.343  21.730  0.00  0.00    +0.242 C 
ATOM     30  O   UNL     1       5.942  -4.952  20.581  0.00  0.00    -0.270 OA
ENDBRANCH  20  29
ENDBRANCH  19  22
ENDBRANCH   1  19
TORSDOF 5
ENDMDL
MODEL 8
REMARK VINA RESULT:      -6.8      2.990      5.247
REMARK  Name = 
REMARK  5 active torsions:
REMARK  status: ('A' for Active; 'I' for Inactive)
REMARK    1  A    between atoms: C_2  and  C_4
REMARK    2  A    between atoms: C_8  and  C_9
REMARK    3  A    between atoms: C_9  and  N_10
REMARK    4  A    between atoms: C_22  and  C_23
REMARK    5  A    between atoms: C_23  and  O_24
REMARK                            x       y       z     vdW  Elec       q    Type
REMARK                         _______ _______ _______ _____ _____    ______ ____
ROOT
ATOM      1  N   UNL     1       6.273  -1.826  24.306  0.00  0.00    -0.339 N 
ATOM      2  C   UNL     1       7.476  -1.296  23.765  0.00  0.00    +0.064 A 
ATOM      3  C   UNL     1       7.780  -2.077  22.627  0.00  0.00    +0.004 A 
ATOM      4  C   UNL     1       8.966  -1.853  21.896  0.00  0.00    +0.010 A 
ATOM      5  C   UNL     1       9.860  -0.867  22.276  0.00  0.00    +0.002 A 
ATOM      6  C   UNL     1       9.569  -0.079  23.372  0.00  0.00    +0.017 A 
ATOM      7  C   UNL     1       6.744  -3.021  22.451  0.00  0.00    -0.019 A 
ATOM      8  C   UNL     1       6.659  -4.089  21.401  0.00  0.00    +0.037 C 
ATOM      9  C   UNL     1       6.739  -5.500  21.996  0.00  0.00    +0.005 C 
ATOM     10  C   UNL     1       5.474  -5.967  22.726  0.00  0.00    +0.001 C 
ATOM     11  C   UNL     1       5.068  -5.141  23.953  0.00  0.00    +0.006 C 
ATOM     12  C   UNL     1       4.620  -3.721  23.589  0.00  0.00    +0.054 C 
ATOM     13  C   UNL     1       8.373  -0.240  24.120  0.00  0.00    +0.083 A 
ATOM     14  C   UNL     1       5.821  -2.833  23.461  0.00  0.00    +0.023 A 
ENDROOT
BRANCH  13  15
ATOM     15  C   UNL     1       8.180   0.701  25.253  0.00  0.00    +0.339 C 
ATOM     16  O   UNL     1       7.555   1.742  25.172  0.00  0.00    -0.245 OA
BRANCH  15  17
ATOM     17  O   UNL     1       8.731   0.275  26.405  0.00  0.00    -0.477 OA
ATOM     18  H   UNL     1       8.151  -0.261  26.975  0.00  0.00    +0.295 HD
ENDBRANCH  15  17
ENDBRANCH  13  15
BRANCH   1  19
ATOM     19  C   UNL     1       5.728  -1.399  25.619  0.00  0.00    +0.157 C 
BRANCH  19  22
ATOM     20  C   UNL     1       6.059  -4.538  27.811  0.00  0.00    +0.037 A 
ATOM     21  C   UNL     1       6.376  -3.498  26.918  0.00  0.00    +0.018 A 
ATOM     22  C   UNL     1       5.480  -2.425  26.712  0.00  0.00    -0.027 A 
ATOM     23  C   UNL     1       4.328  -2.349  27.513  0.00  0.00    +0.005 A 
ATOM     24  C   UNL     1       4.041  -3.349  28.447  0.00  0.00    +0.001 A 
ATOM     25  C   UNL     1       4.889  -4.448  28.578  0.00  0.00    +0.013 A 
BRANCH  20  29
ATOM     26  N   UNL     1       7.964  -5.953  27.145  0.00  0.00    -0.325 N 
ATOM     27  H   UNL     1       8.319  -5.275  26.490  0.00  0.00    +0.145 HD
ATOM     28  H   UNL     1       8.440  -6.844  27.210  0.00  0.00    +0.145 HD
ATOM     29  C   UNL     1       6.852  -5.801  27.926  0.00  0.00    +0.242 C 
ATOM     30  O   UNL     1       6.508  -6.710  28.674  0.00  0.00    -0.270 OA
ENDBRANCH  20  29
ENDBRANCH  19  22
ENDBRANCH   1  19
TORSDOF 5
ENDMDL
MODEL 9
REMARK VINA RESULT:      -6.5      2.557      6.130
REMARK  Name = 
REMARK  5 active torsions:
REMARK  status: ('A' for Active; 'I' for Inactive)
REMARK    1  A    between atoms: C_2  and  C_4
REMARK    2  A    between atoms: C_8  and  C_9
REMARK    3  A    between atoms: C_9  and  N_10
REMARK    4  A    between atoms: C_22  and  C_23
REMARK    5  A    between atoms: C_23  and  O_24
REMARK                            x       y       z     vdW  Elec       q    Type
REMARK                         _______ _______ _______ _____ _____    ______ ____
ROOT
ATOM      1  N   UNL     1       6.551  -2.025  23.944  0.00  0.00    -0.339 N 
ATOM      2  C   UNL     1       5.631  -1.882  25.018  0.00  0.00    +0.064 A 
ATOM      3  C   UNL     1       5.183  -3.183  25.337  0.00  0.00    +0.004 A 
ATOM      4  C   UNL     1       4.195  -3.384  26.324  0.00  0.00    +0.010 A 
ATOM      5  C   UNL     1       3.640  -2.312  27.002  0.00  0.00    +0.002 A 
ATOM      6  C   UNL     1       4.081  -1.034  26.721  0.00  0.00    +0.017 A 
ATOM      7  C   UNL     1       5.869  -4.101  24.510  0.00  0.00    -0.019 A 
ATOM      8  C   UNL     1       5.688  -5.589  24.460  0.00  0.00    +0.037 C 
ATOM      9  C   UNL     1       5.109  -6.061  23.121  0.00  0.00    +0.005 C 
ATOM     10  C   UNL     1       6.093  -6.035  21.945  0.00  0.00    +0.001 C 
ATOM     11  C   UNL     1       6.645  -4.654  21.569  0.00  0.00    +0.006 C 
ATOM     12  C   UNL     1       7.555  -4.064  22.651  0.00  0.00    +0.054 C 
ATOM     13  C   UNL     1       5.097  -0.782  25.762  0.00  0.00    +0.083 A 
ATOM     14  C   UNL     1       6.720  -3.382  23.693  0.00  0.00    +0.023 A 
ENDROOT
BRANCH  13  15
ATOM     15  C   UNL     1       5.493   0.639  25.588  0.00  0.00    +0.339 C 
ATOM     16  O   UNL     1       6.332   1.198  26.269  0.00  0.00    -0.245 OA
BRANCH  15  17
ATOM     17  O   UNL     1       4.862   1.252  24.569  0.00  0.00    -0.477 OA
ATOM     18  H   UNL     1       5.366   1.313  23.738  0.00  0.00    +0.295 HD
ENDBRANCH  15  17
ENDBRANCH  13  15
BRANCH   1  19
ATOM     19  C   UNL     1       7.098  -0.865  23.197  0.00  0.00    +0.157 C 
BRANCH  19  22
ATOM     20  C   UNL     1       9.719   1.879  23.807  0.00  0.00    +0.037 A 
ATOM     21  C   UNL     1       8.507   1.245  23.480  0.00  0.00    +0.018 A 
ATOM     22  C   UNL     1       8.328  -0.137  23.714  0.00  0.00    -0.027 A 
ATOM     23  C   UNL     1       9.334  -0.837  24.402  0.00  0.00    +0.005 A 
ATOM     24  C   UNL     1      10.515  -0.195  24.786  0.00  0.00    +0.001 A 
ATOM     25  C   UNL     1      10.715   1.148  24.470  0.00  0.00    +0.013 A 
BRANCH  20  29
ATOM     26  N   UNL     1       9.045   4.118  23.029  0.00  0.00    -0.325 N 
ATOM     27  H   UNL     1       8.065   3.885  23.008  0.00  0.00    +0.145 HD
ATOM     28  H   UNL     1       9.320   5.037  22.706  0.00  0.00    +0.145 HD
ATOM     29  C   UNL     1      10.058   3.279  23.403  0.00  0.00    +0.242 C 
ATOM     30  O   UNL     1      11.217   3.674  23.366  0.00  0.00    -0.270 OA
ENDBRANCH  20  29
ENDBRANCH  19  22
ENDBRANCH   1  19
TORSDOF 5
ENDMDL
