MODEL 1
REMARK VINA RESULT:      -7.4      0.000      0.000
REMARK  Name = 
REMARK  7 active torsions:
REMARK  status: ('A' for Active; 'I' for Inactive)
REMARK    1  A    between atoms: O_1  and  C_2
REMARK    2  A    between atoms: C_2  and  C_4
REMARK    3  A    between atoms: C_4  and  O_5
REMARK    4  A    between atoms: O_5  and  C_6
REMARK    5  A    between atoms: C_12  and  C_13
REMARK    6  A    between atoms: N_15  and  C_16
REMARK    7  A    between atoms: C_16  and  C_17
REMARK                            x       y       z     vdW  Elec       q    Type
REMARK                         _______ _______ _______ _____ _____    ______ ____
ROOT
ATOM      1  C   UNL     1       6.969  -4.720  24.414  0.00  0.00    +0.135 A 
ATOM      2  C   UNL     1       8.184  -4.384  25.040  0.00  0.00    +0.078 A 
ATOM      3  C   UNL     1       8.374  -4.702  26.396  0.00  0.00    +0.018 A 
ATOM      4  C   UNL     1       7.355  -5.298  27.139  0.00  0.00    +0.021 A 
ATOM      5  C   UNL     1       6.134  -5.566  26.533  0.00  0.00    +0.044 A 
ATOM      6 CL   UNL     1       4.862  -6.277  27.448  0.00  0.00    -0.083 Cl
ATOM      7  C   UNL     1       5.933  -5.275  25.182  0.00  0.00    +0.066 A 
ENDROOT
BRANCH   2   8
ATOM      8  C   UNL     1       9.329  -3.720  24.348  0.00  0.00    +0.248 C 
ATOM      9  N   UNL     1       9.040  -2.685  23.484  0.00  0.00    -0.307 N 
ATOM     10  H   UNL     1       8.081  -2.387  23.357  0.00  0.00    +0.149 HD
ATOM     11  O   UNL     1      10.477  -4.073  24.596  0.00  0.00    -0.270 OA
BRANCH   9  12
ATOM     12  C   UNL     1      10.117  -1.925  22.882  0.00  0.00    +0.142 C 
BRANCH  12  13
ATOM     13  C   UNL     1       9.984  -0.446  23.120  0.00  0.00    +0.005 A 
ATOM     14  C   UNL     1      10.202   0.110  24.391  0.00  0.00    +0.009 A 
ATOM     15  C   UNL     1      10.104   1.490  24.588  0.00  0.00    +0.016 A 
ATOM     16  C   UNL     1       9.791   2.324  23.513  0.00  0.00    +0.021 A 
ATOM     17 BR   UNL     1       9.660   4.191  23.782  0.00  0.00    -0.050 Br
ATOM     18  C   UNL     1       9.580   1.793  22.245  0.00  0.00    +0.054 A 
ATOM     19  C   UNL     1       9.680   0.417  22.061  0.00  0.00    +0.129 A 
ATOM     20  F   UNL     1       9.490  -0.079  20.831  0.00  0.00    -0.205 F 
ENDBRANCH  12  13
ENDBRANCH   9  12
ENDBRANCH   2   8
BRANCH   1  21
ATOM     21  O   UNL     1       6.856  -4.496  23.064  0.00  0.00    -0.480 OA
BRANCH  21  22
ATOM     22  C   UNL     1       7.113  -5.622  22.217  0.00  0.00    +0.349 C 
BRANCH  22  23
ATOM     23  C   UNL     1       5.940  -5.819  21.273  0.00  0.00    +0.343 C 
ATOM     24  O   UNL     1       5.999  -5.622  20.068  0.00  0.00    -0.247 OA
BRANCH  23  25
ATOM     25  O   UNL     1       4.795  -6.175  21.902  0.00  0.00    -0.478 OA
ATOM     26  H   UNL     1       4.635  -5.630  22.702  0.00  0.00    +0.295 HD
ENDBRANCH  23  25
ENDBRANCH  22  23
ENDBRANCH  21  22
ENDBRANCH   1  21
TORSDOF 7
ENDMDL
MODEL 2
REMARK VINA RESULT:      -7.3      1.038      1.313
REMARK  Name = 
REMARK  7 active torsions:
REMARK  status: ('A' for Active; 'I' for Inactive)
REMARK    1  A    between atoms: O_1  and  C_2
REMARK    2  A    between atoms: C_2  and  C_4
REMARK    3  A    between atoms: C_4  and  O_5
REMARK    4  A    between atoms: O_5  and  C_6
REMARK    5  A    between atoms: C_12  and  C_13
REMARK    6  A    between atoms: N_15  and  C_16
REMARK    7  A    between atoms: C_16  and  C_17
REMARK                            x       y       z     vdW  Elec       q    Type
REMARK                         _______ _______ _______ _____ _____    ______ ____
ROOT
ATOM      1  C   UNL     1       6.764  -5.250  24.707  0.00  0.00    +0.135 A 
ATOM      2  C   UNL     1       7.929  -4.788  25.346  0.00  0.00    +0.078 A 
ATOM      3  C   UNL     1       8.050  -4.915  26.742  0.00  0.00    +0.018 A 
ATOM      4  C   UNL     1       7.007  -5.447  27.502  0.00  0.00    +0.021 A 
ATOM      5  C   UNL     1       5.833  -5.839  26.871  0.00  0.00    +0.044 A 
ATOM      6 CL   UNL     1       4.533  -6.472  27.804  0.00  0.00    -0.083 Cl
ATOM      7  C   UNL     1       5.703  -5.738  25.485  0.00  0.00    +0.066 A 
ENDROOT
BRANCH   2   8
ATOM      8  C   UNL     1       9.092  -4.178  24.634  0.00  0.00    +0.248 C 
ATOM      9  N   UNL     1       8.869  -3.018  23.923  0.00  0.00    -0.307 N 
ATOM     10  H   UNL     1       7.947  -2.599  23.917  0.00  0.00    +0.149 HD
ATOM     11  O   UNL     1      10.203  -4.686  24.737  0.00  0.00    -0.270 OA
BRANCH   9  12
ATOM     12  C   UNL     1       9.982  -2.316  23.317  0.00  0.00    +0.142 C 
BRANCH  12  13
ATOM     13  C   UNL     1       9.863  -0.823  23.446  0.00  0.00    +0.005 A 
ATOM     14  C   UNL     1       9.896  -0.195  24.701  0.00  0.00    +0.009 A 
ATOM     15  C   UNL     1       9.814   1.197  24.801  0.00  0.00    +0.016 A 
ATOM     16  C   UNL     1       9.705   1.970  23.644  0.00  0.00    +0.021 A 
ATOM     17 BR   UNL     1       9.596   3.853  23.782  0.00  0.00    -0.050 Br
ATOM     18  C   UNL     1       9.680   1.368  22.391  0.00  0.00    +0.054 A 
ATOM     19  C   UNL     1       9.762  -0.020  22.304  0.00  0.00    +0.129 A 
ATOM     20  F   UNL     1       9.753  -0.586  21.090  0.00  0.00    -0.205 F 
ENDBRANCH  12  13
ENDBRANCH   9  12
ENDBRANCH   2   8
BRANCH   1  21
ATOM     21  O   UNL     1       6.724  -5.211  23.335  0.00  0.00    -0.480 OA
BRANCH  21  22
ATOM     22  C   UNL     1       5.516  -4.708  22.755  0.00  0.00    +0.349 C 
BRANCH  22  23
ATOM     23  C   UNL     1       5.823  -3.444  21.970  0.00  0.00    +0.343 C 
ATOM     24  O   UNL     1       6.175  -2.394  22.486  0.00  0.00    -0.247 OA
BRANCH  23  25
ATOM     25  O   UNL     1       5.608  -3.570  20.639  0.00  0.00    -0.478 OA
ATOM     26  H   UNL     1       6.007  -4.392  20.281  0.00  0.00    +0.295 HD
ENDBRANCH  23  25
ENDBRANCH  22  23
ENDBRANCH  21  22
ENDBRANCH   1  21
TORSDOF 7
ENDMDL
MODEL 3
REMARK VINA RESULT:      -7.2      2.298      3.572
REMARK  Name = 
REMARK  7 active torsions:
REMARK  status: ('A' for Active; 'I' for Inactive)
REMARK    1  A    between atoms: O_1  and  C_2
REMARK    2  A    between atoms: C_2  and  C_4
REMARK    3  A    between atoms: C_4  and  O_5
REMARK    4  A    between atoms: O_5  and  C_6
REMARK    5  A    between atoms: C_12  and  C_13
REMARK    6  A    between atoms: N_15  and  C_16
REMARK    7  A    between atoms: C_16  and  C_17
REMARK                            x       y       z     vdW  Elec       q    Type
REMARK                         _______ _______ _______ _____ _____    ______ ____
ROOT
ATOM      1  C   UNL     1       6.433  -3.906  24.422  0.00  0.00    +0.135 A 
ATOM      2  C   UNL     1       7.369  -3.984  23.374  0.00  0.00    +0.078 A 
ATOM      3  C   UNL     1       7.024  -4.658  22.189  0.00  0.00    +0.018 A 
ATOM      4  C   UNL     1       5.788  -5.292  22.062  0.00  0.00    +0.021 A 
ATOM      5  C   UNL     1       4.895  -5.268  23.126  0.00  0.00    +0.044 A 
ATOM      6 CL   UNL     1       3.379  -6.069  22.988  0.00  0.00    -0.083 Cl
ATOM      7  C   UNL     1       5.212  -4.587  24.303  0.00  0.00    +0.066 A 
ENDROOT
BRANCH   2   8
ATOM      8  C   UNL     1       8.728  -3.368  23.414  0.00  0.00    +0.248 C 
ATOM      9  N   UNL     1       8.972  -2.301  22.576  0.00  0.00    -0.307 N 
ATOM     10  H   UNL     1       8.233  -1.949  21.979  0.00  0.00    +0.149 HD
ATOM     11  O   UNL     1       9.563  -3.786  24.210  0.00  0.00    -0.270 OA
BRANCH   9  12
ATOM     12  C   UNL     1      10.230  -1.586  22.661  0.00  0.00    +0.142 C 
BRANCH  12  13
ATOM     13  C   UNL     1      10.044  -0.121  22.940  0.00  0.00    +0.005 A 
ATOM     14  C   UNL     1       9.867   0.803  21.898  0.00  0.00    +0.009 A 
ATOM     15  C   UNL     1       9.665   2.158  22.177  0.00  0.00    +0.016 A 
ATOM     16  C   UNL     1       9.635   2.597  23.502  0.00  0.00    +0.021 A 
ATOM     17 BR   UNL     1       9.361   4.429  23.877  0.00  0.00    -0.050 Br
ATOM     18  C   UNL     1       9.799   1.695  24.548  0.00  0.00    +0.054 A 
ATOM     19  C   UNL     1       9.999   0.348  24.258  0.00  0.00    +0.129 A 
ATOM     20  F   UNL     1      10.140  -0.511  25.277  0.00  0.00    -0.205 F 
ENDBRANCH  12  13
ENDBRANCH   9  12
ENDBRANCH   2   8
BRANCH   1  21
ATOM     21  O   UNL     1       6.759  -3.148  25.520  0.00  0.00    -0.480 OA
BRANCH  21  22
ATOM     22  C   UNL     1       6.552  -3.767  26.795  0.00  0.00    +0.349 C 
BRANCH  22  23
ATOM     23  C   UNL     1       7.614  -4.830  27.016  0.00  0.00    +0.343 C 
ATOM     24  O   UNL     1       7.363  -5.990  27.308  0.00  0.00    -0.247 OA
BRANCH  23  25
ATOM     25  O   UNL     1       8.880  -4.357  26.921  0.00  0.00    -0.478 OA
ATOM     26  H   UNL     1       8.933  -3.576  26.329  0.00  0.00    +0.295 HD
ENDBRANCH  23  25
ENDBRANCH  22  23
ENDBRANCH  21  22
ENDBRANCH   1  21
TORSDOF 7
ENDMDL
MODEL 4
REMARK VINA RESULT:      -7.0      2.277      3.284
REMARK  Name = 
REMARK  7 active torsions:
REMARK  status: ('A' for Active; 'I' for Inactive)
REMARK    1  A    between atoms: O_1  and  C_2
REMARK    2  A    between atoms: C_2  and  C_4
REMARK    3  A    between atoms: C_4  and  O_5
REMARK    4  A    between atoms: O_5  and  C_6
REMARK    5  A    between atoms: C_12  and  C_13
REMARK    6  A    between atoms: N_15  and  C_16
REMARK    7  A    between atoms: C_16  and  C_17
REMARK                            x       y       z     vdW  Elec       q    Type
REMARK                         _______ _______ _______ _____ _____    ______ ____
ROOT
ATOM      1  C   UNL     1       5.941  -3.834  24.327  0.00  0.00    +0.135 A 
ATOM      2  C   UNL     1       6.993  -4.348  23.547  0.00  0.00    +0.078 A 
ATOM      3  C   UNL     1       6.724  -5.349  22.596  0.00  0.00    +0.018 A 
ATOM      4  C   UNL     1       5.438  -5.871  22.455  0.00  0.00    +0.021 A 
ATOM      5  C   UNL     1       4.417  -5.406  23.275  0.00  0.00    +0.044 A 
ATOM      6 CL   UNL     1       2.834  -6.064  23.126  0.00  0.00    -0.083 Cl
ATOM      7  C   UNL     1       4.661  -4.400  24.211  0.00  0.00    +0.066 A 
ENDROOT
BRANCH   2   8
ATOM      8  C   UNL     1       8.409  -3.883  23.635  0.00  0.00    +0.248 C 
ATOM      9  N   UNL     1       8.738  -2.711  22.988  0.00  0.00    -0.307 N 
ATOM     10  H   UNL     1       8.024  -2.189  22.495  0.00  0.00    +0.149 HD
ATOM     11  O   UNL     1       9.217  -4.515  24.308  0.00  0.00    -0.270 OA
BRANCH   9  12
ATOM     12  C   UNL     1      10.064  -2.148  23.142  0.00  0.00    +0.142 C 
BRANCH  12  13
ATOM     13  C   UNL     1      10.043  -0.651  23.286  0.00  0.00    +0.005 A 
ATOM     14  C   UNL     1      10.303  -0.034  24.520  0.00  0.00    +0.009 A 
ATOM     15  C   UNL     1      10.310   1.360  24.629  0.00  0.00    +0.016 A 
ATOM     16  C   UNL     1      10.060   2.145  23.502  0.00  0.00    +0.021 A 
ATOM     17 BR   UNL     1      10.069   4.030  23.652  0.00  0.00    -0.050 Br
ATOM     18  C   UNL     1       9.809   1.552  22.270  0.00  0.00    +0.054 A 
ATOM     19  C   UNL     1       9.805   0.163  22.173  0.00  0.00    +0.129 A 
ATOM     20  F   UNL     1       9.578  -0.394  20.976  0.00  0.00    -0.205 F 
ENDBRANCH  12  13
ENDBRANCH   9  12
ENDBRANCH   2   8
BRANCH   1  21
ATOM     21  O   UNL     1       6.216  -2.783  25.167  0.00  0.00    -0.480 OA
BRANCH  21  22
ATOM     22  C   UNL     1       5.449  -1.592  24.956  0.00  0.00    +0.349 C 
BRANCH  22  23
ATOM     23  C   UNL     1       6.323  -0.540  24.296  0.00  0.00    +0.343 C 
ATOM     24  O   UNL     1       6.844   0.386  24.900  0.00  0.00    -0.247 OA
BRANCH  23  25
ATOM     25  O   UNL     1       6.423  -0.687  22.953  0.00  0.00    -0.478 OA
ATOM     26  H   UNL     1       7.116  -1.336  22.708  0.00  0.00    +0.295 HD
ENDBRANCH  23  25
ENDBRANCH  22  23
ENDBRANCH  21  22
ENDBRANCH   1  21
TORSDOF 7
ENDMDL
MODEL 5
REMARK VINA RESULT:      -6.7      4.205      6.801
REMARK  Name = 
REMARK  7 active torsions:
REMARK  status: ('A' for Active; 'I' for Inactive)
REMARK    1  A    between atoms: O_1  and  C_2
REMARK    2  A    between atoms: C_2  and  C_4
REMARK    3  A    between atoms: C_4  and  O_5
REMARK    4  A    between atoms: O_5  and  C_6
REMARK    5  A    between atoms: C_12  and  C_13
REMARK    6  A    between atoms: N_15  and  C_16
REMARK    7  A    between atoms: C_16  and  C_17
REMARK                            x       y       z     vdW  Elec       q    Type
REMARK                         _______ _______ _______ _____ _____    ______ ____
ROOT
ATOM      1  C   UNL     1       8.286   0.049  23.705  0.00  0.00    +0.135 A 
ATOM      2  C   UNL     1       9.520  -0.583  23.942  0.00  0.00    +0.078 A 
ATOM      3  C   UNL     1      10.658   0.199  24.207  0.00  0.00    +0.018 A 
ATOM      4  C   UNL     1      10.587   1.592  24.186  0.00  0.00    +0.021 A 
ATOM      5  C   UNL     1       9.380   2.210  23.884  0.00  0.00    +0.044 A 
ATOM      6 CL   UNL     1       9.289   3.928  23.830  0.00  0.00    -0.083 Cl
ATOM      7  C   UNL     1       8.235   1.450  23.638  0.00  0.00    +0.066 A 
ENDROOT
BRANCH   2   8
ATOM      8  C   UNL     1       9.715  -2.064  23.960  0.00  0.00    +0.248 C 
ATOM      9  N   UNL     1       9.054  -2.783  24.933  0.00  0.00    -0.307 N 
ATOM     10  H   UNL     1       8.445  -2.307  25.587  0.00  0.00    +0.149 HD
ATOM     11  O   UNL     1      10.404  -2.598  23.098  0.00  0.00    -0.270 OA
BRANCH   9  12
ATOM     12  C   UNL     1       9.107  -4.232  24.922  0.00  0.00    +0.142 C 
BRANCH  12  13
ATOM     13  C   UNL     1       7.746  -4.859  24.805  0.00  0.00    +0.005 A 
ATOM     14  C   UNL     1       7.066  -5.341  25.935  0.00  0.00    +0.009 A 
ATOM     15  C   UNL     1       5.788  -5.893  25.811  0.00  0.00    +0.016 A 
ATOM     16  C   UNL     1       5.180  -5.963  24.556  0.00  0.00    +0.021 A 
ATOM     17 BR   UNL     1       3.451  -6.711  24.392  0.00  0.00    -0.050 Br
ATOM     18  C   UNL     1       5.834  -5.483  23.427  0.00  0.00    +0.054 A 
ATOM     19  C   UNL     1       7.107  -4.935  23.562  0.00  0.00    +0.129 A 
ATOM     20  F   UNL     1       7.718  -4.462  22.468  0.00  0.00    -0.205 F 
ENDBRANCH  12  13
ENDBRANCH   9  12
ENDBRANCH   2   8
BRANCH   1  21
ATOM     21  O   UNL     1       7.174  -0.743  23.559  0.00  0.00    -0.480 OA
BRANCH  21  22
ATOM     22  C   UNL     1       6.057  -0.419  24.395  0.00  0.00    +0.349 C 
BRANCH  22  23
ATOM     23  C   UNL     1       5.632  -1.654  25.169  0.00  0.00    +0.343 C 
ATOM     24  O   UNL     1       4.638  -2.313  24.904  0.00  0.00    -0.247 OA
BRANCH  23  25
ATOM     25  O   UNL     1       6.428  -1.925  26.231  0.00  0.00    -0.478 OA
ATOM     26  H   UNL     1       7.183  -1.302  26.289  0.00  0.00    +0.295 HD
ENDBRANCH  23  25
ENDBRANCH  22  23
ENDBRANCH  21  22
ENDBRANCH   1  21
TORSDOF 7
ENDMDL
MODEL 6
REMARK VINA RESULT:      -6.7      5.493      8.841
REMARK  Name = 
REMARK  7 active torsions:
REMARK  status: ('A' for Active; 'I' for Inactive)
REMARK    1  A    between atoms: O_1  and  C_2
REMARK    2  A    between atoms: C_2  and  C_4
REMARK    3  A    between atoms: C_4  and  O_5
REMARK    4  A    between atoms: O_5  and  C_6
REMARK    5  A    between atoms: C_12  and  C_13
REMARK    6  A    between atoms: N_15  and  C_16
REMARK    7  A    between atoms: C_16  and  C_17
REMARK                            x       y       z     vdW  Elec       q    Type
REMARK                         _______ _______ _______ _____ _____    ______ ____
ROOT
ATOM      1  C   UNL     1       8.638   4.685  23.690  0.00  0.00    +0.135 A 
ATOM      2  C   UNL     1       8.530   3.395  23.137  0.00  0.00    +0.078 A 
ATOM      3  C   UNL     1       7.411   3.072  22.349  0.00  0.00    +0.018 A 
ATOM      4  C   UNL     1       6.386   3.998  22.152  0.00  0.00    +0.021 A 
ATOM      5  C   UNL     1       6.468   5.247  22.756  0.00  0.00    +0.044 A 
ATOM      6 CL   UNL     1       5.195   6.385  22.540  0.00  0.00    -0.083 Cl
ATOM      7  C   UNL     1       7.580   5.592  23.526  0.00  0.00    +0.066 A 
ENDROOT
BRANCH   2   8
ATOM      8  C   UNL     1       9.553   2.321  23.307  0.00  0.00    +0.248 C 
ATOM      9  N   UNL     1       9.743   1.815  24.576  0.00  0.00    -0.307 N 
ATOM     10  H   UNL     1       9.182   2.158  25.345  0.00  0.00    +0.149 HD
ATOM     11  O   UNL     1      10.152   1.889  22.328  0.00  0.00    -0.270 OA
BRANCH   9  12
ATOM     12  C   UNL     1      10.632   0.688  24.779  0.00  0.00    +0.142 C 
BRANCH  12  13
ATOM     13  C   UNL     1       9.896  -0.621  24.861  0.00  0.00    +0.005 A 
ATOM     14  C   UNL     1       9.071  -0.925  25.957  0.00  0.00    +0.009 A 
ATOM     15  C   UNL     1       8.370  -2.133  26.003  0.00  0.00    +0.016 A 
ATOM     16  C   UNL     1       8.486  -3.044  24.951  0.00  0.00    +0.021 A 
ATOM     17 BR   UNL     1       7.536  -4.677  25.016  0.00  0.00    -0.050 Br
ATOM     18  C   UNL     1       9.291  -2.756  23.854  0.00  0.00    +0.054 A 
ATOM     19  C   UNL     1       9.984  -1.549  23.819  0.00  0.00    +0.129 A 
ATOM     20  F   UNL     1      10.743  -1.279  22.748  0.00  0.00    -0.205 F 
ENDBRANCH  12  13
ENDBRANCH   9  12
ENDBRANCH   2   8
BRANCH   1  21
ATOM     21  O   UNL     1       9.793   5.003  24.361  0.00  0.00    -0.480 OA
BRANCH  21  22
ATOM     22  C   UNL     1      10.642   5.969  23.730  0.00  0.00    +0.349 C 
BRANCH  22  23
ATOM     23  C   UNL     1      12.074   5.464  23.740  0.00  0.00    +0.343 C 
ATOM     24  O   UNL     1      12.434   4.434  23.189  0.00  0.00    -0.247 OA
BRANCH  23  25
ATOM     25  O   UNL     1      12.912   6.232  24.476  0.00  0.00    -0.478 OA
ATOM     26  H   UNL     1      12.535   6.440  25.358  0.00  0.00    +0.295 HD
ENDBRANCH  23  25
ENDBRANCH  22  23
ENDBRANCH  21  22
ENDBRANCH   1  21
TORSDOF 7
ENDMDL
MODEL 7
REMARK VINA RESULT:      -6.6      4.612      7.456
REMARK  Name = 
REMARK  7 active torsions:
REMARK  status: ('A' for Active; 'I' for Inactive)
REMARK    1  A    between atoms: O_1  and  C_2
REMARK    2  A    between atoms: C_2  and  C_4
REMARK    3  A    between atoms: C_4  and  O_5
REMARK    4  A    between atoms: O_5  and  C_6
REMARK    5  A    between atoms: C_12  and  C_13
REMARK    6  A    between atoms: N_15  and  C_16
REMARK    7  A    between atoms: C_16  and  C_17
REMARK                            x       y       z     vdW  Elec       q    Type
REMARK                         _______ _______ _______ _____ _____    ______ ____
ROOT
ATOM      1  C   UNL     1      10.105   1.938  23.919  0.00  0.00    +0.135 A 
ATOM      2  C   UNL     1       8.915   2.042  24.664  0.00  0.00    +0.078 A 
ATOM      3  C   UNL     1       8.392   3.314  24.957  0.00  0.00    +0.018 A 
ATOM      4  C   UNL     1       9.065   4.470  24.562  0.00  0.00    +0.021 A 
ATOM      5  C   UNL     1      10.273   4.361  23.885  0.00  0.00    +0.044 A 
ATOM      6 CL   UNL     1      11.123   5.782  23.417  0.00  0.00    -0.083 Cl
ATOM      7  C   UNL     1      10.798   3.107  23.569  0.00  0.00    +0.066 A 
ENDROOT
BRANCH   2   8
ATOM      8  C   UNL     1       8.131   0.872  25.160  0.00  0.00    +0.248 C 
ATOM      9  N   UNL     1       8.831  -0.254  25.536  0.00  0.00    -0.307 N 
ATOM     10  H   UNL     1       9.843  -0.258  25.490  0.00  0.00    +0.149 HD
ATOM     11  O   UNL     1       6.912   0.957  25.265  0.00  0.00    -0.270 OA
BRANCH   9  12
ATOM     12  C   UNL     1       8.133  -1.372  26.139  0.00  0.00    +0.142 C 
BRANCH  12  13
ATOM     13  C   UNL     1       7.850  -2.475  25.158  0.00  0.00    +0.005 A 
ATOM     14  C   UNL     1       6.997  -2.273  24.060  0.00  0.00    +0.009 A 
ATOM     15  C   UNL     1       6.769  -3.300  23.140  0.00  0.00    +0.016 A 
ATOM     16  C   UNL     1       7.396  -4.535  23.310  0.00  0.00    +0.021 A 
ATOM     17 BR   UNL     1       7.086  -5.923  22.064  0.00  0.00    -0.050 Br
ATOM     18  C   UNL     1       8.251  -4.752  24.385  0.00  0.00    +0.054 A 
ATOM     19  C   UNL     1       8.470  -3.721  25.295  0.00  0.00    +0.129 A 
ATOM     20  F   UNL     1       9.309  -3.939  26.318  0.00  0.00    -0.205 F 
ENDBRANCH  12  13
ENDBRANCH   9  12
ENDBRANCH   2   8
BRANCH   1  21
ATOM     21  O   UNL     1      10.530   0.683  23.557  0.00  0.00    -0.480 OA
BRANCH  21  22
ATOM     22  C   UNL     1      10.138   0.240  22.252  0.00  0.00    +0.349 C 
BRANCH  22  23
ATOM     23  C   UNL     1      10.043  -1.276  22.244  0.00  0.00    +0.343 C 
ATOM     24  O   UNL     1      10.513  -1.990  23.117  0.00  0.00    -0.247 OA
BRANCH  23  25
ATOM     25  O   UNL     1       9.439  -1.773  21.138  0.00  0.00    -0.478 OA
ATOM     26  H   UNL     1       8.714  -1.190  20.826  0.00  0.00    +0.295 HD
ENDBRANCH  23  25
ENDBRANCH  22  23
ENDBRANCH  21  22
ENDBRANCH   1  21
TORSDOF 7
ENDMDL
MODEL 8
REMARK VINA RESULT:      -6.6      4.403      7.053
REMARK  Name = 
REMARK  7 active torsions:
REMARK  status: ('A' for Active; 'I' for Inactive)
REMARK    1  A    between atoms: O_1  and  C_2
REMARK    2  A    between atoms: C_2  and  C_4
REMARK    3  A    between atoms: C_4  and  O_5
REMARK    4  A    between atoms: O_5  and  C_6
REMARK    5  A    between atoms: C_12  and  C_13
REMARK    6  A    between atoms: N_15  and  C_16
REMARK    7  A    between atoms: C_16  and  C_17
REMARK                            x       y       z     vdW  Elec       q    Type
REMARK                         _______ _______ _______ _____ _____    ______ ____
ROOT
ATOM      1  C   UNL     1       9.312   1.589  24.535  0.00  0.00    +0.135 A 
ATOM      2  C   UNL     1       8.588   0.705  25.356  0.00  0.00    +0.078 A 
ATOM      3  C   UNL     1       7.510   1.192  26.115  0.00  0.00    +0.018 A 
ATOM      4  C   UNL     1       7.183   2.548  26.102  0.00  0.00    +0.021 A 
ATOM      5  C   UNL     1       7.944   3.427  25.341  0.00  0.00    +0.044 A 
ATOM      6 CL   UNL     1       7.564   5.105  25.339  0.00  0.00    -0.083 Cl
ATOM      7  C   UNL     1       9.006   2.959  24.566  0.00  0.00    +0.066 A 
ENDROOT
BRANCH   2   8
ATOM      8  C   UNL     1       8.870  -0.758  25.467  0.00  0.00    +0.248 C 
ATOM      9  N   UNL     1       9.012  -1.472  24.297  0.00  0.00    -0.307 N 
ATOM     10  H   UNL     1       8.947  -0.997  23.405  0.00  0.00    +0.149 HD
ATOM     11  O   UNL     1       9.013  -1.268  26.573  0.00  0.00    -0.270 OA
BRANCH   9  12
ATOM     12  C   UNL     1       9.408  -2.866  24.343  0.00  0.00    +0.142 C 
BRANCH  12  13
ATOM     13  C   UNL     1       8.230  -3.801  24.344  0.00  0.00    +0.005 A 
ATOM     14  C   UNL     1       7.813  -4.447  25.519  0.00  0.00    +0.009 A 
ATOM     15  C   UNL     1       6.698  -5.289  25.508  0.00  0.00    +0.016 A 
ATOM     16  C   UNL     1       5.989  -5.488  24.322  0.00  0.00    +0.021 A 
ATOM     17 BR   UNL     1       4.481  -6.627  24.310  0.00  0.00    -0.050 Br
ATOM     18  C   UNL     1       6.382  -4.850  23.150  0.00  0.00    +0.054 A 
ATOM     19  C   UNL     1       7.494  -4.013  23.173  0.00  0.00    +0.129 A 
ATOM     20  F   UNL     1       7.851  -3.392  22.040  0.00  0.00    -0.205 F 
ENDBRANCH  12  13
ENDBRANCH   9  12
ENDBRANCH   2   8
BRANCH   1  21
ATOM     21  O   UNL     1      10.287   1.063  23.724  0.00  0.00    -0.480 OA
BRANCH  21  22
ATOM     22  C   UNL     1      10.309   1.542  22.374  0.00  0.00    +0.349 C 
BRANCH  22  23
ATOM     23  C   UNL     1       9.369   0.703  21.527  0.00  0.00    +0.343 C 
ATOM     24  O   UNL     1       9.431  -0.515  21.448  0.00  0.00    -0.247 OA
BRANCH  23  25
ATOM     25  O   UNL     1       8.487   1.439  20.810  0.00  0.00    -0.478 OA
ATOM     26  H   UNL     1       8.383   2.343  21.177  0.00  0.00    +0.295 HD
ENDBRANCH  23  25
ENDBRANCH  22  23
ENDBRANCH  21  22
ENDBRANCH   1  21
TORSDOF 7
ENDMDL
MODEL 9
REMARK VINA RESULT:      -6.5      4.500      7.296
REMARK  Name = 
REMARK  7 active torsions:
REMARK  status: ('A' for Active; 'I' for Inactive)
REMARK    1  A    between atoms: O_1  and  C_2
REMARK    2  A    between atoms: C_2  and  C_4
REMARK    3  A    between atoms: C_4  and  O_5
REMARK    4  A    between atoms: O_5  and  C_6
REMARK    5  A    between atoms: C_12  and  C_13
REMARK    6  A    between atoms: N_15  and  C_16
REMARK    7  A    between atoms: C_16  and  C_17
REMARK                            x       y       z     vdW  Elec       q    Type
REMARK                         _______ _______ _______ _____ _____    ______ ____
ROOT
ATOM      1  C   UNL     1       8.501   2.017  24.287  0.00  0.00    +0.135 A 
ATOM      2  C   UNL     1       9.605   1.686  23.479  0.00  0.00    +0.078 A 
ATOM      3  C   UNL     1      10.568   2.669  23.188  0.00  0.00    +0.018 A 
ATOM      4  C   UNL     1      10.414   3.977  23.647  0.00  0.00    +0.021 A 
ATOM      5  C   UNL     1       9.287   4.313  24.387  0.00  0.00    +0.044 A 
ATOM      6 CL   UNL     1       9.075   5.930  24.936  0.00  0.00    -0.083 Cl
ATOM      7  C   UNL     1       8.331   3.346  24.703  0.00  0.00    +0.066 A 
ENDROOT
BRANCH   2   8
ATOM      8  C   UNL     1       9.854   0.327  22.913  0.00  0.00    +0.248 C 
ATOM      9  N   UNL     1      10.063  -0.707  23.800  0.00  0.00    -0.307 N 
ATOM     10  H   UNL     1      10.023  -0.533  24.797  0.00  0.00    +0.149 HD
ATOM     11  O   UNL     1       9.817   0.158  21.699  0.00  0.00    -0.270 OA
BRANCH   9  12
ATOM     12  C   UNL     1      10.185  -2.066  23.312  0.00  0.00    +0.142 C 
BRANCH  12  13
ATOM     13  C   UNL     1       9.104  -2.969  23.838  0.00  0.00    +0.005 A 
ATOM     14  C   UNL     1       9.349  -3.860  24.895  0.00  0.00    +0.009 A 
ATOM     15  C   UNL     1       8.324  -4.670  25.392  0.00  0.00    +0.016 A 
ATOM     16  C   UNL     1       7.045  -4.590  24.837  0.00  0.00    +0.021 A 
ATOM     17 BR   UNL     1       5.661  -5.687  25.511  0.00  0.00    -0.050 Br
ATOM     18  C   UNL     1       6.781  -3.708  23.795  0.00  0.00    +0.054 A 
ATOM     19  C   UNL     1       7.810  -2.906  23.308  0.00  0.00    +0.129 A 
ATOM     20  F   UNL     1       7.537  -2.048  22.315  0.00  0.00    -0.205 F 
ENDBRANCH  12  13
ENDBRANCH   9  12
ENDBRANCH   2   8
BRANCH   1  21
ATOM     21  O   UNL     1       7.639   1.009  24.643  0.00  0.00    -0.480 OA
BRANCH  21  22
ATOM     22  C   UNL     1       7.402   0.851  26.047  0.00  0.00    +0.349 C 
BRANCH  22  23
ATOM     23  C   UNL     1       7.960  -0.485  26.504  0.00  0.00    +0.343 C 
ATOM     24  O   UNL     1       7.272  -1.475  26.706  0.00  0.00    -0.247 OA
BRANCH  23  25
ATOM     25  O   UNL     1       9.295  -0.463  26.732  0.00  0.00    -0.478 OA
ATOM     26  H   UNL     1       9.741  -1.253  26.358  0.00  0.00    +0.295 HD
ENDBRANCH  23  25
ENDBRANCH  22  23
ENDBRANCH  21  22
ENDBRANCH   1  21
TORSDOF 7
ENDMDL
