MODEL 1
REMARK VINA RESULT:      -5.2      0.000      0.000
REMARK  Name = 
REMARK  15 active torsions:
REMARK  status: ('A' for Active; 'I' for Inactive)
REMARK    1  A    between atoms: N_1  and  C_2
REMARK    2  A    between atoms: C_2  and  C_4
REMARK    3  A    between atoms: C_2  and  C_24
REMARK    4  A    between atoms: C_4  and  C_5
REMARK    5  A    between atoms: C_5  and  C_6
REMARK    6  A    between atoms: C_6  and  C_7
REMARK    7  A    between atoms: N_9  and  C_10
REMARK    8  A    between atoms: C_10  and  C_12
REMARK    9  A    between atoms: C_10  and  C_14
REMARK   10  A    between atoms: C_12  and  S_13
REMARK   11  A    between atoms: N_16  and  C_17
REMARK   12  A    between atoms: C_17  and  C_19
REMARK   13  A    between atoms: C_17  and  C_21
REMARK   14  A    between atoms: C_21  and  O_22
REMARK   15  A    between atoms: C_24  and  O_25
REMARK                            x       y       z     vdW  Elec       q    Type
REMARK                         _______ _______ _______ _____ _____    ______ ____
ROOT
ATOM      1  C   UNK A   1       5.106  -4.436  24.825  0.00  0.00    +0.214 C 
ATOM      2  N   UNK A   1       6.121  -3.852  24.107  0.00  0.00    -0.303 N 
ATOM      3  H   UNK A   1       7.062  -4.207  24.220  0.00  0.00    +0.149 HD
ATOM      4  O   UNK A   1       3.933  -4.108  24.696  0.00  0.00    -0.276 OA
ENDROOT
BRANCH   1   5
ATOM      5  C   UNK A   1       5.600  -5.478  25.813  0.00  0.00    +0.096 C 
BRANCH   5   6
ATOM      6  C   UNK A   1       6.359  -4.863  26.990  0.00  0.00    +0.011 C 
BRANCH   6   7
ATOM      7  C   UNK A   1       7.834  -5.278  26.970  0.00  0.00    +0.030 C 
BRANCH   7   8
ATOM      8  C   UNK A   1       8.785  -4.158  26.527  0.00  0.00    +0.161 C 
BRANCH   8   9
ATOM      9  N   UNK A   1       8.075  -2.856  26.343  0.00  0.00    -0.318 NA
ATOM     10  H   UNK A   1       8.151  -2.317  27.213  0.00  0.00    +0.119 HD
ATOM     11  H   UNK A   1       8.612  -2.301  25.670  0.00  0.00    +0.119 HD
ENDBRANCH   8   9
BRANCH   8  12
ATOM     12  C   UNK A   1       9.446  -4.540  25.185  0.00  0.00    +0.322 C 
ATOM     13  O   UNK A   1       9.216  -4.015  24.108  0.00  0.00    -0.249 OA
BRANCH  12  14
ATOM     14  O   UNK A   1      10.337  -5.553  25.350  0.00  0.00    -0.480 OA
ATOM     15  H   UNK A   1      11.216  -5.170  25.099  0.00  0.00    +0.295 HD
ENDBRANCH  12  14
ENDBRANCH   8  12
ENDBRANCH   7   8
ENDBRANCH   6   7
ENDBRANCH   5   6
ENDBRANCH   1   5
BRANCH   2  16
ATOM     16  C   UNK A   1       5.866  -2.917  23.004  0.00  0.00    +0.168 C 
BRANCH  16  17
ATOM     17  C   UNK A   1       6.630  -1.581  23.184  0.00  0.00    +0.235 C 
ATOM     18  N   UNK A   2       7.886  -1.516  22.623  0.00  0.00    -0.298 N 
ATOM     19  H   UNK A   2       8.321  -2.380  22.289  0.00  0.00    +0.150 HD
ATOM     20  O   UNK A   1       6.187  -0.662  23.874  0.00  0.00    -0.274 OA
BRANCH  18  21
ATOM     21  C   UNK A   2       8.751  -0.367  22.853  0.00  0.00    +0.205 C 
BRANCH  21  22
ATOM     22  C   UNK A   2      10.205  -0.778  23.174  0.00  0.00    +0.329 C 
ATOM     23  O   UNK A   2      10.946  -0.162  23.930  0.00  0.00    -0.249 OA
BRANCH  22  24
ATOM     24  O   UNK A   2      10.626  -1.893  22.521  0.00  0.00    -0.479 OA
ATOM     25  H   UNK A   2      10.235  -2.721  22.859  0.00  0.00    +0.295 HD
ENDBRANCH  22  24
ENDBRANCH  21  22
BRANCH  21  26
ATOM     26  C   UNK A   2       8.732   0.553  21.653  0.00  0.00    -0.001 C 
ATOM     27  C   UNK A   2       8.144   1.758  21.575  0.00  0.00    +0.006 C 
ENDBRANCH  21  26
ENDBRANCH  18  21
ENDBRANCH  16  17
BRANCH  16  28
ATOM     28  C   UNK A   1       6.257  -3.517  21.640  0.00  0.00    +0.097 C 
BRANCH  28  29
ATOM     29  S   UNK A   1       6.794  -5.260  21.744  0.00  0.00    -0.176 S 
ATOM     30  H   UNK A   1       6.490  -5.600  20.483  0.00  0.00    +0.102 HD
ENDBRANCH  28  29
ENDBRANCH  16  28
ENDBRANCH   2  16
TORSDOF 15
ENDMDL
MODEL 2
REMARK VINA RESULT:      -5.1      2.446      6.516
REMARK  Name = 
REMARK  15 active torsions:
REMARK  status: ('A' for Active; 'I' for Inactive)
REMARK    1  A    between atoms: N_1  and  C_2
REMARK    2  A    between atoms: C_2  and  C_4
REMARK    3  A    between atoms: C_2  and  C_24
REMARK    4  A    between atoms: C_4  and  C_5
REMARK    5  A    between atoms: C_5  and  C_6
REMARK    6  A    between atoms: C_6  and  C_7
REMARK    7  A    between atoms: N_9  and  C_10
REMARK    8  A    between atoms: C_10  and  C_12
REMARK    9  A    between atoms: C_10  and  C_14
REMARK   10  A    between atoms: C_12  and  S_13
REMARK   11  A    between atoms: N_16  and  C_17
REMARK   12  A    between atoms: C_17  and  C_19
REMARK   13  A    between atoms: C_17  and  C_21
REMARK   14  A    between atoms: C_21  and  O_22
REMARK   15  A    between atoms: C_24  and  O_25
REMARK                            x       y       z     vdW  Elec       q    Type
REMARK                         _______ _______ _______ _____ _____    ______ ____
ROOT
ATOM      1  C   UNK A   1       8.954  -1.729  23.977  0.00  0.00    +0.214 C 
ATOM      2  N   UNK A   1       7.772  -2.290  23.555  0.00  0.00    -0.303 N 
ATOM      3  H   UNK A   1       6.940  -1.715  23.538  0.00  0.00    +0.149 HD
ATOM      4  O   UNK A   1      10.015  -2.341  23.965  0.00  0.00    -0.276 OA
ENDROOT
BRANCH   1   5
ATOM      5  C   UNK A   1       8.787  -0.313  24.496  0.00  0.00    +0.096 C 
BRANCH   5   6
ATOM      6  C   UNK A   1      10.104   0.300  24.973  0.00  0.00    +0.011 C 
BRANCH   6   7
ATOM      7  C   UNK A   1      10.759   1.128  23.862  0.00  0.00    +0.030 C 
BRANCH   7   8
ATOM      8  C   UNK A   1       9.789   2.073  23.141  0.00  0.00    +0.161 C 
BRANCH   8   9
ATOM      9  N   UNK A   1       9.989   2.063  21.661  0.00  0.00    -0.318 NA
ATOM     10  H   UNK A   1       9.173   2.501  21.218  0.00  0.00    +0.119 HD
ATOM     11  H   UNK A   1      10.754   2.710  21.445  0.00  0.00    +0.119 HD
ENDBRANCH   8   9
BRANCH   8  12
ATOM     12  C   UNK A   1       9.998   3.516  23.646  0.00  0.00    +0.322 C 
ATOM     13  O   UNK A   1       9.251   4.118  24.400  0.00  0.00    -0.249 OA
BRANCH  12  14
ATOM     14  O   UNK A   1      11.140   4.051  23.139  0.00  0.00    -0.480 OA
ATOM     15  H   UNK A   1      11.692   3.274  22.863  0.00  0.00    +0.295 HD
ENDBRANCH  12  14
ENDBRANCH   8  12
ENDBRANCH   7   8
ENDBRANCH   6   7
ENDBRANCH   5   6
ENDBRANCH   1   5
BRANCH   2  16
ATOM     16  C   UNK A   1       7.717  -3.600  22.893  0.00  0.00    +0.168 C 
BRANCH  16  17
ATOM     17  C   UNK A   1       7.679  -4.767  23.912  0.00  0.00    +0.235 C 
ATOM     18  N   UNK A   2       6.559  -4.844  24.710  0.00  0.00    -0.298 N 
ATOM     19  H   UNK A   2       5.913  -4.051  24.727  0.00  0.00    +0.150 HD
ATOM     20  O   UNK A   1       8.636  -5.526  24.074  0.00  0.00    -0.274 OA
BRANCH  18  21
ATOM     21  C   UNK A   2       6.480  -5.808  25.798  0.00  0.00    +0.205 C 
BRANCH  21  22
ATOM     22  C   UNK A   2       7.120  -5.281  27.101  0.00  0.00    +0.329 C 
ATOM     23  O   UNK A   2       6.549  -4.560  27.909  0.00  0.00    -0.249 OA
BRANCH  22  24
ATOM     24  O   UNK A   2       8.411  -5.666  27.283  0.00  0.00    -0.479 OA
ATOM     25  H   UNK A   2       9.034  -4.922  27.394  0.00  0.00    +0.295 HD
ENDBRANCH  22  24
ENDBRANCH  21  22
BRANCH  21  26
ATOM     26  C   UNK A   2       5.039  -6.192  26.055  0.00  0.00    -0.001 C 
ATOM     27  C   UNK A   2       4.277  -6.996  25.297  0.00  0.00    +0.006 C 
ENDBRANCH  21  26
ENDBRANCH  18  21
ENDBRANCH  16  17
BRANCH  16  28
ATOM     28  C   UNK A   1       6.490  -3.725  21.970  0.00  0.00    +0.097 C 
BRANCH  28  29
ATOM     29  S   UNK A   1       6.322  -5.376  21.208  0.00  0.00    -0.176 S 
ATOM     30  H   UNK A   1       5.565  -5.001  20.167  0.00  0.00    +0.102 HD
ENDBRANCH  28  29
ENDBRANCH  16  28
ENDBRANCH   2  16
TORSDOF 15
ENDMDL
MODEL 3
REMARK VINA RESULT:      -5.0      3.834      7.483
REMARK  Name = 
REMARK  15 active torsions:
REMARK  status: ('A' for Active; 'I' for Inactive)
REMARK    1  A    between atoms: N_1  and  C_2
REMARK    2  A    between atoms: C_2  and  C_4
REMARK    3  A    between atoms: C_2  and  C_24
REMARK    4  A    between atoms: C_4  and  C_5
REMARK    5  A    between atoms: C_5  and  C_6
REMARK    6  A    between atoms: C_6  and  C_7
REMARK    7  A    between atoms: N_9  and  C_10
REMARK    8  A    between atoms: C_10  and  C_12
REMARK    9  A    between atoms: C_10  and  C_14
REMARK   10  A    between atoms: C_12  and  S_13
REMARK   11  A    between atoms: N_16  and  C_17
REMARK   12  A    between atoms: C_17  and  C_19
REMARK   13  A    between atoms: C_17  and  C_21
REMARK   14  A    between atoms: C_21  and  O_22
REMARK   15  A    between atoms: C_24  and  O_25
REMARK                            x       y       z     vdW  Elec       q    Type
REMARK                         _______ _______ _______ _____ _____    ______ ____
ROOT
ATOM      1  C   UNK A   1       9.544   0.734  23.147  0.00  0.00    +0.214 C 
ATOM      2  N   UNK A   1       8.926  -0.373  23.676  0.00  0.00    -0.303 N 
ATOM      3  H   UNK A   1       8.834  -0.444  24.681  0.00  0.00    +0.149 HD
ATOM      4  O   UNK A   1       9.638   0.924  21.940  0.00  0.00    -0.276 OA
ENDROOT
BRANCH   1   5
ATOM      5  C   UNK A   1      10.129   1.651  24.206  0.00  0.00    +0.096 C 
BRANCH   5   6
ATOM      6  C   UNK A   1      10.185   3.112  23.757  0.00  0.00    +0.011 C 
BRANCH   6   7
ATOM      7  C   UNK A   1      11.603   3.501  23.326  0.00  0.00    +0.030 C 
BRANCH   7   8
ATOM      8  C   UNK A   1      11.907   4.997  23.480  0.00  0.00    +0.161 C 
BRANCH   8   9
ATOM      9  N   UNK A   1      10.777   5.853  23.008  0.00  0.00    -0.318 NA
ATOM     10  H   UNK A   1      10.756   6.708  23.576  0.00  0.00    +0.119 HD
ATOM     11  H   UNK A   1      11.013   6.193  22.071  0.00  0.00    +0.119 HD
ENDBRANCH   8   9
BRANCH   8  12
ATOM     12  C   UNK A   1      13.161   5.359  22.656  0.00  0.00    +0.322 C 
ATOM     13  O   UNK A   1      13.158   5.913  21.569  0.00  0.00    -0.249 OA
BRANCH  12  14
ATOM     14  O   UNK A   1      14.296   4.978  23.299  0.00  0.00    -0.480 OA
ATOM     15  H   UNK A   1      14.262   3.988  23.323  0.00  0.00    +0.295 HD
ENDBRANCH  12  14
ENDBRANCH   8  12
ENDBRANCH   7   8
ENDBRANCH   6   7
ENDBRANCH   5   6
ENDBRANCH   1   5
BRANCH   2  16
ATOM     16  C   UNK A   1       8.177  -1.326  22.847  0.00  0.00    +0.168 C 
BRANCH  16  17
ATOM     17  C   UNK A   1       8.467  -2.796  23.242  0.00  0.00    +0.235 C 
ATOM     18  N   UNK A   2       7.571  -3.738  22.787  0.00  0.00    -0.298 N 
ATOM     19  H   UNK A   2       6.686  -3.421  22.385  0.00  0.00    +0.150 HD
ATOM     20  O   UNK A   1       9.387  -3.100  24.003  0.00  0.00    -0.274 OA
BRANCH  18  21
ATOM     21  C   UNK A   2       7.662  -5.127  23.217  0.00  0.00    +0.205 C 
BRANCH  21  22
ATOM     22  C   UNK A   2       6.974  -5.369  24.579  0.00  0.00    +0.329 C 
ATOM     23  O   UNK A   2       5.777  -5.583  24.720  0.00  0.00    -0.249 OA
BRANCH  22  24
ATOM     24  O   UNK A   2       7.813  -5.302  25.646  0.00  0.00    -0.479 OA
ATOM     25  H   UNK A   2       7.512  -4.696  26.350  0.00  0.00    +0.295 HD
ENDBRANCH  22  24
ENDBRANCH  21  22
BRANCH  21  26
ATOM     26  C   UNK A   2       7.061  -6.040  22.171  0.00  0.00    -0.001 C 
ATOM     27  C   UNK A   2       6.308  -5.672  21.122  0.00  0.00    +0.006 C 
ENDBRANCH  21  26
ENDBRANCH  18  21
ENDBRANCH  16  17
BRANCH  16  28
ATOM     28  C   UNK A   1       6.657  -1.092  22.937  0.00  0.00    +0.097 C 
BRANCH  28  29
ATOM     29  S   UNK A   1       6.069  -0.806  24.642  0.00  0.00    -0.176 S 
ATOM     30  H   UNK A   1       4.756  -0.884  24.378  0.00  0.00    +0.102 HD
ENDBRANCH  28  29
ENDBRANCH  16  28
ENDBRANCH   2  16
TORSDOF 15
ENDMDL
MODEL 4
REMARK VINA RESULT:      -5.0      2.573      4.121
REMARK  Name = 
REMARK  15 active torsions:
REMARK  status: ('A' for Active; 'I' for Inactive)
REMARK    1  A    between atoms: N_1  and  C_2
REMARK    2  A    between atoms: C_2  and  C_4
REMARK    3  A    between atoms: C_2  and  C_24
REMARK    4  A    between atoms: C_4  and  C_5
REMARK    5  A    between atoms: C_5  and  C_6
REMARK    6  A    between atoms: C_6  and  C_7
REMARK    7  A    between atoms: N_9  and  C_10
REMARK    8  A    between atoms: C_10  and  C_12
REMARK    9  A    between atoms: C_10  and  C_14
REMARK   10  A    between atoms: C_12  and  S_13
REMARK   11  A    between atoms: N_16  and  C_17
REMARK   12  A    between atoms: C_17  and  C_19
REMARK   13  A    between atoms: C_17  and  C_21
REMARK   14  A    between atoms: C_21  and  O_22
REMARK   15  A    between atoms: C_24  and  O_25
REMARK                            x       y       z     vdW  Elec       q    Type
REMARK                         _______ _______ _______ _____ _____    ______ ____
ROOT
ATOM      1  C   UNK A   1       7.477  -4.850  23.475  0.00  0.00    +0.214 C 
ATOM      2  N   UNK A   1       7.511  -3.575  23.985  0.00  0.00    -0.303 N 
ATOM      3  H   UNK A   1       6.676  -3.007  23.929  0.00  0.00    +0.149 HD
ATOM      4  O   UNK A   1       8.425  -5.621  23.563  0.00  0.00    -0.276 OA
ENDROOT
BRANCH   1   5
ATOM      5  C   UNK A   1       6.176  -5.171  22.762  0.00  0.00    +0.096 C 
BRANCH   5   6
ATOM      6  C   UNK A   1       4.995  -4.358  23.294  0.00  0.00    +0.011 C 
BRANCH   6   7
ATOM      7  C   UNK A   1       4.065  -5.230  24.142  0.00  0.00    +0.030 C 
BRANCH   7   8
ATOM      8  C   UNK A   1       4.629  -6.625  24.444  0.00  0.00    +0.161 C 
BRANCH   8   9
ATOM      9  N   UNK A   1       3.641  -7.707  24.154  0.00  0.00    -0.318 NA
ATOM     10  H   UNK A   1       4.026  -8.313  23.420  0.00  0.00    +0.119 HD
ATOM     11  H   UNK A   1       3.601  -8.321  24.974  0.00  0.00    +0.119 HD
ENDBRANCH   8   9
BRANCH   8  12
ATOM     12  C   UNK A   1       5.019  -6.715  25.935  0.00  0.00    +0.322 C 
ATOM     13  O   UNK A   1       6.054  -6.292  26.423  0.00  0.00    -0.249 OA
BRANCH  12  14
ATOM     14  O   UNK A   1       4.049  -7.336  26.657  0.00  0.00    -0.480 OA
ATOM     15  H   UNK A   1       3.278  -7.420  26.041  0.00  0.00    +0.295 HD
ENDBRANCH  12  14
ENDBRANCH   8  12
ENDBRANCH   7   8
ENDBRANCH   6   7
ENDBRANCH   5   6
ENDBRANCH   1   5
BRANCH   2  16
ATOM     16  C   UNK A   1       8.615  -3.095  24.827  0.00  0.00    +0.168 C 
BRANCH  16  17
ATOM     17  C   UNK A   1       9.644  -2.264  24.020  0.00  0.00    +0.235 C 
ATOM     18  N   UNK A   2       9.448  -0.901  24.001  0.00  0.00    -0.298 N 
ATOM     19  H   UNK A   2       8.561  -0.527  24.347  0.00  0.00    +0.150 HD
ATOM     20  O   UNK A   1      10.531  -2.794  23.348  0.00  0.00    -0.274 OA
BRANCH  18  21
ATOM     21  C   UNK A   2      10.264  -0.038  23.159  0.00  0.00    +0.205 C 
BRANCH  21  22
ATOM     22  C   UNK A   2       9.672   0.134  21.742  0.00  0.00    +0.329 C 
ATOM     23  O   UNK A   2       9.192   1.177  21.317  0.00  0.00    -0.249 OA
BRANCH  22  24
ATOM     24  O   UNK A   2       9.703  -0.994  20.984  0.00  0.00    -0.479 OA
ATOM     25  H   UNK A   2      10.440  -1.597  21.202  0.00  0.00    +0.295 HD
ENDBRANCH  22  24
ENDBRANCH  21  22
BRANCH  21  26
ATOM     26  C   UNK A   2      10.439   1.317  23.809  0.00  0.00    -0.001 C 
ATOM     27  C   UNK A   2       9.526   1.983  24.533  0.00  0.00    +0.006 C 
ENDBRANCH  21  26
ENDBRANCH  18  21
ENDBRANCH  16  17
BRANCH  16  28
ATOM     28  C   UNK A   1       8.109  -2.231  25.998  0.00  0.00    +0.097 C 
BRANCH  28  29
ATOM     29  S   UNK A   1       6.452  -2.717  26.592  0.00  0.00    -0.176 S 
ATOM     30  H   UNK A   1       6.427  -1.926  27.675  0.00  0.00    +0.102 HD
ENDBRANCH  28  29
ENDBRANCH  16  28
ENDBRANCH   2  16
TORSDOF 15
ENDMDL
MODEL 5
REMARK VINA RESULT:      -5.0      2.419      3.819
REMARK  Name = 
REMARK  15 active torsions:
REMARK  status: ('A' for Active; 'I' for Inactive)
REMARK    1  A    between atoms: N_1  and  C_2
REMARK    2  A    between atoms: C_2  and  C_4
REMARK    3  A    between atoms: C_2  and  C_24
REMARK    4  A    between atoms: C_4  and  C_5
REMARK    5  A    between atoms: C_5  and  C_6
REMARK    6  A    between atoms: C_6  and  C_7
REMARK    7  A    between atoms: N_9  and  C_10
REMARK    8  A    between atoms: C_10  and  C_12
REMARK    9  A    between atoms: C_10  and  C_14
REMARK   10  A    between atoms: C_12  and  S_13
REMARK   11  A    between atoms: N_16  and  C_17
REMARK   12  A    between atoms: C_17  and  C_19
REMARK   13  A    between atoms: C_17  and  C_21
REMARK   14  A    between atoms: C_21  and  O_22
REMARK   15  A    between atoms: C_24  and  O_25
REMARK                            x       y       z     vdW  Elec       q    Type
REMARK                         _______ _______ _______ _____ _____    ______ ____
ROOT
ATOM      1  C   UNK A   1       6.805  -5.238  26.006  0.00  0.00    +0.214 C 
ATOM      2  N   UNK A   1       7.132  -4.060  25.380  0.00  0.00    -0.303 N 
ATOM      3  H   UNK A   1       6.542  -3.730  24.627  0.00  0.00    +0.149 HD
ATOM      4  O   UNK A   1       7.432  -5.671  26.966  0.00  0.00    -0.276 OA
ENDROOT
BRANCH   1   5
ATOM      5  C   UNK A   1       5.635  -5.953  25.355  0.00  0.00    +0.096 C 
BRANCH   5   6
ATOM      6  C   UNK A   1       5.181  -5.284  24.058  0.00  0.00    +0.011 C 
BRANCH   6   7
ATOM      7  C   UNK A   1       5.606  -6.105  22.837  0.00  0.00    +0.030 C 
BRANCH   7   8
ATOM      8  C   UNK A   1       6.766  -5.485  22.048  0.00  0.00    +0.161 C 
BRANCH   8   9
ATOM      9  N   UNK A   1       8.067  -5.606  22.772  0.00  0.00    -0.318 NA
ATOM     10  H   UNK A   1       8.237  -4.733  23.285  0.00  0.00    +0.119 HD
ATOM     11  H   UNK A   1       7.947  -6.301  23.515  0.00  0.00    +0.119 HD
ENDBRANCH   8   9
BRANCH   8  12
ATOM     12  C   UNK A   1       6.487  -3.986  21.805  0.00  0.00    +0.322 C 
ATOM     13  O   UNK A   1       6.966  -3.064  22.446  0.00  0.00    -0.249 OA
BRANCH  12  14
ATOM     14  O   UNK A   1       5.626  -3.811  20.769  0.00  0.00    -0.480 OA
ATOM     15  H   UNK A   1       6.140  -3.311  20.084  0.00  0.00    +0.295 HD
ENDBRANCH  12  14
ENDBRANCH   8  12
ENDBRANCH   7   8
ENDBRANCH   6   7
ENDBRANCH   5   6
ENDBRANCH   1   5
BRANCH   2  16
ATOM     16  C   UNK A   1       8.143  -3.139  25.916  0.00  0.00    +0.168 C 
BRANCH  16  17
ATOM     17  C   UNK A   1       9.212  -2.766  24.857  0.00  0.00    +0.235 C 
ATOM     18  N   UNK A   2       9.315  -1.430  24.539  0.00  0.00    -0.298 N 
ATOM     19  H   UNK A   2       8.584  -0.791  24.860  0.00  0.00    +0.150 HD
ATOM     20  O   UNK A   1       9.865  -3.622  24.258  0.00  0.00    -0.274 OA
BRANCH  18  21
ATOM     21  C   UNK A   2      10.180  -0.983  23.456  0.00  0.00    +0.205 C 
BRANCH  21  22
ATOM     22  C   UNK A   2       9.463  -0.990  22.088  0.00  0.00    +0.329 C 
ATOM     23  O   UNK A   2       8.803  -0.056  21.650  0.00  0.00    -0.249 OA
BRANCH  22  24
ATOM     24  O   UNK A   2       9.602  -2.149  21.392  0.00  0.00    -0.479 OA
ATOM     25  H   UNK A   2       8.850  -2.764  21.494  0.00  0.00    +0.295 HD
ENDBRANCH  22  24
ENDBRANCH  21  22
BRANCH  21  26
ATOM     26  C   UNK A   2      10.714   0.402  23.749  0.00  0.00    -0.001 C 
ATOM     27  C   UNK A   2      10.359   1.199  24.769  0.00  0.00    +0.006 C 
ENDBRANCH  21  26
ENDBRANCH  18  21
ENDBRANCH  16  17
BRANCH  16  28
ATOM     28  C   UNK A   1       7.510  -1.837  26.443  0.00  0.00    +0.097 C 
BRANCH  28  29
ATOM     29  S   UNK A   1       5.738  -1.677  26.033  0.00  0.00    -0.176 S 
ATOM     30  H   UNK A   1       5.258  -2.095  27.214  0.00  0.00    +0.102 HD
ENDBRANCH  28  29
ENDBRANCH  16  28
ENDBRANCH   2  16
TORSDOF 15
ENDMDL
MODEL 6
REMARK VINA RESULT:      -5.0      2.703      6.485
REMARK  Name = 
REMARK  15 active torsions:
REMARK  status: ('A' for Active; 'I' for Inactive)
REMARK    1  A    between atoms: N_1  and  C_2
REMARK    2  A    between atoms: C_2  and  C_4
REMARK    3  A    between atoms: C_2  and  C_24
REMARK    4  A    between atoms: C_4  and  C_5
REMARK    5  A    between atoms: C_5  and  C_6
REMARK    6  A    between atoms: C_6  and  C_7
REMARK    7  A    between atoms: N_9  and  C_10
REMARK    8  A    between atoms: C_10  and  C_12
REMARK    9  A    between atoms: C_10  and  C_14
REMARK   10  A    between atoms: C_12  and  S_13
REMARK   11  A    between atoms: N_16  and  C_17
REMARK   12  A    between atoms: C_17  and  C_19
REMARK   13  A    between atoms: C_17  and  C_21
REMARK   14  A    between atoms: C_21  and  O_22
REMARK   15  A    between atoms: C_24  and  O_25
REMARK                            x       y       z     vdW  Elec       q    Type
REMARK                         _______ _______ _______ _____ _____    ______ ____
ROOT
ATOM      1  C   UNK A   1       8.617  -1.986  22.636  0.00  0.00    +0.214 C 
ATOM      2  N   UNK A   1       8.739  -2.208  23.987  0.00  0.00    -0.303 N 
ATOM      3  H   UNK A   1       9.530  -1.808  24.475  0.00  0.00    +0.149 HD
ATOM      4  O   UNK A   1       7.656  -2.380  21.987  0.00  0.00    -0.276 OA
ENDROOT
BRANCH   1   5
ATOM      5  C   UNK A   1       9.808  -1.255  22.044  0.00  0.00    +0.096 C 
BRANCH   5   6
ATOM      6  C   UNK A   1       9.412   0.029  21.315  0.00  0.00    +0.011 C 
BRANCH   6   7
ATOM      7  C   UNK A   1       8.525   0.912  22.198  0.00  0.00    +0.030 C 
BRANCH   7   8
ATOM      8  C   UNK A   1       9.253   2.126  22.789  0.00  0.00    +0.161 C 
BRANCH   8   9
ATOM      9  N   UNK A   1      10.420   2.544  21.955  0.00  0.00    -0.318 NA
ATOM     10  H   UNK A   1      11.279   2.196  22.397  0.00  0.00    +0.119 HD
ATOM     11  H   UNK A   1      10.376   2.021  21.074  0.00  0.00    +0.119 HD
ENDBRANCH   8   9
BRANCH   8  12
ATOM     12  C   UNK A   1       9.771   1.783  24.203  0.00  0.00    +0.322 C 
ATOM     13  O   UNK A   1      10.799   1.175  24.452  0.00  0.00    -0.249 OA
BRANCH  12  14
ATOM     14  O   UNK A   1       8.926   2.250  25.159  0.00  0.00    -0.480 OA
ATOM     15  H   UNK A   1       8.085   1.740  25.036  0.00  0.00    +0.295 HD
ENDBRANCH  12  14
ENDBRANCH   8  12
ENDBRANCH   7   8
ENDBRANCH   6   7
ENDBRANCH   5   6
ENDBRANCH   1   5
BRANCH   2  16
ATOM     16  C   UNK A   1       7.650  -2.778  24.790  0.00  0.00    +0.168 C 
BRANCH  16  17
ATOM     17  C   UNK A   1       7.402  -4.271  24.460  0.00  0.00    +0.235 C 
ATOM     18  N   UNK A   2       6.386  -4.539  23.569  0.00  0.00    -0.298 N 
ATOM     19  H   UNK A   2       5.740  -3.786  23.320  0.00  0.00    +0.150 HD
ATOM     20  O   UNK A   1       8.008  -5.177  25.033  0.00  0.00    -0.274 OA
BRANCH  18  21
ATOM     21  C   UNK A   2       5.970  -5.908  23.298  0.00  0.00    +0.205 C 
BRANCH  21  22
ATOM     22  C   UNK A   2       4.436  -6.080  23.356  0.00  0.00    +0.329 C 
ATOM     23  O   UNK A   2       3.631  -5.222  23.016  0.00  0.00    -0.249 OA
BRANCH  22  24
ATOM     24  O   UNK A   2       4.029  -7.281  23.848  0.00  0.00    -0.479 OA
ATOM     25  H   UNK A   2       3.065  -7.343  23.992  0.00  0.00    +0.295 HD
ENDBRANCH  22  24
ENDBRANCH  21  22
BRANCH  21  26
ATOM     26  C   UNK A   2       6.484  -6.355  21.947  0.00  0.00    -0.001 C 
ATOM     27  C   UNK A   2       6.289  -5.739  20.771  0.00  0.00    +0.006 C 
ENDBRANCH  21  26
ENDBRANCH  18  21
ENDBRANCH  16  17
BRANCH  16  28
ATOM     28  C   UNK A   1       7.928  -2.657  26.301  0.00  0.00    +0.097 C 
BRANCH  28  29
ATOM     29  S   UNK A   1       8.499  -0.996  26.801  0.00  0.00    -0.176 S 
ATOM     30  H   UNK A   1       7.325  -0.366  26.649  0.00  0.00    +0.102 HD
ENDBRANCH  28  29
ENDBRANCH  16  28
ENDBRANCH   2  16
TORSDOF 15
ENDMDL
MODEL 7
REMARK VINA RESULT:      -4.9      2.850      3.927
REMARK  Name = 
REMARK  15 active torsions:
REMARK  status: ('A' for Active; 'I' for Inactive)
REMARK    1  A    between atoms: N_1  and  C_2
REMARK    2  A    between atoms: C_2  and  C_4
REMARK    3  A    between atoms: C_2  and  C_24
REMARK    4  A    between atoms: C_4  and  C_5
REMARK    5  A    between atoms: C_5  and  C_6
REMARK    6  A    between atoms: C_6  and  C_7
REMARK    7  A    between atoms: N_9  and  C_10
REMARK    8  A    between atoms: C_10  and  C_12
REMARK    9  A    between atoms: C_10  and  C_14
REMARK   10  A    between atoms: C_12  and  S_13
REMARK   11  A    between atoms: N_16  and  C_17
REMARK   12  A    between atoms: C_17  and  C_19
REMARK   13  A    between atoms: C_17  and  C_21
REMARK   14  A    between atoms: C_21  and  O_22
REMARK   15  A    between atoms: C_24  and  O_25
REMARK                            x       y       z     vdW  Elec       q    Type
REMARK                         _______ _______ _______ _____ _____    ______ ____
ROOT
ATOM      1  C   UNK A   1       7.843  -4.582  24.240  0.00  0.00    +0.214 C 
ATOM      2  N   UNK A   1       7.811  -3.231  24.490  0.00  0.00    -0.303 N 
ATOM      3  H   UNK A   1       6.916  -2.761  24.500  0.00  0.00    +0.149 HD
ATOM      4  O   UNK A   1       8.879  -5.235  24.275  0.00  0.00    -0.276 OA
ENDROOT
BRANCH   1   5
ATOM      5  C   UNK A   1       6.484  -5.152  23.876  0.00  0.00    +0.096 C 
BRANCH   5   6
ATOM      6  C   UNK A   1       5.492  -5.104  25.038  0.00  0.00    +0.011 C 
BRANCH   6   7
ATOM      7  C   UNK A   1       5.857  -6.130  26.116  0.00  0.00    +0.030 C 
BRANCH   7   8
ATOM      8  C   UNK A   1       6.525  -5.516  27.353  0.00  0.00    +0.161 C 
BRANCH   8   9
ATOM      9  N   UNK A   1       8.012  -5.659  27.319  0.00  0.00    -0.318 NA
ATOM     10  H   UNK A   1       8.432  -4.729  27.430  0.00  0.00    +0.119 HD
ATOM     11  H   UNK A   1       8.297  -6.153  28.170  0.00  0.00    +0.119 HD
ENDBRANCH   8   9
BRANCH   8  12
ATOM     12  C   UNK A   1       6.003  -6.215  28.626  0.00  0.00    +0.322 C 
ATOM     13  O   UNK A   1       6.007  -5.737  29.748  0.00  0.00    -0.249 OA
BRANCH  12  14
ATOM     14  O   UNK A   1       5.526  -7.456  28.342  0.00  0.00    -0.480 OA
ATOM     15  H   UNK A   1       5.709  -7.591  27.377  0.00  0.00    +0.295 HD
ENDBRANCH  12  14
ENDBRANCH   8  12
ENDBRANCH   7   8
ENDBRANCH   6   7
ENDBRANCH   5   6
ENDBRANCH   1   5
BRANCH   2  16
ATOM     16  C   UNK A   1       8.981  -2.497  24.989  0.00  0.00    +0.168 C 
BRANCH  16  17
ATOM     17  C   UNK A   1       9.570  -1.543  23.918  0.00  0.00    +0.235 C 
ATOM     18  N   UNK A   2       9.375  -0.196  24.128  0.00  0.00    -0.298 N 
ATOM     19  H   UNK A   2       8.714   0.098  24.850  0.00  0.00    +0.150 HD
ATOM     20  O   UNK A   1      10.095  -1.963  22.886  0.00  0.00    -0.274 OA
BRANCH  18  21
ATOM     21  C   UNK A   2       9.756   0.781  23.118  0.00  0.00    +0.205 C 
BRANCH  21  22
ATOM     22  C   UNK A   2       8.577   1.168  22.197  0.00  0.00    +0.329 C 
ATOM     23  O   UNK A   2       7.406   0.888  22.420  0.00  0.00    -0.249 OA
BRANCH  22  24
ATOM     24  O   UNK A   2       8.945   1.841  21.074  0.00  0.00    -0.479 OA
ATOM     25  H   UNK A   2       9.723   2.419  21.196  0.00  0.00    +0.295 HD
ENDBRANCH  22  24
ENDBRANCH  21  22
BRANCH  21  26
ATOM     26  C   UNK A   2      10.320   2.022  23.775  0.00  0.00    -0.001 C 
ATOM     27  C   UNK A   2       9.627   3.092  24.195  0.00  0.00    +0.006 C 
ENDBRANCH  21  26
ENDBRANCH  18  21
ENDBRANCH  16  17
BRANCH  16  28
ATOM     28  C   UNK A   1       8.645  -1.667  26.242  0.00  0.00    +0.097 C 
BRANCH  28  29
ATOM     29  S   UNK A   1       6.855  -1.581  26.595  0.00  0.00    -0.176 S 
ATOM     30  H   UNK A   1       6.431  -1.735  25.332  0.00  0.00    +0.102 HD
ENDBRANCH  28  29
ENDBRANCH  16  28
ENDBRANCH   2  16
TORSDOF 15
ENDMDL
MODEL 8
REMARK VINA RESULT:      -4.9      5.517      8.649
REMARK  Name = 
REMARK  15 active torsions:
REMARK  status: ('A' for Active; 'I' for Inactive)
REMARK    1  A    between atoms: N_1  and  C_2
REMARK    2  A    between atoms: C_2  and  C_4
REMARK    3  A    between atoms: C_2  and  C_24
REMARK    4  A    between atoms: C_4  and  C_5
REMARK    5  A    between atoms: C_5  and  C_6
REMARK    6  A    between atoms: C_6  and  C_7
REMARK    7  A    between atoms: N_9  and  C_10
REMARK    8  A    between atoms: C_10  and  C_12
REMARK    9  A    between atoms: C_10  and  C_14
REMARK   10  A    between atoms: C_12  and  S_13
REMARK   11  A    between atoms: N_16  and  C_17
REMARK   12  A    between atoms: C_17  and  C_19
REMARK   13  A    between atoms: C_17  and  C_21
REMARK   14  A    between atoms: C_21  and  O_22
REMARK   15  A    between atoms: C_24  and  O_25
REMARK                            x       y       z     vdW  Elec       q    Type
REMARK                         _______ _______ _______ _____ _____    ______ ____
ROOT
ATOM      1  C   UNK A   1       7.794   6.026  23.166  0.00  0.00    +0.214 C 
ATOM      2  N   UNK A   1       7.214   5.123  24.023  0.00  0.00    -0.303 N 
ATOM      3  H   UNK A   1       7.312   5.267  25.020  0.00  0.00    +0.149 HD
ATOM      4  O   UNK A   1       7.665   5.957  21.949  0.00  0.00    -0.276 OA
ENDROOT
BRANCH   1   5
ATOM      5  C   UNK A   1       8.635   7.068  23.880  0.00  0.00    +0.096 C 
BRANCH   5   6
ATOM      6  C   UNK A   1       9.893   6.476  24.517  0.00  0.00    +0.011 C 
BRANCH   6   7
ATOM      7  C   UNK A   1      10.833   5.906  23.450  0.00  0.00    +0.030 C 
BRANCH   7   8
ATOM      8  C   UNK A   1      12.232   5.562  23.979  0.00  0.00    +0.161 C 
BRANCH   8   9
ATOM      9  N   UNK A   1      12.782   6.638  24.857  0.00  0.00    -0.318 NA
ATOM     10  H   UNK A   1      13.346   7.273  24.282  0.00  0.00    +0.119 HD
ATOM     11  H   UNK A   1      11.998   7.223  25.162  0.00  0.00    +0.119 HD
ENDBRANCH   8   9
BRANCH   8  12
ATOM     12  C   UNK A   1      13.201   5.366  22.794  0.00  0.00    +0.322 C 
ATOM     13  O   UNK A   1      12.911   5.487  21.614  0.00  0.00    -0.249 OA
BRANCH  12  14
ATOM     14  O   UNK A   1      14.446   5.035  23.228  0.00  0.00    -0.480 OA
ATOM     15  H   UNK A   1      14.916   4.684  22.429  0.00  0.00    +0.295 HD
ENDBRANCH  12  14
ENDBRANCH   8  12
ENDBRANCH   7   8
ENDBRANCH   6   7
ENDBRANCH   5   6
ENDBRANCH   1   5
BRANCH   2  16
ATOM     16  C   UNK A   1       6.253   4.111  23.566  0.00  0.00    +0.168 C 
BRANCH  16  17
ATOM     17  C   UNK A   1       6.829   2.675  23.660  0.00  0.00    +0.235 C 
ATOM     18  N   UNK A   2       8.179   2.543  23.421  0.00  0.00    -0.298 N 
ATOM     19  H   UNK A   2       8.688   3.336  23.022  0.00  0.00    +0.150 HD
ATOM     20  O   UNK A   1       6.109   1.692  23.838  0.00  0.00    -0.274 OA
BRANCH  18  21
ATOM     21  C   UNK A   2       8.800   1.228  23.339  0.00  0.00    +0.205 C 
BRANCH  21  22
ATOM     22  C   UNK A   2       9.634   1.049  22.051  0.00  0.00    +0.329 C 
ATOM     23  O   UNK A   2       9.769  -0.014  21.458  0.00  0.00    -0.249 OA
BRANCH  22  24
ATOM     24  O   UNK A   2      10.246   2.184  21.621  0.00  0.00    -0.479 OA
ATOM     25  H   UNK A   2      10.024   2.977  22.147  0.00  0.00    +0.295 HD
ENDBRANCH  22  24
ENDBRANCH  21  22
BRANCH  21  26
ATOM     26  C   UNK A   2       9.670   0.982  24.551  0.00  0.00    -0.001 C 
ATOM     27  C   UNK A   2      10.943   0.555  24.551  0.00  0.00    +0.006 C 
ENDBRANCH  21  26
ENDBRANCH  18  21
ENDBRANCH  16  17
BRANCH  16  28
ATOM     28  C   UNK A   1       4.942   4.159  24.373  0.00  0.00    +0.097 C 
BRANCH  28  29
ATOM     29  S   UNK A   1       5.141   4.891  26.034  0.00  0.00    -0.176 S 
ATOM     30  H   UNK A   1       6.455   5.146  25.944  0.00  0.00    +0.102 HD
ENDBRANCH  28  29
ENDBRANCH  16  28
ENDBRANCH   2  16
TORSDOF 15
ENDMDL
MODEL 9
REMARK VINA RESULT:      -4.9      2.690      4.159
REMARK  Name = 
REMARK  15 active torsions:
REMARK  status: ('A' for Active; 'I' for Inactive)
REMARK    1  A    between atoms: N_1  and  C_2
REMARK    2  A    between atoms: C_2  and  C_4
REMARK    3  A    between atoms: C_2  and  C_24
REMARK    4  A    between atoms: C_4  and  C_5
REMARK    5  A    between atoms: C_5  and  C_6
REMARK    6  A    between atoms: C_6  and  C_7
REMARK    7  A    between atoms: N_9  and  C_10
REMARK    8  A    between atoms: C_10  and  C_12
REMARK    9  A    between atoms: C_10  and  C_14
REMARK   10  A    between atoms: C_12  and  S_13
REMARK   11  A    between atoms: N_16  and  C_17
REMARK   12  A    between atoms: C_17  and  C_19
REMARK   13  A    between atoms: C_17  and  C_21
REMARK   14  A    between atoms: C_21  and  O_22
REMARK   15  A    between atoms: C_24  and  O_25
REMARK                            x       y       z     vdW  Elec       q    Type
REMARK                         _______ _______ _______ _____ _____    ______ ____
ROOT
ATOM      1  C   UNK A   1       5.324  -6.155  25.917  0.00  0.00    +0.214 C 
ATOM      2  N   UNK A   1       5.584  -4.815  25.755  0.00  0.00    -0.303 N 
ATOM      3  H   UNK A   1       5.231  -4.348  24.930  0.00  0.00    +0.149 HD
ATOM      4  O   UNK A   1       5.661  -6.775  26.918  0.00  0.00    -0.276 OA
ENDROOT
BRANCH   1   5
ATOM      5  C   UNK A   1       4.630  -6.775  24.718  0.00  0.00    +0.096 C 
BRANCH   5   6
ATOM      6  C   UNK A   1       4.559  -5.828  23.521  0.00  0.00    +0.011 C 
BRANCH   6   7
ATOM      7  C   UNK A   1       5.573  -6.226  22.443  0.00  0.00    +0.030 C 
BRANCH   7   8
ATOM      8  C   UNK A   1       6.696  -5.200  22.241  0.00  0.00    +0.161 C 
BRANCH   8   9
ATOM      9  N   UNK A   1       7.679  -5.212  23.366  0.00  0.00    -0.318 NA
ATOM     10  H   UNK A   1       8.224  -4.343  23.332  0.00  0.00    +0.119 HD
ATOM     11  H   UNK A   1       7.152  -5.129  24.241  0.00  0.00    +0.119 HD
ENDBRANCH   8   9
BRANCH   8  12
ATOM     12  C   UNK A   1       6.092  -3.783  22.143  0.00  0.00    +0.322 C 
ATOM     13  O   UNK A   1       5.466  -3.344  21.191  0.00  0.00    -0.249 OA
BRANCH  12  14
ATOM     14  O   UNK A   1       6.346  -3.064  23.268  0.00  0.00    -0.480 OA
ATOM     15  H   UNK A   1       5.622  -2.389  23.315  0.00  0.00    +0.295 HD
ENDBRANCH  12  14
ENDBRANCH   8  12
ENDBRANCH   7   8
ENDBRANCH   6   7
ENDBRANCH   5   6
ENDBRANCH   1   5
BRANCH   2  16
ATOM     16  C   UNK A   1       6.127  -3.984  26.837  0.00  0.00    +0.168 C 
BRANCH  16  17
ATOM     17  C   UNK A   1       7.587  -3.546  26.559  0.00  0.00    +0.235 C 
ATOM     18  N   UNK A   2       7.749  -2.416  25.789  0.00  0.00    -0.298 N 
ATOM     19  H   UNK A   2       6.937  -2.038  25.294  0.00  0.00    +0.150 HD
ATOM     20  O   UNK A   1       8.552  -4.221  26.919  0.00  0.00    -0.274 OA
BRANCH  18  21
ATOM     21  C   UNK A   2       9.070  -1.996  25.343  0.00  0.00    +0.205 C 
BRANCH  21  22
ATOM     22  C   UNK A   2       9.533  -2.751  24.077  0.00  0.00    +0.329 C 
ATOM     23  O   UNK A   2       9.285  -2.395  22.932  0.00  0.00    -0.249 OA
BRANCH  22  24
ATOM     24  O   UNK A   2      10.238  -3.885  24.331  0.00  0.00    -0.479 OA
ATOM     25  H   UNK A   2      10.087  -4.254  25.223  0.00  0.00    +0.295 HD
ENDBRANCH  22  24
ENDBRANCH  21  22
BRANCH  21  26
ATOM     26  C   UNK A   2       9.088  -0.505  25.087  0.00  0.00    -0.001 C 
ATOM     27  C   UNK A   2      10.169   0.291  25.061  0.00  0.00    +0.006 C 
ENDBRANCH  21  26
ENDBRANCH  18  21
ENDBRANCH  16  17
BRANCH  16  28
ATOM     28  C   UNK A   1       5.279  -2.719  27.069  0.00  0.00    +0.097 C 
BRANCH  28  29
ATOM     29  S   UNK A   1       3.910  -2.971  28.252  0.00  0.00    -0.176 S 
ATOM     30  H   UNK A   1       3.603  -1.677  28.425  0.00  0.00    +0.102 HD
ENDBRANCH  28  29
ENDBRANCH  16  28
ENDBRANCH   2  16
TORSDOF 15
ENDMDL
