MODEL 1
REMARK VINA RESULT:      -7.0      0.000      0.000
REMARK  Name = 
REMARK  16 active torsions:
REMARK  status: ('A' for Active; 'I' for Inactive)
REMARK    1  A    between atoms: O_1  and  C_2
REMARK    2  A    between atoms: C_6  and  O_8
REMARK    3  A    between atoms: O_8  and  C_9
REMARK    4  A    between atoms: C_13  and  O_15
REMARK    5  A    between atoms: C_16  and  O_18
REMARK    6  A    between atoms: O_18  and  S_19
REMARK    7  A    between atoms: S_19  and  O_20
REMARK    8  A    between atoms: C_23  and  O_25
REMARK    9  A    between atoms: O_25  and  S_26
REMARK   10  A    between atoms: S_26  and  O_27
REMARK   11  A    between atoms: C_30  and  O_32
REMARK   12  A    between atoms: O_32  and  S_33
REMARK   13  A    between atoms: S_33  and  O_34
REMARK   14  A    between atoms: C_37  and  O_39
REMARK   15  A    between atoms: O_39  and  S_40
REMARK   16  A    between atoms: S_40  and  O_41
REMARK                            x       y       z     vdW  Elec       q    Type
REMARK                         _______ _______ _______ _____ _____    ______ ____
ROOT
ATOM      1  O   UNL     1       8.518  -2.849  23.673  0.00  0.00    -0.340 OA
ENDROOT
BRANCH   1   5
ATOM      2  C   UNL     1       4.703  -4.401  23.099  0.00  0.00    +0.174 C 
ATOM      3  C   UNL     1       5.529  -5.125  24.175  0.00  0.00    +0.218 C 
ATOM      4  C   UNL     1       6.831  -4.355  24.518  0.00  0.00    +0.241 C 
ATOM      5  C   UNL     1       7.531  -3.798  23.254  0.00  0.00    +0.285 C 
ATOM      6  O   UNL     1       6.630  -3.143  22.382  0.00  0.00    -0.346 OA
ATOM      7  C   UNL     1       5.573  -3.966  21.934  0.00  0.00    +0.197 C 
BRANCH   2   8
ATOM      8  O   UNL     1       3.648  -5.217  22.594  0.00  0.00    -0.387 OA
ATOM      9  H   UNL     1       3.989  -5.910  22.004  0.00  0.00    +0.210 HD
ENDBRANCH   2   8
BRANCH   4  10
ATOM     10  O   UNL     1       7.707  -5.263  25.217  0.00  0.00    -0.205 OA
BRANCH  10  11
ATOM     11  S   UNL     1       8.107  -4.935  26.767  0.00  0.00    +0.208 S 
ATOM     12  O   UNL     1       9.457  -4.446  26.810  0.00  0.00    -0.118 OA
ATOM     13  O   UNL     1       7.619  -6.025  27.585  0.00  0.00    -0.118 OA
BRANCH  11  14
ATOM     14  O   UNL     1       7.124  -3.695  27.075  0.00  0.00    -0.231 OA
ATOM     15  H   UNL     1       7.612  -2.860  26.941  0.00  0.00    +0.247 HD
ENDBRANCH  11  14
ENDBRANCH  10  11
ENDBRANCH   4  10
BRANCH   3  16
ATOM     16  O   UNL     1       4.775  -5.227  25.397  0.00  0.00    -0.207 OA
BRANCH  16  17
ATOM     17  S   UNL     1       4.082  -6.636  25.826  0.00  0.00    +0.208 S 
ATOM     18  O   UNL     1       4.135  -7.531  24.691  0.00  0.00    -0.118 OA
ATOM     19  O   UNL     1       2.869  -6.357  26.555  0.00  0.00    -0.118 OA
BRANCH  17  20
ATOM     20  O   UNL     1       5.098  -7.166  26.949  0.00  0.00    -0.231 OA
ATOM     21  H   UNL     1       5.602  -7.900  26.535  0.00  0.00    +0.247 HD
ENDBRANCH  17  20
ENDBRANCH  16  17
ENDBRANCH   3  16
ENDBRANCH   1   5
BRANCH   1  22
ATOM     22  C   UNL     1       8.499  -1.603  22.964  0.00  0.00    +0.181 C 
ATOM     23  C   UNL     1       8.563  -0.437  23.991  0.00  0.00    +0.219 C 
ATOM     24  C   UNL     1       8.717   0.914  23.261  0.00  0.00    +0.241 C 
ATOM     25  C   UNL     1       9.863   0.855  22.240  0.00  0.00    +0.281 C 
ATOM     26  O   UNL     1       9.656  -0.203  21.318  0.00  0.00    -0.346 OA
ATOM     27  C   UNL     1       9.657  -1.475  21.961  0.00  0.00    +0.197 C 
BRANCH  25  28
ATOM     28  O   UNL     1       9.876   2.067  21.494  0.00  0.00    -0.365 OA
ATOM     29  H   UNL     1      10.341   1.836  20.669  0.00  0.00    +0.213 HD
ENDBRANCH  25  28
BRANCH  23  30
ATOM     30  O   UNL     1       7.470  -0.452  24.922  0.00  0.00    -0.207 OA
BRANCH  30  31
ATOM     31  S   UNL     1       7.693  -0.403  26.529  0.00  0.00    +0.208 S 
ATOM     32  O   UNL     1       8.908  -1.097  26.876  0.00  0.00    -0.118 OA
ATOM     33  O   UNL     1       6.433  -0.726  27.162  0.00  0.00    -0.118 OA
BRANCH  31  34
ATOM     34  O   UNL     1       7.924   1.165  26.793  0.00  0.00    -0.231 OA
ATOM     35  H   UNL     1       7.276   1.662  26.257  0.00  0.00    +0.247 HD
ENDBRANCH  31  34
ENDBRANCH  30  31
ENDBRANCH  23  30
BRANCH  24  36
ATOM     36  O   UNL     1       8.740   2.060  24.110  0.00  0.00    -0.205 OA
BRANCH  36  37
ATOM     37  S   UNL     1       7.575   3.186  24.150  0.00  0.00    +0.208 S 
ATOM     38  O   UNL     1       7.459   3.762  22.832  0.00  0.00    -0.118 OA
ATOM     39  O   UNL     1       7.802   3.994  25.326  0.00  0.00    -0.118 OA
BRANCH  37  40
ATOM     40  O   UNL     1       6.228   2.357  24.441  0.00  0.00    -0.231 OA
ATOM     41  H   UNL     1       5.994   1.823  23.652  0.00  0.00    +0.247 HD
ENDBRANCH  37  40
ENDBRANCH  36  37
ENDBRANCH  24  36
ENDBRANCH   1  22
TORSDOF 16
ENDMDL
MODEL 2
REMARK VINA RESULT:      -6.6      1.177      7.286
REMARK  Name = 
REMARK  16 active torsions:
REMARK  status: ('A' for Active; 'I' for Inactive)
REMARK    1  A    between atoms: O_1  and  C_2
REMARK    2  A    between atoms: C_6  and  O_8
REMARK    3  A    between atoms: O_8  and  C_9
REMARK    4  A    between atoms: C_13  and  O_15
REMARK    5  A    between atoms: C_16  and  O_18
REMARK    6  A    between atoms: O_18  and  S_19
REMARK    7  A    between atoms: S_19  and  O_20
REMARK    8  A    between atoms: C_23  and  O_25
REMARK    9  A    between atoms: O_25  and  S_26
REMARK   10  A    between atoms: S_26  and  O_27
REMARK   11  A    between atoms: C_30  and  O_32
REMARK   12  A    between atoms: O_32  and  S_33
REMARK   13  A    between atoms: S_33  and  O_34
REMARK   14  A    between atoms: C_37  and  O_39
REMARK   15  A    between atoms: O_39  and  S_40
REMARK   16  A    between atoms: S_40  and  O_41
REMARK                            x       y       z     vdW  Elec       q    Type
REMARK                         _______ _______ _______ _____ _____    ______ ____
ROOT
ATOM      1  O   UNL     1       7.937  -2.896  23.614  0.00  0.00    -0.340 OA
ENDROOT
BRANCH   1   5
ATOM      2  C   UNL     1       9.309   0.771  22.216  0.00  0.00    +0.174 C 
ATOM      3  C   UNL     1       7.912   0.817  22.856  0.00  0.00    +0.218 C 
ATOM      4  C   UNL     1       7.564  -0.512  23.575  0.00  0.00    +0.241 C 
ATOM      5  C   UNL     1       7.995  -1.752  22.755  0.00  0.00    +0.285 C 
ATOM      6  O   UNL     1       9.315  -1.638  22.258  0.00  0.00    -0.346 OA
ATOM      7  C   UNL     1       9.516  -0.511  21.431  0.00  0.00    +0.197 C 
BRANCH   2   8
ATOM      8  O   UNL     1       9.534   1.875  21.342  0.00  0.00    -0.387 OA
ATOM      9  H   UNL     1       9.116   2.686  21.679  0.00  0.00    +0.210 HD
ENDBRANCH   2   8
BRANCH   4  10
ATOM     10  O   UNL     1       6.139  -0.530  23.800  0.00  0.00    -0.205 OA
BRANCH  10  11
ATOM     11  S   UNL     1       5.584  -0.555  25.337  0.00  0.00    +0.208 S 
ATOM     12  O   UNL     1       4.655   0.527  25.517  0.00  0.00    -0.118 OA
ATOM     13  O   UNL     1       6.714  -0.798  26.207  0.00  0.00    -0.118 OA
BRANCH  11  14
ATOM     14  O   UNL     1       4.744  -1.930  25.330  0.00  0.00    -0.231 OA
ATOM     15  H   UNL     1       5.210  -2.592  25.876  0.00  0.00    +0.247 HD
ENDBRANCH  11  14
ENDBRANCH  10  11
ENDBRANCH   4  10
BRANCH   3  16
ATOM     16  O   UNL     1       7.855   1.854  23.853  0.00  0.00    -0.207 OA
BRANCH  16  17
ATOM     17  S   UNL     1       6.757   3.051  23.739  0.00  0.00    +0.208 S 
ATOM     18  O   UNL     1       7.206   3.983  22.728  0.00  0.00    -0.118 OA
ATOM     19  O   UNL     1       6.366   3.455  25.067  0.00  0.00    -0.118 OA
BRANCH  17  20
ATOM     20  O   UNL     1       5.477   2.261  23.180  0.00  0.00    -0.231 OA
ATOM     21  H   UNL     1       5.396   1.451  23.730  0.00  0.00    +0.247 HD
ENDBRANCH  17  20
ENDBRANCH  16  17
ENDBRANCH   3  16
ENDBRANCH   1   5
BRANCH   1  22
ATOM     22  C   UNL     1       7.113  -3.969  23.139  0.00  0.00    +0.181 C 
ATOM     23  C   UNL     1       6.612  -4.797  24.356  0.00  0.00    +0.219 C 
ATOM     24  C   UNL     1       5.586  -5.856  23.900  0.00  0.00    +0.241 C 
ATOM     25  C   UNL     1       4.495  -5.218  23.027  0.00  0.00    +0.281 C 
ATOM     26  O   UNL     1       5.071  -4.554  21.915  0.00  0.00    -0.346 OA
ATOM     27  C   UNL     1       5.911  -3.474  22.318  0.00  0.00    +0.197 C 
BRANCH  25  28
ATOM     28  O   UNL     1       3.658  -6.248  22.514  0.00  0.00    -0.365 OA
ATOM     29  H   UNL     1       4.250  -7.016  22.422  0.00  0.00    +0.213 HD
ENDBRANCH  25  28
BRANCH  23  30
ATOM     30  O   UNL     1       7.685  -5.351  25.135  0.00  0.00    -0.207 OA
BRANCH  30  31
ATOM     31  S   UNL     1       8.028  -4.837  26.635  0.00  0.00    +0.208 S 
ATOM     32  O   UNL     1       9.410  -4.432  26.711  0.00  0.00    -0.118 OA
ATOM     33  O   UNL     1       7.470  -5.791  27.569  0.00  0.00    -0.118 OA
BRANCH  31  34
ATOM     34  O   UNL     1       7.117  -3.520  26.761  0.00  0.00    -0.231 OA
ATOM     35  H   UNL     1       6.235  -3.791  27.085  0.00  0.00    +0.247 HD
ENDBRANCH  31  34
ENDBRANCH  30  31
ENDBRANCH  23  30
BRANCH  24  36
ATOM     36  O   UNL     1       5.094  -6.706  24.935  0.00  0.00    -0.205 OA
BRANCH  36  37
ATOM     37  S   UNL     1       4.127  -6.210  26.136  0.00  0.00    +0.208 S 
ATOM     38  O   UNL     1       2.784  -6.650  25.845  0.00  0.00    -0.118 OA
ATOM     39  O   UNL     1       4.444  -4.825  26.396  0.00  0.00    -0.118 OA
BRANCH  37  40
ATOM     40  O   UNL     1       4.640  -7.025  27.424  0.00  0.00    -0.231 OA
ATOM     41  H   UNL     1       4.371  -7.966  27.346  0.00  0.00    +0.247 HD
ENDBRANCH  37  40
ENDBRANCH  36  37
ENDBRANCH  24  36
ENDBRANCH   1  22
TORSDOF 16
ENDMDL
MODEL 3
REMARK VINA RESULT:      -6.6      2.245      8.108
REMARK  Name = 
REMARK  16 active torsions:
REMARK  status: ('A' for Active; 'I' for Inactive)
REMARK    1  A    between atoms: O_1  and  C_2
REMARK    2  A    between atoms: C_6  and  O_8
REMARK    3  A    between atoms: O_8  and  C_9
REMARK    4  A    between atoms: C_13  and  O_15
REMARK    5  A    between atoms: C_16  and  O_18
REMARK    6  A    between atoms: O_18  and  S_19
REMARK    7  A    between atoms: S_19  and  O_20
REMARK    8  A    between atoms: C_23  and  O_25
REMARK    9  A    between atoms: O_25  and  S_26
REMARK   10  A    between atoms: S_26  and  O_27
REMARK   11  A    between atoms: C_30  and  O_32
REMARK   12  A    between atoms: O_32  and  S_33
REMARK   13  A    between atoms: S_33  and  O_34
REMARK   14  A    between atoms: C_37  and  O_39
REMARK   15  A    between atoms: O_39  and  S_40
REMARK   16  A    between atoms: S_40  and  O_41
REMARK                            x       y       z     vdW  Elec       q    Type
REMARK                         _______ _______ _______ _____ _____    ______ ____
ROOT
ATOM      1  O   UNL     1       7.193  -2.886  24.950  0.00  0.00    -0.340 OA
ENDROOT
BRANCH   1   5
ATOM      2  C   UNL     1       5.727   0.994  24.661  0.00  0.00    +0.174 C 
ATOM      3  C   UNL     1       7.167   0.818  24.150  0.00  0.00    +0.218 C 
ATOM      4  C   UNL     1       7.564  -0.677  24.050  0.00  0.00    +0.241 C 
ATOM      5  C   UNL     1       7.075  -1.496  25.270  0.00  0.00    +0.285 C 
ATOM      6  O   UNL     1       5.723  -1.229  25.590  0.00  0.00    -0.346 OA
ATOM      7  C   UNL     1       5.464   0.129  25.880  0.00  0.00    +0.197 C 
BRANCH   2   8
ATOM      8  O   UNL     1       5.441   2.349  25.000  0.00  0.00    -0.387 OA
ATOM      9  H   UNL     1       4.544   2.442  25.363  0.00  0.00    +0.210 HD
ENDBRANCH   2   8
BRANCH   4  10
ATOM     10  O   UNL     1       9.002  -0.743  23.947  0.00  0.00    -0.205 OA
BRANCH  10  11
ATOM     11  S   UNL     1       9.665  -1.480  22.648  0.00  0.00    +0.208 S 
ATOM     12  O   UNL     1      10.546  -2.522  23.098  0.00  0.00    -0.118 OA
ATOM     13  O   UNL     1      10.054  -0.448  21.710  0.00  0.00    -0.118 OA
BRANCH  11  14
ATOM     14  O   UNL     1       8.365  -2.179  22.002  0.00  0.00    -0.231 OA
ATOM     15  H   UNL     1       7.576  -1.929  22.522  0.00  0.00    +0.247 HD
ENDBRANCH  11  14
ENDBRANCH  10  11
ENDBRANCH   4  10
BRANCH   3  16
ATOM     16  O   UNL     1       7.296   1.370  22.826  0.00  0.00    -0.207 OA
BRANCH  16  17
ATOM     17  S   UNL     1       8.229   2.678  22.564  0.00  0.00    +0.208 S 
ATOM     18  O   UNL     1       9.058   2.886  23.731  0.00  0.00    -0.118 OA
ATOM     19  O   UNL     1       7.421   3.717  21.975  0.00  0.00    -0.118 OA
BRANCH  17  20
ATOM     20  O   UNL     1       9.157   2.175  21.355  0.00  0.00    -0.231 OA
ATOM     21  H   UNL     1       8.799   2.596  20.544  0.00  0.00    +0.247 HD
ENDBRANCH  17  20
ENDBRANCH  16  17
ENDBRANCH   3  16
ENDBRANCH   1   5
BRANCH   1  22
ATOM     22  C   UNL     1       6.355  -3.759  25.720  0.00  0.00    +0.181 C 
ATOM     23  C   UNL     1       5.892  -4.938  24.818  0.00  0.00    +0.219 C 
ATOM     24  C   UNL     1       5.129  -5.987  25.655  0.00  0.00    +0.241 C 
ATOM     25  C   UNL     1       5.930  -6.373  26.907  0.00  0.00    +0.281 C 
ATOM     26  O   UNL     1       6.231  -5.223  27.681  0.00  0.00    -0.346 OA
ATOM     27  C   UNL     1       7.061  -4.307  26.970  0.00  0.00    +0.197 C 
BRANCH  25  28
ATOM     28  O   UNL     1       5.131  -7.227  27.718  0.00  0.00    -0.365 OA
ATOM     29  H   UNL     1       4.313  -6.720  27.868  0.00  0.00    +0.213 HD
ENDBRANCH  25  28
BRANCH  23  30
ATOM     30  O   UNL     1       5.162  -4.503  23.660  0.00  0.00    -0.207 OA
BRANCH  30  31
ATOM     31  S   UNL     1       5.786  -4.564  22.163  0.00  0.00    +0.208 S 
ATOM     32  O   UNL     1       5.553  -3.314  21.483  0.00  0.00    -0.118 OA
ATOM     33  O   UNL     1       5.401  -5.828  21.573  0.00  0.00    -0.118 OA
BRANCH  31  34
ATOM     34  O   UNL     1       7.362  -4.683  22.455  0.00  0.00    -0.231 OA
ATOM     35  H   UNL     1       7.578  -5.629  22.575  0.00  0.00    +0.247 HD
ENDBRANCH  31  34
ENDBRANCH  30  31
ENDBRANCH  23  30
BRANCH  24  36
ATOM     36  O   UNL     1       4.617  -7.094  24.916  0.00  0.00    -0.205 OA
BRANCH  36  37
ATOM     37  S   UNL     1       3.070  -7.246  24.459  0.00  0.00    +0.208 S 
ATOM     38  O   UNL     1       2.287  -6.279  25.189  0.00  0.00    -0.118 OA
ATOM     39  O   UNL     1       2.757  -8.656  24.470  0.00  0.00    -0.118 OA
BRANCH  37  40
ATOM     40  O   UNL     1       3.065  -6.809  22.911  0.00  0.00    -0.231 OA
ATOM     41  H   UNL     1       3.989  -6.704  22.596  0.00  0.00    +0.247 HD
ENDBRANCH  37  40
ENDBRANCH  36  37
ENDBRANCH  24  36
ENDBRANCH   1  22
TORSDOF 16
ENDMDL
MODEL 4
REMARK VINA RESULT:      -6.2      2.200      8.254
REMARK  Name = 
REMARK  16 active torsions:
REMARK  status: ('A' for Active; 'I' for Inactive)
REMARK    1  A    between atoms: O_1  and  C_2
REMARK    2  A    between atoms: C_6  and  O_8
REMARK    3  A    between atoms: O_8  and  C_9
REMARK    4  A    between atoms: C_13  and  O_15
REMARK    5  A    between atoms: C_16  and  O_18
REMARK    6  A    between atoms: O_18  and  S_19
REMARK    7  A    between atoms: S_19  and  O_20
REMARK    8  A    between atoms: C_23  and  O_25
REMARK    9  A    between atoms: O_25  and  S_26
REMARK   10  A    between atoms: S_26  and  O_27
REMARK   11  A    between atoms: C_30  and  O_32
REMARK   12  A    between atoms: O_32  and  S_33
REMARK   13  A    between atoms: S_33  and  O_34
REMARK   14  A    between atoms: C_37  and  O_39
REMARK   15  A    between atoms: O_39  and  S_40
REMARK   16  A    between atoms: S_40  and  O_41
REMARK                            x       y       z     vdW  Elec       q    Type
REMARK                         _______ _______ _______ _____ _____    ______ ____
ROOT
ATOM      1  O   UNL     1       7.587  -0.553  24.591  0.00  0.00    -0.340 OA
ENDROOT
BRANCH   1   5
ATOM      2  C   UNL     1       7.316   3.262  26.222  0.00  0.00    +0.174 C 
ATOM      3  C   UNL     1       8.376   3.116  25.118  0.00  0.00    +0.218 C 
ATOM      4  C   UNL     1       8.260   1.756  24.383  0.00  0.00    +0.241 C 
ATOM      5  C   UNL     1       7.998   0.583  25.359  0.00  0.00    +0.285 C 
ATOM      6  O   UNL     1       6.978   0.877  26.294  0.00  0.00    -0.346 OA
ATOM      7  C   UNL     1       7.242   2.016  27.086  0.00  0.00    +0.197 C 
BRANCH   2   8
ATOM      8  O   UNL     1       7.573   4.381  27.066  0.00  0.00    -0.387 OA
ATOM      9  H   UNL     1       8.030   4.113  27.882  0.00  0.00    +0.210 HD
ENDBRANCH   2   8
BRANCH   4  10
ATOM     10  O   UNL     1       9.489   1.541  23.659  0.00  0.00    -0.205 OA
BRANCH  10  11
ATOM     11  S   UNL     1       9.434   1.423  22.030  0.00  0.00    +0.208 S 
ATOM     12  O   UNL     1       8.174   1.933  21.565  0.00  0.00    -0.118 OA
ATOM     13  O   UNL     1       9.959   0.124  21.667  0.00  0.00    -0.118 OA
BRANCH  11  14
ATOM     14  O   UNL     1      10.578   2.479  21.614  0.00  0.00    -0.231 OA
ATOM     15  H   UNL     1      11.364   1.992  21.300  0.00  0.00    +0.247 HD
ENDBRANCH  11  14
ENDBRANCH  10  11
ENDBRANCH   4  10
BRANCH   3  16
ATOM     16  O   UNL     1       8.202   4.141  24.121  0.00  0.00    -0.207 OA
BRANCH  16  17
ATOM     17  S   UNL     1       9.342   5.283  23.903  0.00  0.00    +0.208 S 
ATOM     18  O   UNL     1       8.801   6.301  23.028  0.00  0.00    -0.118 OA
ATOM     19  O   UNL     1      10.611   4.639  23.675  0.00  0.00    -0.118 OA
BRANCH  17  20
ATOM     20  O   UNL     1       9.475   5.892  25.382  0.00  0.00    -0.231 OA
ATOM     21  H   UNL     1       9.985   5.233  25.902  0.00  0.00    +0.247 HD
ENDBRANCH  17  20
ENDBRANCH  16  17
ENDBRANCH   3  16
ENDBRANCH   1   5
BRANCH   1  22
ATOM     22  C   UNL     1       8.183  -1.797  24.983  0.00  0.00    +0.181 C 
ATOM     23  C   UNL     1       7.059  -2.850  25.195  0.00  0.00    +0.219 C 
ATOM     24  C   UNL     1       7.669  -4.244  25.452  0.00  0.00    +0.241 C 
ATOM     25  C   UNL     1       8.716  -4.586  24.382  0.00  0.00    +0.281 C 
ATOM     26  O   UNL     1       9.724  -3.589  24.332  0.00  0.00    -0.346 OA
ATOM     27  C   UNL     1       9.196  -2.320  23.952  0.00  0.00    +0.197 C 
BRANCH  25  28
ATOM     28  O   UNL     1       9.352  -5.809  24.736  0.00  0.00    -0.365 OA
ATOM     29  H   UNL     1       9.988  -5.967  24.014  0.00  0.00    +0.213 HD
ENDBRANCH  25  28
BRANCH  23  30
ATOM     30  O   UNL     1       6.108  -2.458  26.198  0.00  0.00    -0.207 OA
BRANCH  30  31
ATOM     31  S   UNL     1       4.566  -2.099  25.844  0.00  0.00    +0.208 S 
ATOM     32  O   UNL     1       3.741  -2.268  27.015  0.00  0.00    -0.118 OA
ATOM     33  O   UNL     1       4.236  -2.742  24.591  0.00  0.00    -0.118 OA
BRANCH  31  34
ATOM     34  O   UNL     1       4.648  -0.527  25.519  0.00  0.00    -0.231 OA
ATOM     35  H   UNL     1       5.040  -0.077  26.293  0.00  0.00    +0.247 HD
ENDBRANCH  31  34
ENDBRANCH  30  31
ENDBRANCH  23  30
BRANCH  24  36
ATOM     36  O   UNL     1       6.723  -5.281  25.706  0.00  0.00    -0.205 OA
BRANCH  36  37
ATOM     37  S   UNL     1       6.350  -5.830  27.184  0.00  0.00    +0.208 S 
ATOM     38  O   UNL     1       7.573  -5.955  27.940  0.00  0.00    -0.118 OA
ATOM     39  O   UNL     1       5.436  -6.935  27.011  0.00  0.00    -0.118 OA
BRANCH  37  40
ATOM     40  O   UNL     1       5.486  -4.646  27.845  0.00  0.00    -0.231 OA
ATOM     41  H   UNL     1       5.572  -4.682  28.822  0.00  0.00    +0.247 HD
ENDBRANCH  37  40
ENDBRANCH  36  37
ENDBRANCH  24  36
ENDBRANCH   1  22
TORSDOF 16
ENDMDL
MODEL 5
REMARK VINA RESULT:      -6.2      2.160      4.178
REMARK  Name = 
REMARK  16 active torsions:
REMARK  status: ('A' for Active; 'I' for Inactive)
REMARK    1  A    between atoms: O_1  and  C_2
REMARK    2  A    between atoms: C_6  and  O_8
REMARK    3  A    between atoms: O_8  and  C_9
REMARK    4  A    between atoms: C_13  and  O_15
REMARK    5  A    between atoms: C_16  and  O_18
REMARK    6  A    between atoms: O_18  and  S_19
REMARK    7  A    between atoms: S_19  and  O_20
REMARK    8  A    between atoms: C_23  and  O_25
REMARK    9  A    between atoms: O_25  and  S_26
REMARK   10  A    between atoms: S_26  and  O_27
REMARK   11  A    between atoms: C_30  and  O_32
REMARK   12  A    between atoms: O_32  and  S_33
REMARK   13  A    between atoms: S_33  and  O_34
REMARK   14  A    between atoms: C_37  and  O_39
REMARK   15  A    between atoms: O_39  and  S_40
REMARK   16  A    between atoms: S_40  and  O_41
REMARK                            x       y       z     vdW  Elec       q    Type
REMARK                         _______ _______ _______ _____ _____    ______ ____
ROOT
ATOM      1  O   UNL     1       7.556  -3.548  25.558  0.00  0.00    -0.340 OA
ENDROOT
BRANCH   1   5
ATOM      2  C   UNL     1       5.408  -6.518  27.523  0.00  0.00    +0.174 C 
ATOM      3  C   UNL     1       4.744  -5.997  26.237  0.00  0.00    +0.218 C 
ATOM      4  C   UNL     1       5.698  -5.085  25.424  0.00  0.00    +0.241 C 
ATOM      5  C   UNL     1       6.490  -4.110  26.331  0.00  0.00    +0.285 C 
ATOM      6  O   UNL     1       7.052  -4.757  27.456  0.00  0.00    -0.346 OA
ATOM      7  C   UNL     1       6.100  -5.398  28.279  0.00  0.00    +0.197 C 
BRANCH   2   8
ATOM      8  O   UNL     1       4.468  -7.138  28.397  0.00  0.00    -0.387 OA
ATOM      9  H   UNL     1       4.865  -7.333  29.263  0.00  0.00    +0.210 HD
ENDBRANCH   2   8
BRANCH   4  10
ATOM     10  O   UNL     1       4.899  -4.349  24.475  0.00  0.00    -0.205 OA
BRANCH  10  11
ATOM     11  S   UNL     1       5.215  -4.518  22.880  0.00  0.00    +0.208 S 
ATOM     12  O   UNL     1       5.053  -3.246  22.233  0.00  0.00    -0.118 OA
ATOM     13  O   UNL     1       4.574  -5.736  22.434  0.00  0.00    -0.118 OA
BRANCH  11  14
ATOM     14  O   UNL     1       6.791  -4.853  22.921  0.00  0.00    -0.231 OA
ATOM     15  H   UNL     1       6.913  -5.821  22.879  0.00  0.00    +0.247 HD
ENDBRANCH  11  14
ENDBRANCH  10  11
ENDBRANCH   4  10
BRANCH   3  16
ATOM     16  O   UNL     1       4.393  -7.098  25.377  0.00  0.00    -0.207 OA
BRANCH  16  17
ATOM     17  S   UNL     1       2.832  -7.489  25.131  0.00  0.00    +0.208 S 
ATOM     18  O   UNL     1       2.152  -7.465  26.407  0.00  0.00    -0.118 OA
ATOM     19  O   UNL     1       2.769  -8.608  24.223  0.00  0.00    -0.118 OA
BRANCH  17  20
ATOM     20  O   UNL     1       2.324  -6.247  24.252  0.00  0.00    -0.231 OA
ATOM     21  H   UNL     1       2.446  -5.449  24.813  0.00  0.00    +0.247 HD
ENDBRANCH  17  20
ENDBRANCH  16  17
ENDBRANCH   3  16
ENDBRANCH   1   5
BRANCH   1  22
ATOM     22  C   UNL     1       7.621  -2.116  25.568  0.00  0.00    +0.181 C 
ATOM     23  C   UNL     1       7.318  -1.588  24.137  0.00  0.00    +0.219 C 
ATOM     24  C   UNL     1       7.212  -0.048  24.144  0.00  0.00    +0.241 C 
ATOM     25  C   UNL     1       6.260   0.428  25.252  0.00  0.00    +0.281 C 
ATOM     26  O   UNL     1       6.681  -0.060  26.515  0.00  0.00    -0.346 OA
ATOM     27  C   UNL     1       6.644  -1.485  26.572  0.00  0.00    +0.197 C 
BRANCH  25  28
ATOM     28  O   UNL     1       6.303   1.849  25.315  0.00  0.00    -0.365 OA
ATOM     29  H   UNL     1       5.459   2.132  24.917  0.00  0.00    +0.213 HD
ENDBRANCH  25  28
BRANCH  23  30
ATOM     30  O   UNL     1       8.237  -2.084  23.151  0.00  0.00    -0.207 OA
BRANCH  30  31
ATOM     31  S   UNL     1       9.844  -1.913  23.294  0.00  0.00    +0.208 S 
ATOM     32  O   UNL     1      10.422  -3.129  23.812  0.00  0.00    -0.118 OA
ATOM     33  O   UNL     1      10.101  -0.632  23.914  0.00  0.00    -0.118 OA
BRANCH  31  34
ATOM     34  O   UNL     1      10.308  -1.758  21.763  0.00  0.00    -0.231 OA
ATOM     35  H   UNL     1      10.531  -0.819  21.608  0.00  0.00    +0.247 HD
ENDBRANCH  31  34
ENDBRANCH  30  31
ENDBRANCH  23  30
BRANCH  24  36
ATOM     36  O   UNL     1       6.980   0.548  22.869  0.00  0.00    -0.205 OA
BRANCH  36  37
ATOM     37  S   UNL     1       7.959   1.640  22.183  0.00  0.00    +0.208 S 
ATOM     38  O   UNL     1       7.156   2.759  21.752  0.00  0.00    -0.118 OA
ATOM     39  O   UNL     1       8.831   0.926  21.279  0.00  0.00    -0.118 OA
BRANCH  37  40
ATOM     40  O   UNL     1       8.897   2.148  23.387  0.00  0.00    -0.231 OA
ATOM     41  H   UNL     1       9.537   1.443  23.625  0.00  0.00    +0.247 HD
ENDBRANCH  37  40
ENDBRANCH  36  37
ENDBRANCH  24  36
ENDBRANCH   1  22
TORSDOF 16
ENDMDL
MODEL 6
REMARK VINA RESULT:      -6.1      1.467      2.460
REMARK  Name = 
REMARK  16 active torsions:
REMARK  status: ('A' for Active; 'I' for Inactive)
REMARK    1  A    between atoms: O_1  and  C_2
REMARK    2  A    between atoms: C_6  and  O_8
REMARK    3  A    between atoms: O_8  and  C_9
REMARK    4  A    between atoms: C_13  and  O_15
REMARK    5  A    between atoms: C_16  and  O_18
REMARK    6  A    between atoms: O_18  and  S_19
REMARK    7  A    between atoms: S_19  and  O_20
REMARK    8  A    between atoms: C_23  and  O_25
REMARK    9  A    between atoms: O_25  and  S_26
REMARK   10  A    between atoms: S_26  and  O_27
REMARK   11  A    between atoms: C_30  and  O_32
REMARK   12  A    between atoms: O_32  and  S_33
REMARK   13  A    between atoms: S_33  and  O_34
REMARK   14  A    between atoms: C_37  and  O_39
REMARK   15  A    between atoms: O_39  and  S_40
REMARK   16  A    between atoms: S_40  and  O_41
REMARK                            x       y       z     vdW  Elec       q    Type
REMARK                         _______ _______ _______ _____ _____    ______ ____
ROOT
ATOM      1  O   UNL     1       5.699  -2.993  24.063  0.00  0.00    -0.340 OA
ENDROOT
BRANCH   1   5
ATOM      2  C   UNL     1       3.733  -6.638  24.435  0.00  0.00    +0.174 C 
ATOM      3  C   UNL     1       5.146  -6.613  25.041  0.00  0.00    +0.218 C 
ATOM      4  C   UNL     1       5.724  -5.175  25.095  0.00  0.00    +0.241 C 
ATOM      5  C   UNL     1       5.425  -4.374  23.804  0.00  0.00    +0.285 C 
ATOM      6  O   UNL     1       4.075  -4.490  23.399  0.00  0.00    -0.346 OA
ATOM      7  C   UNL     1       3.664  -5.820  23.159  0.00  0.00    +0.197 C 
BRANCH   2   8
ATOM      8  O   UNL     1       3.299  -7.965  24.143  0.00  0.00    -0.387 OA
ATOM      9  H   UNL     1       4.054  -8.561  24.003  0.00  0.00    +0.210 HD
ENDBRANCH   2   8
BRANCH   4  10
ATOM     10  O   UNL     1       7.148  -5.282  25.301  0.00  0.00    -0.205 OA
BRANCH  10  11
ATOM     11  S   UNL     1       7.793  -4.675  26.674  0.00  0.00    +0.208 S 
ATOM     12  O   UNL     1       6.972  -3.593  27.140  0.00  0.00    -0.118 OA
ATOM     13  O   UNL     1       9.224  -4.573  26.478  0.00  0.00    -0.118 OA
BRANCH  11  14
ATOM     14  O   UNL     1       7.586  -5.919  27.678  0.00  0.00    -0.231 OA
ATOM     15  H   UNL     1       8.434  -6.395  27.777  0.00  0.00    +0.247 HD
ENDBRANCH  11  14
ENDBRANCH  10  11
ENDBRANCH   4  10
BRANCH   3  16
ATOM     16  O   UNL     1       5.115  -7.098  26.396  0.00  0.00    -0.207 OA
BRANCH  16  17
ATOM     17  S   UNL     1       3.951  -6.608  27.423  0.00  0.00    +0.208 S 
ATOM     18  O   UNL     1       2.682  -7.110  26.943  0.00  0.00    -0.118 OA
ATOM     19  O   UNL     1       4.176  -5.224  27.759  0.00  0.00    -0.118 OA
BRANCH  17  20
ATOM     20  O   UNL     1       4.346  -7.402  28.761  0.00  0.00    -0.231 OA
ATOM     21  H   UNL     1       3.976  -6.880  29.506  0.00  0.00    +0.247 HD
ENDBRANCH  17  20
ENDBRANCH  16  17
ENDBRANCH   3  16
ENDBRANCH   1   5
BRANCH   1  22
ATOM     22  C   UNL     1       6.561  -2.358  23.109  0.00  0.00    +0.181 C 
ATOM     23  C   UNL     1       7.094  -1.030  23.718  0.00  0.00    +0.219 C 
ATOM     24  C   UNL     1       8.157  -0.402  22.792  0.00  0.00    +0.241 C 
ATOM     25  C   UNL     1       9.222  -1.438  22.404  0.00  0.00    +0.281 C 
ATOM     26  O   UNL     1       8.621  -2.570  21.797  0.00  0.00    -0.346 OA
ATOM     27  C   UNL     1       7.743  -3.249  22.694  0.00  0.00    +0.197 C 
BRANCH  25  28
ATOM     28  O   UNL     1      10.096  -0.860  21.442  0.00  0.00    -0.365 OA
ATOM     29  H   UNL     1      10.781  -1.539  21.300  0.00  0.00    +0.213 HD
ENDBRANCH  25  28
BRANCH  23  30
ATOM     30  O   UNL     1       6.043  -0.115  24.070  0.00  0.00    -0.207 OA
BRANCH  30  31
ATOM     31  S   UNL     1       5.911   0.531  25.552  0.00  0.00    +0.208 S 
ATOM     32  O   UNL     1       6.504  -0.351  26.527  0.00  0.00    -0.118 OA
ATOM     33  O   UNL     1       4.558   1.021  25.704  0.00  0.00    -0.118 OA
BRANCH  31  34
ATOM     34  O   UNL     1       6.838   1.838  25.438  0.00  0.00    -0.231 OA
ATOM     35  H   UNL     1       6.271   2.591  25.177  0.00  0.00    +0.247 HD
ENDBRANCH  31  34
ENDBRANCH  30  31
ENDBRANCH  23  30
BRANCH  24  36
ATOM     36  O   UNL     1       8.681   0.849  23.234  0.00  0.00    -0.205 OA
BRANCH  36  37
ATOM     37  S   UNL     1       8.623   2.216  22.368  0.00  0.00    +0.208 S 
ATOM     38  O   UNL     1       8.564   3.329  23.285  0.00  0.00    -0.118 OA
ATOM     39  O   UNL     1       7.640   2.023  21.328  0.00  0.00    -0.118 OA
BRANCH  37  40
ATOM     40  O   UNL     1      10.046   2.277  21.620  0.00  0.00    -0.231 OA
ATOM     41  H   UNL     1      10.635   1.578  21.978  0.00  0.00    +0.247 HD
ENDBRANCH  37  40
ENDBRANCH  36  37
ENDBRANCH  24  36
ENDBRANCH   1  22
TORSDOF 16
ENDMDL
MODEL 7
REMARK VINA RESULT:      -6.0      2.295      8.279
REMARK  Name = 
REMARK  16 active torsions:
REMARK  status: ('A' for Active; 'I' for Inactive)
REMARK    1  A    between atoms: O_1  and  C_2
REMARK    2  A    between atoms: C_6  and  O_8
REMARK    3  A    between atoms: O_8  and  C_9
REMARK    4  A    between atoms: C_13  and  O_15
REMARK    5  A    between atoms: C_16  and  O_18
REMARK    6  A    between atoms: O_18  and  S_19
REMARK    7  A    between atoms: S_19  and  O_20
REMARK    8  A    between atoms: C_23  and  O_25
REMARK    9  A    between atoms: O_25  and  S_26
REMARK   10  A    between atoms: S_26  and  O_27
REMARK   11  A    between atoms: C_30  and  O_32
REMARK   12  A    between atoms: O_32  and  S_33
REMARK   13  A    between atoms: S_33  and  O_34
REMARK   14  A    between atoms: C_37  and  O_39
REMARK   15  A    between atoms: O_39  and  S_40
REMARK   16  A    between atoms: S_40  and  O_41
REMARK                            x       y       z     vdW  Elec       q    Type
REMARK                         _______ _______ _______ _____ _____    ______ ____
ROOT
ATOM      1  O   UNL     1       6.410  -2.832  24.677  0.00  0.00    -0.340 OA
ENDROOT
BRANCH   1   5
ATOM      2  C   UNL     1       6.218   1.302  24.270  0.00  0.00    +0.174 C 
ATOM      3  C   UNL     1       7.640   0.721  24.203  0.00  0.00    +0.218 C 
ATOM      4  C   UNL     1       7.628  -0.826  24.108  0.00  0.00    +0.241 C 
ATOM      5  C   UNL     1       6.581  -1.462  25.056  0.00  0.00    +0.285 C 
ATOM      6  O   UNL     1       5.322  -0.821  24.976  0.00  0.00    -0.346 OA
ATOM      7  C   UNL     1       5.365   0.558  25.281  0.00  0.00    +0.197 C 
BRANCH   2   8
ATOM      8  O   UNL     1       6.220   2.685  24.614  0.00  0.00    -0.387 OA
ATOM      9  H   UNL     1       5.496   3.161  24.174  0.00  0.00    +0.210 HD
ENDBRANCH   2   8
BRANCH   4  10
ATOM     10  O   UNL     1       8.951  -1.297  24.436  0.00  0.00    -0.205 OA
BRANCH  10  11
ATOM     11  S   UNL     1       9.711  -2.301  23.394  0.00  0.00    +0.208 S 
ATOM     12  O   UNL     1      10.162  -3.464  24.108  0.00  0.00    -0.118 OA
ATOM     13  O   UNL     1      10.565  -1.493  22.551  0.00  0.00    -0.118 OA
BRANCH  11  14
ATOM     14  O   UNL     1       8.479  -2.747  22.455  0.00  0.00    -0.231 OA
ATOM     15  H   UNL     1       7.650  -2.382  22.820  0.00  0.00    +0.247 HD
ENDBRANCH  11  14
ENDBRANCH  10  11
ENDBRANCH   4  10
BRANCH   3  16
ATOM     16  O   UNL     1       8.319   1.202  23.027  0.00  0.00    -0.207 OA
BRANCH  16  17
ATOM     17  S   UNL     1       9.559   2.248  23.158  0.00  0.00    +0.208 S 
ATOM     18  O   UNL     1      10.572   1.649  23.999  0.00  0.00    -0.118 OA
ATOM     19  O   UNL     1       9.031   3.572  23.379  0.00  0.00    -0.118 OA
BRANCH  17  20
ATOM     20  O   UNL     1      10.103   2.294  21.649  0.00  0.00    -0.231 OA
ATOM     21  H   UNL     1       9.657   1.556  21.177  0.00  0.00    +0.247 HD
ENDBRANCH  17  20
ENDBRANCH  16  17
ENDBRANCH   3  16
ENDBRANCH   1   5
BRANCH   1  22
ATOM     22  C   UNL     1       5.431  -3.553  25.436  0.00  0.00    +0.181 C 
ATOM     23  C   UNL     1       5.246  -4.964  24.810  0.00  0.00    +0.219 C 
ATOM     24  C   UNL     1       4.328  -5.831  25.697  0.00  0.00    +0.241 C 
ATOM     25  C   UNL     1       4.797  -5.801  27.159  0.00  0.00    +0.281 C 
ATOM     26  O   UNL     1       4.859  -4.467  27.637  0.00  0.00    -0.346 OA
ATOM     27  C   UNL     1       5.814  -3.690  26.918  0.00  0.00    +0.197 C 
BRANCH  25  28
ATOM     28  O   UNL     1       3.846  -6.491  27.961  0.00  0.00    -0.365 OA
ATOM     29  H   UNL     1       4.355  -7.216  28.368  0.00  0.00    +0.213 HD
ENDBRANCH  25  28
BRANCH  23  30
ATOM     30  O   UNL     1       4.821  -4.916  23.438  0.00  0.00    -0.207 OA
BRANCH  30  31
ATOM     31  S   UNL     1       5.857  -5.065  22.198  0.00  0.00    +0.208 S 
ATOM     32  O   UNL     1       7.153  -5.464  22.688  0.00  0.00    -0.118 OA
ATOM     33  O   UNL     1       5.696  -3.909  21.344  0.00  0.00    -0.118 OA
BRANCH  31  34
ATOM     34  O   UNL     1       5.234  -6.301  21.381  0.00  0.00    -0.231 OA
ATOM     35  H   UNL     1       5.726  -7.108  21.630  0.00  0.00    +0.247 HD
ENDBRANCH  31  34
ENDBRANCH  30  31
ENDBRANCH  23  30
BRANCH  24  36
ATOM     36  O   UNL     1       4.053  -7.135  25.190  0.00  0.00    -0.205 OA
BRANCH  36  37
ATOM     37  S   UNL     1       2.564  -7.699  24.889  0.00  0.00    +0.208 S 
ATOM     38  O   UNL     1       2.306  -7.559  23.477  0.00  0.00    -0.118 OA
ATOM     39  O   UNL     1       1.685  -7.143  25.891  0.00  0.00    -0.118 OA
BRANCH  37  40
ATOM     40  O   UNL     1       2.659  -9.271  25.214  0.00  0.00    -0.231 OA
ATOM     41  H   UNL     1       1.954  -9.519  25.850  0.00  0.00    +0.247 HD
ENDBRANCH  37  40
ENDBRANCH  36  37
ENDBRANCH  24  36
ENDBRANCH   1  22
TORSDOF 16
ENDMDL
MODEL 8
REMARK VINA RESULT:      -5.9      2.014      2.991
REMARK  Name = 
REMARK  16 active torsions:
REMARK  status: ('A' for Active; 'I' for Inactive)
REMARK    1  A    between atoms: O_1  and  C_2
REMARK    2  A    between atoms: C_6  and  O_8
REMARK    3  A    between atoms: O_8  and  C_9
REMARK    4  A    between atoms: C_13  and  O_15
REMARK    5  A    between atoms: C_16  and  O_18
REMARK    6  A    between atoms: O_18  and  S_19
REMARK    7  A    between atoms: S_19  and  O_20
REMARK    8  A    between atoms: C_23  and  O_25
REMARK    9  A    between atoms: O_25  and  S_26
REMARK   10  A    between atoms: S_26  and  O_27
REMARK   11  A    between atoms: C_30  and  O_32
REMARK   12  A    between atoms: O_32  and  S_33
REMARK   13  A    between atoms: S_33  and  O_34
REMARK   14  A    between atoms: C_37  and  O_39
REMARK   15  A    between atoms: O_39  and  S_40
REMARK   16  A    between atoms: S_40  and  O_41
REMARK                            x       y       z     vdW  Elec       q    Type
REMARK                         _______ _______ _______ _____ _____    ______ ____
ROOT
ATOM      1  O   UNL     1       7.139  -4.450  25.195  0.00  0.00    -0.340 OA
ENDROOT
BRANCH   1   5
ATOM      2  C   UNL     1       3.758  -5.995  23.332  0.00  0.00    +0.174 C 
ATOM      3  C   UNL     1       4.077  -6.627  24.697  0.00  0.00    +0.218 C 
ATOM      4  C   UNL     1       5.186  -5.847  25.448  0.00  0.00    +0.241 C 
ATOM      5  C   UNL     1       6.341  -5.420  24.509  0.00  0.00    +0.285 C 
ATOM      6  O   UNL     1       5.872  -4.838  23.308  0.00  0.00    -0.346 OA
ATOM      7  C   UNL     1       5.026  -5.684  22.557  0.00  0.00    +0.197 C 
BRANCH   2   8
ATOM      8  O   UNL     1       2.936  -6.840  22.530  0.00  0.00    -0.387 OA
ATOM      9  H   UNL     1       3.245  -6.864  21.608  0.00  0.00    +0.210 HD
ENDBRANCH   2   8
BRANCH   4  10
ATOM     10  O   UNL     1       5.686  -6.698  26.501  0.00  0.00    -0.205 OA
BRANCH  10  11
ATOM     11  S   UNL     1       5.445  -6.252  28.055  0.00  0.00    +0.208 S 
ATOM     12  O   UNL     1       5.692  -4.842  28.181  0.00  0.00    -0.118 OA
ATOM     13  O   UNL     1       6.060  -7.255  28.898  0.00  0.00    -0.118 OA
BRANCH  11  14
ATOM     14  O   UNL     1       3.858  -6.489  28.193  0.00  0.00    -0.231 OA
ATOM     15  H   UNL     1       3.609  -7.289  27.691  0.00  0.00    +0.247 HD
ENDBRANCH  11  14
ENDBRANCH  10  11
ENDBRANCH   4  10
BRANCH   3  16
ATOM     16  O   UNL     1       2.910  -6.603  25.541  0.00  0.00    -0.207 OA
BRANCH  16  17
ATOM     17  S   UNL     1       1.884  -7.866  25.569  0.00  0.00    +0.208 S 
ATOM     18  O   UNL     1       1.405  -8.032  26.924  0.00  0.00    -0.118 OA
ATOM     19  O   UNL     1       2.448  -8.944  24.794  0.00  0.00    -0.118 OA
BRANCH  17  20
ATOM     20  O   UNL     1       0.680  -7.322  24.659  0.00  0.00    -0.231 OA
ATOM     21  H   UNL     1       1.070  -6.637  24.072  0.00  0.00    +0.247 HD
ENDBRANCH  17  20
ENDBRANCH  16  17
ENDBRANCH   3  16
ENDBRANCH   1   5
BRANCH   1  22
ATOM     22  C   UNL     1       7.890  -3.573  24.345  0.00  0.00    +0.181 C 
ATOM     23  C   UNL     1       7.456  -2.106  24.626  0.00  0.00    +0.219 C 
ATOM     24  C   UNL     1       8.359  -1.121  23.855  0.00  0.00    +0.241 C 
ATOM     25  C   UNL     1       9.843  -1.441  24.094  0.00  0.00    +0.281 C 
ATOM     26  O   UNL     1      10.129  -2.783  23.736  0.00  0.00    -0.346 OA
ATOM     27  C   UNL     1       9.408  -3.712  24.543  0.00  0.00    +0.197 C 
BRANCH  25  28
ATOM     28  O   UNL     1      10.633  -0.605  23.256  0.00  0.00    -0.365 OA
ATOM     29  H   UNL     1      10.923   0.118  23.843  0.00  0.00    +0.213 HD
ENDBRANCH  25  28
BRANCH  23  30
ATOM     30  O   UNL     1       6.056  -1.883  24.396  0.00  0.00    -0.207 OA
BRANCH  30  31
ATOM     31  S   UNL     1       4.993  -1.691  25.607  0.00  0.00    +0.208 S 
ATOM     32  O   UNL     1       3.843  -2.534  25.389  0.00  0.00    -0.118 OA
ATOM     33  O   UNL     1       4.852  -0.272  25.852  0.00  0.00    -0.118 OA
BRANCH  31  34
ATOM     34  O   UNL     1       5.803  -2.273  26.867  0.00  0.00    -0.231 OA
ATOM     35  H   UNL     1       6.325  -1.543  27.255  0.00  0.00    +0.247 HD
ENDBRANCH  31  34
ENDBRANCH  30  31
ENDBRANCH  23  30
BRANCH  24  36
ATOM     36  O   UNL     1       8.019   0.256  24.005  0.00  0.00    -0.205 OA
BRANCH  36  37
ATOM     37  S   UNL     1       7.769   1.271  22.768  0.00  0.00    +0.208 S 
ATOM     38  O   UNL     1       8.530   0.800  21.636  0.00  0.00    -0.118 OA
ATOM     39  O   UNL     1       7.907   2.614  23.282  0.00  0.00    -0.118 OA
BRANCH  37  40
ATOM     40  O   UNL     1       6.210   1.096  22.415  0.00  0.00    -0.231 OA
ATOM     41  H   UNL     1       6.117   0.693  21.525  0.00  0.00    +0.247 HD
ENDBRANCH  37  40
ENDBRANCH  36  37
ENDBRANCH  24  36
ENDBRANCH   1  22
TORSDOF 16
ENDMDL
MODEL 9
REMARK VINA RESULT:      -5.7      2.248      7.756
REMARK  Name = 
REMARK  16 active torsions:
REMARK  status: ('A' for Active; 'I' for Inactive)
REMARK    1  A    between atoms: O_1  and  C_2
REMARK    2  A    between atoms: C_6  and  O_8
REMARK    3  A    between atoms: O_8  and  C_9
REMARK    4  A    between atoms: C_13  and  O_15
REMARK    5  A    between atoms: C_16  and  O_18
REMARK    6  A    between atoms: O_18  and  S_19
REMARK    7  A    between atoms: S_19  and  O_20
REMARK    8  A    between atoms: C_23  and  O_25
REMARK    9  A    between atoms: O_25  and  S_26
REMARK   10  A    between atoms: S_26  and  O_27
REMARK   11  A    between atoms: C_30  and  O_32
REMARK   12  A    between atoms: O_32  and  S_33
REMARK   13  A    between atoms: S_33  and  O_34
REMARK   14  A    between atoms: C_37  and  O_39
REMARK   15  A    between atoms: O_39  and  S_40
REMARK   16  A    between atoms: S_40  and  O_41
REMARK                            x       y       z     vdW  Elec       q    Type
REMARK                         _______ _______ _______ _____ _____    ______ ____
ROOT
ATOM      1  O   UNL     1       7.459  -1.612  26.873  0.00  0.00    -0.340 OA
ENDROOT
BRANCH   1   5
ATOM      2  C   UNL     1       7.200   2.456  26.053  0.00  0.00    +0.174 C 
ATOM      3  C   UNL     1       8.234   1.700  25.203  0.00  0.00    +0.218 C 
ATOM      4  C   UNL     1       8.110   0.164  25.373  0.00  0.00    +0.241 C 
ATOM      5  C   UNL     1       7.880  -0.244  26.849  0.00  0.00    +0.285 C 
ATOM      6  O   UNL     1       6.881   0.537  27.475  0.00  0.00    -0.346 OA
ATOM      7  C   UNL     1       7.157   1.922  27.473  0.00  0.00    +0.197 C 
BRANCH   2   8
ATOM      8  O   UNL     1       7.469   3.855  26.105  0.00  0.00    -0.387 OA
ATOM      9  H   UNL     1       6.771   4.333  26.584  0.00  0.00    +0.210 HD
ENDBRANCH   2   8
BRANCH   4  10
ATOM     10  O   UNL     1       9.323  -0.434  24.871  0.00  0.00    -0.205 OA
BRANCH  10  11
ATOM     11  S   UNL     1       9.407  -0.835  23.289  0.00  0.00    +0.208 S 
ATOM     12  O   UNL     1      10.310   0.063  22.625  0.00  0.00    -0.118 OA
ATOM     13  O   UNL     1       8.059  -1.104  22.833  0.00  0.00    -0.118 OA
BRANCH  11  14
ATOM     14  O   UNL     1      10.123  -2.275  23.382  0.00  0.00    -0.231 OA
ATOM     15  H   UNL     1      11.088  -2.148  23.468  0.00  0.00    +0.247 HD
ENDBRANCH  11  14
ENDBRANCH  10  11
ENDBRANCH   4  10
BRANCH   3  16
ATOM     16  O   UNL     1       8.029   1.979  23.805  0.00  0.00    -0.207 OA
BRANCH  16  17
ATOM     17  S   UNL     1       8.714   3.284  23.113  0.00  0.00    +0.208 S 
ATOM     18  O   UNL     1       9.890   3.638  23.877  0.00  0.00    -0.118 OA
ATOM     19  O   UNL     1       7.679   4.229  22.773  0.00  0.00    -0.118 OA
BRANCH  17  20
ATOM     20  O   UNL     1       9.179   2.690  21.696  0.00  0.00    -0.231 OA
ATOM     21  H   UNL     1       9.594   1.821  21.889  0.00  0.00    +0.247 HD
ENDBRANCH  17  20
ENDBRANCH  16  17
ENDBRANCH   3  16
ENDBRANCH   1   5
BRANCH   1  22
ATOM     22  C   UNL     1       6.387  -1.932  25.976  0.00  0.00    +0.181 C 
ATOM     23  C   UNL     1       6.561  -3.396  25.483  0.00  0.00    +0.219 C 
ATOM     24  C   UNL     1       5.337  -3.833  24.652  0.00  0.00    +0.241 C 
ATOM     25  C   UNL     1       4.032  -3.528  25.402  0.00  0.00    +0.281 C 
ATOM     26  O   UNL     1       3.957  -2.151  25.735  0.00  0.00    -0.346 OA
ATOM     27  C   UNL     1       5.003  -1.764  26.625  0.00  0.00    +0.197 C 
BRANCH  25  28
ATOM     28  O   UNL     1       2.932  -3.812  24.544  0.00  0.00    -0.365 OA
ATOM     29  H   UNL     1       2.346  -3.040  24.642  0.00  0.00    +0.213 HD
ENDBRANCH  25  28
BRANCH  23  30
ATOM     30  O   UNL     1       7.809  -3.612  24.805  0.00  0.00    -0.207 OA
BRANCH  30  31
ATOM     31  S   UNL     1       8.666  -4.980  24.971  0.00  0.00    +0.208 S 
ATOM     32  O   UNL     1       8.106  -5.784  26.030  0.00  0.00    -0.118 OA
ATOM     33  O   UNL     1      10.069  -4.630  24.952  0.00  0.00    -0.118 OA
BRANCH  31  34
ATOM     34  O   UNL     1       8.385  -5.730  23.578  0.00  0.00    -0.231 OA
ATOM     35  H   UNL     1       8.112  -6.648  23.777  0.00  0.00    +0.247 HD
ENDBRANCH  31  34
ENDBRANCH  30  31
ENDBRANCH  23  30
BRANCH  24  36
ATOM     36  O   UNL     1       5.413  -5.150  24.109  0.00  0.00    -0.205 OA
BRANCH  36  37
ATOM     37  S   UNL     1       5.041  -5.526  22.578  0.00  0.00    +0.208 S 
ATOM     38  O   UNL     1       5.485  -4.448  21.728  0.00  0.00    -0.118 OA
ATOM     39  O   UNL     1       3.676  -5.998  22.573  0.00  0.00    -0.118 OA
BRANCH  37  40
ATOM     40  O   UNL     1       5.950  -6.812  22.250  0.00  0.00    -0.231 OA
ATOM     41  H   UNL     1       6.532  -7.007  23.016  0.00  0.00    +0.247 HD
ENDBRANCH  37  40
ENDBRANCH  36  37
ENDBRANCH  24  36
ENDBRANCH   1  22
TORSDOF 16
ENDMDL
