MODEL 1
REMARK VINA RESULT:      -4.1      0.000      0.000
REMARK  Name = 
REMARK  9 active torsions:
REMARK  status: ('A' for Active; 'I' for Inactive)
REMARK    1  A    between atoms: C_1  and  C_2
REMARK    2  A    between atoms: C_2  and  C_3
REMARK    3  A    between atoms: C_3  and  C_4
REMARK    4  A    between atoms: C_4  and  C_5
REMARK    5  A    between atoms: C_5  and  C_6
REMARK    6  A    between atoms: C_6  and  C_7
REMARK    7  A    between atoms: C_7  and  C_8
REMARK    8  A    between atoms: C_8  and  C_9
REMARK    9  A    between atoms: C_9  and  O_10
REMARK                            x       y       z     vdW  Elec       q    Type
REMARK                         _______ _______ _______ _____ _____    ______ ____
ROOT
ATOM      1  C   UNL     1       9.474   4.708  24.261  0.00  0.00    +0.000 C 
ENDROOT
BRANCH   1   2
ATOM      2  C   UNL     1       9.437   3.289  23.691  0.00  0.00    +0.000 C 
BRANCH   2   3
ATOM      3  C   UNL     1       8.123   3.016  22.959  0.00  0.00    -0.000 C 
BRANCH   3   4
ATOM      4  C   UNL     1       8.331   2.048  21.792  0.00  0.00    -0.000 C 
BRANCH   4   6
ATOM      5  C   UNL     1       9.672  -0.079  21.651  0.00  0.00    +0.004 C 
ATOM      6  C   UNL     1       9.728   1.430  21.822  0.00  0.00    -0.003 C 
ENDBRANCH   4   6
ENDBRANCH   3   4
ENDBRANCH   2   3
ENDBRANCH   1   2
BRANCH   1   7
ATOM      7  C   UNL     1      10.615   5.521  23.647  0.00  0.00    +0.002 C 
BRANCH   7   8
ATOM      8  C   UNL     1      11.828   4.642  23.350  0.00  0.00    +0.028 C 
BRANCH   8   9
ATOM      9  C   UNL     1      12.941   5.433  22.675  0.00  0.00    +0.156 C 
BRANCH   9  10
ATOM     10  O   UNL     1      14.199   5.050  23.212  0.00  0.00    -0.395 OA
ATOM     11  H   UNL     1      14.421   4.178  22.845  0.00  0.00    +0.209 HD
ENDBRANCH   9  10
ENDBRANCH   8   9
ENDBRANCH   7   8
ENDBRANCH   1   7
TORSDOF 8
ENDMDL
MODEL 2
REMARK VINA RESULT:      -3.9      3.470      5.255
REMARK  Name = 
REMARK  9 active torsions:
REMARK  status: ('A' for Active; 'I' for Inactive)
REMARK    1  A    between atoms: C_1  and  C_2
REMARK    2  A    between atoms: C_2  and  C_3
REMARK    3  A    between atoms: C_3  and  C_4
REMARK    4  A    between atoms: C_4  and  C_5
REMARK    5  A    between atoms: C_5  and  C_6
REMARK    6  A    between atoms: C_6  and  C_7
REMARK    7  A    between atoms: C_7  and  C_8
REMARK    8  A    between atoms: C_8  and  C_9
REMARK    9  A    between atoms: C_9  and  O_10
REMARK                            x       y       z     vdW  Elec       q    Type
REMARK                         _______ _______ _______ _____ _____    ______ ____
ROOT
ATOM      1  C   UNL     1       9.657   0.227  25.275  0.00  0.00    +0.000 C 
ENDROOT
BRANCH   1   2
ATOM      2  C   UNL     1      10.747   0.743  24.335  0.00  0.00    +0.000 C 
BRANCH   2   3
ATOM      3  C   UNL     1      10.315   2.032  23.634  0.00  0.00    -0.000 C 
BRANCH   3   4
ATOM      4  C   UNL     1      10.147   1.813  22.129  0.00  0.00    -0.000 C 
BRANCH   4   6
ATOM      5  C   UNL     1       7.816   2.660  22.570  0.00  0.00    +0.004 C 
ATOM      6  C   UNL     1       8.672   1.716  21.741  0.00  0.00    -0.003 C 
ENDBRANCH   4   6
ENDBRANCH   3   4
ENDBRANCH   2   3
ENDBRANCH   1   2
BRANCH   1   7
ATOM      7  C   UNL     1       8.844  -0.891  24.618  0.00  0.00    +0.002 C 
BRANCH   7   8
ATOM      8  C   UNL     1       9.726  -1.781  23.745  0.00  0.00    +0.028 C 
BRANCH   8   9
ATOM      9  C   UNL     1       9.149  -1.938  22.344  0.00  0.00    +0.156 C 
BRANCH   9  10
ATOM     10  O   UNL     1      10.127  -1.580  21.377  0.00  0.00    -0.395 OA
ATOM     11  H   UNL     1      10.418  -0.674  21.577  0.00  0.00    +0.209 HD
ENDBRANCH   9  10
ENDBRANCH   8   9
ENDBRANCH   7   8
ENDBRANCH   1   7
TORSDOF 8
ENDMDL
MODEL 3
REMARK VINA RESULT:      -3.7      4.649      7.060
REMARK  Name = 
REMARK  9 active torsions:
REMARK  status: ('A' for Active; 'I' for Inactive)
REMARK    1  A    between atoms: C_1  and  C_2
REMARK    2  A    between atoms: C_2  and  C_3
REMARK    3  A    between atoms: C_3  and  C_4
REMARK    4  A    between atoms: C_4  and  C_5
REMARK    5  A    between atoms: C_5  and  C_6
REMARK    6  A    between atoms: C_6  and  C_7
REMARK    7  A    between atoms: C_7  and  C_8
REMARK    8  A    between atoms: C_8  and  C_9
REMARK    9  A    between atoms: C_9  and  O_10
REMARK                            x       y       z     vdW  Elec       q    Type
REMARK                         _______ _______ _______ _____ _____    ______ ____
ROOT
ATOM      1  C   UNL     1       8.862  -1.847  22.469  0.00  0.00    +0.000 C 
ENDROOT
BRANCH   1   2
ATOM      2  C   UNL     1       9.849  -0.866  21.834  0.00  0.00    +0.000 C 
BRANCH   2   3
ATOM      3  C   UNL     1       9.190   0.483  21.546  0.00  0.00    -0.000 C 
BRANCH   3   4
ATOM      4  C   UNL     1      10.038   1.639  22.082  0.00  0.00    -0.000 C 
BRANCH   4   6
ATOM      5  C   UNL     1       9.201   1.695  24.457  0.00  0.00    +0.004 C 
ATOM      6  C   UNL     1      10.395   1.433  23.553  0.00  0.00    -0.003 C 
ENDBRANCH   4   6
ENDBRANCH   3   4
ENDBRANCH   2   3
ENDBRANCH   1   2
BRANCH   1   7
ATOM      7  C   UNL     1       9.431  -2.449  23.755  0.00  0.00    +0.002 C 
BRANCH   7   8
ATOM      8  C   UNL     1       8.723  -3.752  24.120  0.00  0.00    +0.028 C 
BRANCH   8   9
ATOM      9  C   UNL     1       9.488  -4.524  25.187  0.00  0.00    +0.156 C 
BRANCH   9  10
ATOM     10  O   UNL     1       9.755  -5.842  24.729  0.00  0.00    -0.395 OA
ATOM     11  H   UNL     1      10.528  -5.797  24.141  0.00  0.00    +0.209 HD
ENDBRANCH   9  10
ENDBRANCH   8   9
ENDBRANCH   7   8
ENDBRANCH   1   7
TORSDOF 8
ENDMDL
MODEL 4
REMARK VINA RESULT:      -3.7      4.135      6.292
REMARK  Name = 
REMARK  9 active torsions:
REMARK  status: ('A' for Active; 'I' for Inactive)
REMARK    1  A    between atoms: C_1  and  C_2
REMARK    2  A    between atoms: C_2  and  C_3
REMARK    3  A    between atoms: C_3  and  C_4
REMARK    4  A    between atoms: C_4  and  C_5
REMARK    5  A    between atoms: C_5  and  C_6
REMARK    6  A    between atoms: C_6  and  C_7
REMARK    7  A    between atoms: C_7  and  C_8
REMARK    8  A    between atoms: C_8  and  C_9
REMARK    9  A    between atoms: C_9  and  O_10
REMARK                            x       y       z     vdW  Elec       q    Type
REMARK                         _______ _______ _______ _____ _____    ______ ____
ROOT
ATOM      1  C   UNL     1       9.808  -2.234  23.784  0.00  0.00    +0.000 C 
ENDROOT
BRANCH   1   2
ATOM      2  C   UNL     1       8.609  -3.152  23.538  0.00  0.00    +0.000 C 
BRANCH   2   3
ATOM      3  C   UNL     1       7.735  -2.635  22.396  0.00  0.00    -0.000 C 
BRANCH   3   4
ATOM      4  C   UNL     1       6.606  -3.617  22.075  0.00  0.00    -0.000 C 
BRANCH   4   6
ATOM      5  C   UNL     1       6.078  -5.997  21.443  0.00  0.00    +0.004 C 
ATOM      6  C   UNL     1       7.113  -5.058  22.040  0.00  0.00    -0.003 C 
ENDBRANCH   4   6
ENDBRANCH   3   4
ENDBRANCH   2   3
ENDBRANCH   1   2
BRANCH   1   7
ATOM      7  C   UNL     1      10.214  -1.501  22.505  0.00  0.00    +0.002 C 
BRANCH   7   8
ATOM      8  C   UNL     1      10.234   0.012  22.713  0.00  0.00    +0.028 C 
BRANCH   8   9
ATOM      9  C   UNL     1       9.445   0.736  21.629  0.00  0.00    +0.156 C 
BRANCH   9  10
ATOM     10  O   UNL     1       9.915   2.071  21.501  0.00  0.00    -0.395 OA
ATOM     11  H   UNL     1       9.225   2.583  21.048  0.00  0.00    +0.209 HD
ENDBRANCH   9  10
ENDBRANCH   8   9
ENDBRANCH   7   8
ENDBRANCH   1   7
TORSDOF 8
ENDMDL
MODEL 5
REMARK VINA RESULT:      -3.7      4.898      7.023
REMARK  Name = 
REMARK  9 active torsions:
REMARK  status: ('A' for Active; 'I' for Inactive)
REMARK    1  A    between atoms: C_1  and  C_2
REMARK    2  A    between atoms: C_2  and  C_3
REMARK    3  A    between atoms: C_3  and  C_4
REMARK    4  A    between atoms: C_4  and  C_5
REMARK    5  A    between atoms: C_5  and  C_6
REMARK    6  A    between atoms: C_6  and  C_7
REMARK    7  A    between atoms: C_7  and  C_8
REMARK    8  A    between atoms: C_8  and  C_9
REMARK    9  A    between atoms: C_9  and  O_10
REMARK                            x       y       z     vdW  Elec       q    Type
REMARK                         _______ _______ _______ _____ _____    ______ ____
ROOT
ATOM      1  C   UNL     1       9.377  -1.556  23.804  0.00  0.00    +0.000 C 
ENDROOT
BRANCH   1   2
ATOM      2  C   UNL     1       9.790  -0.534  24.864  0.00  0.00    +0.000 C 
BRANCH   2   3
ATOM      3  C   UNL     1      10.727   0.526  24.282  0.00  0.00    -0.000 C 
BRANCH   3   4
ATOM      4  C   UNL     1       9.938   1.678  23.657  0.00  0.00    -0.000 C 
BRANCH   4   6
ATOM      5  C   UNL     1       8.743   1.324  21.469  0.00  0.00    +0.004 C 
ATOM      6  C   UNL     1      10.062   1.679  22.134  0.00  0.00    -0.003 C 
ENDBRANCH   4   6
ENDBRANCH   3   4
ENDBRANCH   2   3
ENDBRANCH   1   2
BRANCH   1   7
ATOM      7  C   UNL     1       9.873  -2.958  24.165  0.00  0.00    +0.002 C 
BRANCH   7   8
ATOM      8  C   UNL     1       8.768  -3.789  24.815  0.00  0.00    +0.028 C 
BRANCH   8   9
ATOM      9  C   UNL     1       9.326  -4.731  25.874  0.00  0.00    +0.156 C 
BRANCH   9  10
ATOM     10  O   UNL     1      10.333  -5.555  25.303  0.00  0.00    -0.395 OA
ATOM     11  H   UNL     1      10.580  -5.166  24.448  0.00  0.00    +0.209 HD
ENDBRANCH   9  10
ENDBRANCH   8   9
ENDBRANCH   7   8
ENDBRANCH   1   7
TORSDOF 8
ENDMDL
MODEL 6
REMARK VINA RESULT:      -3.6      3.393      4.367
REMARK  Name = 
REMARK  9 active torsions:
REMARK  status: ('A' for Active; 'I' for Inactive)
REMARK    1  A    between atoms: C_1  and  C_2
REMARK    2  A    between atoms: C_2  and  C_3
REMARK    3  A    between atoms: C_3  and  C_4
REMARK    4  A    between atoms: C_4  and  C_5
REMARK    5  A    between atoms: C_5  and  C_6
REMARK    6  A    between atoms: C_6  and  C_7
REMARK    7  A    between atoms: C_7  and  C_8
REMARK    8  A    between atoms: C_8  and  C_9
REMARK    9  A    between atoms: C_9  and  O_10
REMARK                            x       y       z     vdW  Elec       q    Type
REMARK                         _______ _______ _______ _____ _____    ______ ____
ROOT
ATOM      1  C   UNL     1       8.370   2.032  21.671  0.00  0.00    +0.000 C 
ENDROOT
BRANCH   1   2
ATOM      2  C   UNL     1       9.760   1.423  21.861  0.00  0.00    +0.000 C 
BRANCH   2   3
ATOM      3  C   UNL     1       9.729  -0.098  21.705  0.00  0.00    -0.000 C 
BRANCH   3   4
ATOM      4  C   UNL     1      10.278  -0.793  22.953  0.00  0.00    -0.000 C 
BRANCH   4   6
ATOM      5  C   UNL     1       9.744  -0.114  25.319  0.00  0.00    +0.004 C 
ATOM      6  C   UNL     1      10.554   0.208  24.073  0.00  0.00    -0.003 C 
ENDBRANCH   4   6
ENDBRANCH   3   4
ENDBRANCH   2   3
ENDBRANCH   1   2
BRANCH   1   7
ATOM      7  C   UNL     1       8.119   3.160  22.674  0.00  0.00    +0.002 C 
BRANCH   7   8
ATOM      8  C   UNL     1       6.929   4.022  22.257  0.00  0.00    +0.028 C 
BRANCH   8   9
ATOM      9  C   UNL     1       7.188   5.499  22.521  0.00  0.00    +0.156 C 
BRANCH   9  10
ATOM     10  O   UNL     1       7.520   6.155  21.305  0.00  0.00    -0.395 OA
ATOM     11  H   UNL     1       7.202   5.598  20.575  0.00  0.00    +0.209 HD
ENDBRANCH   9  10
ENDBRANCH   8   9
ENDBRANCH   7   8
ENDBRANCH   1   7
TORSDOF 8
ENDMDL
MODEL 7
REMARK VINA RESULT:      -3.6      3.437      4.298
REMARK  Name = 
REMARK  9 active torsions:
REMARK  status: ('A' for Active; 'I' for Inactive)
REMARK    1  A    between atoms: C_1  and  C_2
REMARK    2  A    between atoms: C_2  and  C_3
REMARK    3  A    between atoms: C_3  and  C_4
REMARK    4  A    between atoms: C_4  and  C_5
REMARK    5  A    between atoms: C_5  and  C_6
REMARK    6  A    between atoms: C_6  and  C_7
REMARK    7  A    between atoms: C_7  and  C_8
REMARK    8  A    between atoms: C_8  and  C_9
REMARK    9  A    between atoms: C_9  and  O_10
REMARK                            x       y       z     vdW  Elec       q    Type
REMARK                         _______ _______ _______ _____ _____    ______ ____
ROOT
ATOM      1  C   UNL     1       9.036   2.392  22.853  0.00  0.00    +0.000 C 
ENDROOT
BRANCH   1   2
ATOM      2  C   UNL     1       9.923   1.557  21.929  0.00  0.00    +0.000 C 
BRANCH   2   3
ATOM      3  C   UNL     1       9.133   0.429  21.266  0.00  0.00    -0.000 C 
BRANCH   3   4
ATOM      4  C   UNL     1       9.681  -0.942  21.669  0.00  0.00    -0.000 C 
BRANCH   4   6
ATOM      5  C   UNL     1       7.459  -1.072  22.849  0.00  0.00    +0.004 C 
ATOM      6  C   UNL     1       8.568  -1.861  22.172  0.00  0.00    -0.003 C 
ENDBRANCH   4   6
ENDBRANCH   3   4
ENDBRANCH   2   3
ENDBRANCH   1   2
BRANCH   1   7
ATOM      7  C   UNL     1       9.459   2.236  24.315  0.00  0.00    +0.002 C 
BRANCH   7   8
ATOM      8  C   UNL     1      10.545   1.173  24.470  0.00  0.00    +0.028 C 
BRANCH   8   9
ATOM      9  C   UNL     1      10.029  -0.048  25.221  0.00  0.00    +0.156 C 
BRANCH   9  10
ATOM     10  O   UNL     1       9.054   0.350  26.175  0.00  0.00    -0.395 OA
ATOM     11  H   UNL     1       9.449   0.247  27.058  0.00  0.00    +0.209 HD
ENDBRANCH   9  10
ENDBRANCH   8   9
ENDBRANCH   7   8
ENDBRANCH   1   7
TORSDOF 8
ENDMDL
MODEL 8
REMARK VINA RESULT:      -3.6      2.555      3.251
REMARK  Name = 
REMARK  9 active torsions:
REMARK  status: ('A' for Active; 'I' for Inactive)
REMARK    1  A    between atoms: C_1  and  C_2
REMARK    2  A    between atoms: C_2  and  C_3
REMARK    3  A    between atoms: C_3  and  C_4
REMARK    4  A    between atoms: C_4  and  C_5
REMARK    5  A    between atoms: C_5  and  C_6
REMARK    6  A    between atoms: C_6  and  C_7
REMARK    7  A    between atoms: C_7  and  C_8
REMARK    8  A    between atoms: C_8  and  C_9
REMARK    9  A    between atoms: C_9  and  O_10
REMARK                            x       y       z     vdW  Elec       q    Type
REMARK                         _______ _______ _______ _____ _____    ______ ____
ROOT
ATOM      1  C   UNL     1      10.885   6.829  25.481  0.00  0.00    +0.000 C 
ENDROOT
BRANCH   1   2
ATOM      2  C   UNL     1       9.686   6.125  24.844  0.00  0.00    +0.000 C 
BRANCH   2   3
ATOM      3  C   UNL     1       8.812   7.107  24.063  0.00  0.00    -0.000 C 
BRANCH   3   4
ATOM      4  C   UNL     1       8.165   6.430  22.853  0.00  0.00    -0.000 C 
BRANCH   4   6
ATOM      5  C   UNL     1       6.874   4.332  22.328  0.00  0.00    +0.004 C 
ATOM      6  C   UNL     1       8.086   4.916  23.037  0.00  0.00    -0.003 C 
ENDBRANCH   4   6
ENDBRANCH   3   4
ENDBRANCH   2   3
ENDBRANCH   1   2
BRANCH   1   7
ATOM      7  C   UNL     1      12.159   6.597  24.666  0.00  0.00    +0.002 C 
BRANCH   7   8
ATOM      8  C   UNL     1      11.987   5.442  23.681  0.00  0.00    +0.028 C 
BRANCH   8   9
ATOM      9  C   UNL     1      13.061   5.463  22.602  0.00  0.00    +0.156 C 
BRANCH   9  10
ATOM     10  O   UNL     1      14.301   5.032  23.148  0.00  0.00    -0.395 OA
ATOM     11  H   UNL     1      14.911   5.788  23.122  0.00  0.00    +0.209 HD
ENDBRANCH   9  10
ENDBRANCH   8   9
ENDBRANCH   7   8
ENDBRANCH   1   7
TORSDOF 8
ENDMDL
MODEL 9
REMARK VINA RESULT:      -3.5      5.341      8.035
REMARK  Name = 
REMARK  9 active torsions:
REMARK  status: ('A' for Active; 'I' for Inactive)
REMARK    1  A    between atoms: C_1  and  C_2
REMARK    2  A    between atoms: C_2  and  C_3
REMARK    3  A    between atoms: C_3  and  C_4
REMARK    4  A    between atoms: C_4  and  C_5
REMARK    5  A    between atoms: C_5  and  C_6
REMARK    6  A    between atoms: C_6  and  C_7
REMARK    7  A    between atoms: C_7  and  C_8
REMARK    8  A    between atoms: C_8  and  C_9
REMARK    9  A    between atoms: C_9  and  O_10
REMARK                            x       y       z     vdW  Elec       q    Type
REMARK                         _______ _______ _______ _____ _____    ______ ____
ROOT
ATOM      1  C   UNL     1       7.523  -3.404  23.437  0.00  0.00    +0.000 C 
ENDROOT
BRANCH   1   2
ATOM      2  C   UNL     1       8.512  -2.550  22.642  0.00  0.00    +0.000 C 
BRANCH   2   3
ATOM      3  C   UNL     1       9.726  -2.167  23.489  0.00  0.00    -0.000 C 
BRANCH   3   4
ATOM      4  C   UNL     1      10.330  -0.841  23.023  0.00  0.00    -0.000 C 
BRANCH   4   6
ATOM      5  C   UNL     1       9.737   1.275  21.793  0.00  0.00    +0.004 C 
ATOM      6  C   UNL     1       9.515  -0.226  21.887  0.00  0.00    -0.003 C 
ENDBRANCH   4   6
ENDBRANCH   3   4
ENDBRANCH   2   3
ENDBRANCH   1   2
BRANCH   1   7
ATOM      7  C   UNL     1       8.142  -4.749  23.825  0.00  0.00    +0.002 C 
BRANCH   7   8
ATOM      8  C   UNL     1       7.945  -5.044  25.310  0.00  0.00    +0.028 C 
BRANCH   8   9
ATOM      9  C   UNL     1       9.255  -4.938  26.080  0.00  0.00    +0.156 C 
BRANCH   9  10
ATOM     10  O   UNL     1      10.283  -5.622  25.378  0.00  0.00    -0.395 OA
ATOM     11  H   UNL     1      11.113  -5.139  25.531  0.00  0.00    +0.209 HD
ENDBRANCH   9  10
ENDBRANCH   8   9
ENDBRANCH   7   8
ENDBRANCH   1   7
TORSDOF 8
ENDMDL
