MODEL 1
REMARK VINA RESULT:      -6.3      0.000      0.000
REMARK  Name = 
REMARK  18 active torsions:
REMARK  status: ('A' for Active; 'I' for Inactive)
REMARK    1  A    between atoms: C_2  and  O_3
REMARK    2  A    between atoms: C_5  and  O_7
REMARK    3  A    between atoms: O_7  and  C_8
REMARK    4  A    between atoms: C_10  and  N_12
REMARK    5  A    between atoms: C_13  and  O_15
REMARK    6  A    between atoms: C_16  and  C_18
REMARK    7  A    between atoms: C_18  and  O_19
REMARK    8  A    between atoms: C_21  and  O_23
REMARK    9  A    between atoms: O_23  and  C_24
REMARK   10  A    between atoms: C_24  and  C_25
REMARK   11  A    between atoms: C_25  and  C_26
REMARK   12  A    between atoms: C_26  and  C_27
REMARK   13  A    between atoms: C_27  and  C_28
REMARK   14  A    between atoms: C_28  and  C_29
REMARK   15  A    between atoms: C_29  and  C_30
REMARK   16  A    between atoms: C_30  and  C_31
REMARK   17  A    between atoms: C_33  and  C_35
REMARK   18  A    between atoms: C_36  and  O_38
REMARK                            x       y       z     vdW  Elec       q    Type
REMARK                         _______ _______ _______ _____ _____    ______ ____
ROOT
ATOM      1  C   UNL     1       8.814  -1.928  24.594  0.00  0.00    +0.196 C 
ATOM      2  C   UNL     1       8.655  -3.362  23.982  0.00  0.00    +0.281 C 
ATOM      3  O   UNL     1       7.685  -4.128  24.692  0.00  0.00    -0.341 OA
ATOM      4  C   UNL     1       7.992  -4.308  26.080  0.00  0.00    +0.177 C 
ATOM      5  C   UNL     1       7.925  -2.937  26.767  0.00  0.00    +0.165 C 
ATOM      6  C   UNL     1       8.992  -2.016  26.131  0.00  0.00    +0.116 C 
ENDROOT
BRANCH   6   7
ATOM      7  N   UNL     1       8.980  -0.669  26.734  0.00  0.00    -0.323 NA
ATOM      8  H   UNL     1       9.744  -0.102  26.366  0.00  0.00    +0.119 HD
ATOM      9  H   UNL     1       8.107  -0.205  26.476  0.00  0.00    +0.119 HD
ENDBRANCH   6   7
BRANCH   5  10
ATOM     10  O   UNL     1       6.605  -2.391  26.627  0.00  0.00    -0.388 OA
ATOM     11  H   UNL     1       6.477  -1.742  27.338  0.00  0.00    +0.210 HD
ENDBRANCH   5  10
BRANCH   4  12
ATOM     12  C   UNL     1       6.968  -5.284  26.675  0.00  0.00    +0.190 C 
BRANCH  12  13
ATOM     13  O   UNL     1       7.536  -6.015  27.767  0.00  0.00    -0.392 OA
ATOM     14  H   UNL     1       7.438  -6.964  27.582  0.00  0.00    +0.210 HD
ENDBRANCH  12  13
ENDBRANCH   4  12
BRANCH   2  15
ATOM     15  O   UNL     1       8.204  -3.245  22.619  0.00  0.00    -0.349 OA
BRANCH  15  16
ATOM     16  C   UNL     1       6.911  -2.626  22.498  0.00  0.00    +0.163 C 
BRANCH  16  17
ATOM     17  C   UNL     1       5.993  -3.659  21.856  0.00  0.00    +0.028 C 
BRANCH  17  18
ATOM     18  C   UNL     1       6.640  -4.960  21.402  0.00  0.00    +0.002 C 
BRANCH  18  19
ATOM     19  C   UNL     1       6.083  -6.110  22.259  0.00  0.00    +0.000 C 
BRANCH  19  20
ATOM     20  C   UNL     1       4.859  -5.690  23.063  0.00  0.00    -0.000 C 
BRANCH  20  21
ATOM     21  C   UNL     1       4.541  -6.701  24.170  0.00  0.00    -0.000 C 
BRANCH  21  22
ATOM     22  C   UNL     1       3.074  -7.123  24.107  0.00  0.00    -0.003 C 
ATOM     23  C   UNL     1       2.252  -6.210  23.213  0.00  0.00    +0.004 C 
ENDBRANCH  21  22
ENDBRANCH  20  21
ENDBRANCH  19  20
ENDBRANCH  18  19
ENDBRANCH  17  18
ENDBRANCH  16  17
ENDBRANCH  15  16
ENDBRANCH   2  15
BRANCH   1  24
ATOM     24  O   UNL     1       9.939  -1.172  24.074  0.00  0.00    -0.341 OA
BRANCH  24  30
ATOM     25  C   UNL     1       9.123   1.447  21.470  0.00  0.00    +0.150 C 
ATOM     26  C   UNL     1       7.944   2.086  22.195  0.00  0.00    +0.172 C 
ATOM     27  C   UNL     1       8.065   1.943  23.734  0.00  0.00    +0.149 C 
ATOM     28  C   UNL     1       8.985   2.978  24.404  0.00  0.00    +0.041 C 
ATOM     29  O   UNL     1       8.406   0.600  24.127  0.00  0.00    -0.346 OA
ATOM     30  C   UNL     1       9.618   0.108  23.530  0.00  0.00    +0.254 C 
ATOM     31  C   UNL     1       9.435   0.064  22.010  0.00  0.00    +0.095 C 
BRANCH  25  32
ATOM     32  O   UNL     1      10.248   2.323  21.622  0.00  0.00    -0.389 OA
ATOM     33  H   UNL     1      10.317   2.538  22.570  0.00  0.00    +0.210 HD
ENDBRANCH  25  32
BRANCH  26  34
ATOM     34  O   UNL     1       7.819   3.445  21.786  0.00  0.00    -0.387 OA
ATOM     35  H   UNL     1       8.053   3.453  20.840  0.00  0.00    +0.210 HD
ENDBRANCH  26  34
ENDBRANCH  24  30
ENDBRANCH   1  24
TORSDOF 16
ENDMDL
MODEL 2
REMARK VINA RESULT:      -6.2      2.162      7.366
REMARK  Name = 
REMARK  18 active torsions:
REMARK  status: ('A' for Active; 'I' for Inactive)
REMARK    1  A    between atoms: C_2  and  O_3
REMARK    2  A    between atoms: C_5  and  O_7
REMARK    3  A    between atoms: O_7  and  C_8
REMARK    4  A    between atoms: C_10  and  N_12
REMARK    5  A    between atoms: C_13  and  O_15
REMARK    6  A    between atoms: C_16  and  C_18
REMARK    7  A    between atoms: C_18  and  O_19
REMARK    8  A    between atoms: C_21  and  O_23
REMARK    9  A    between atoms: O_23  and  C_24
REMARK   10  A    between atoms: C_24  and  C_25
REMARK   11  A    between atoms: C_25  and  C_26
REMARK   12  A    between atoms: C_26  and  C_27
REMARK   13  A    between atoms: C_27  and  C_28
REMARK   14  A    between atoms: C_28  and  C_29
REMARK   15  A    between atoms: C_29  and  C_30
REMARK   16  A    between atoms: C_30  and  C_31
REMARK   17  A    between atoms: C_33  and  C_35
REMARK   18  A    between atoms: C_36  and  O_38
REMARK                            x       y       z     vdW  Elec       q    Type
REMARK                         _______ _______ _______ _____ _____    ______ ____
ROOT
ATOM      1  C   UNL     1       8.987  -2.441  24.851  0.00  0.00    +0.196 C 
ATOM      2  C   UNL     1       8.709  -1.182  23.960  0.00  0.00    +0.281 C 
ATOM      3  O   UNL     1       8.611   0.003  24.747  0.00  0.00    -0.341 OA
ATOM      4  C   UNL     1       7.569  -0.039  25.730  0.00  0.00    +0.177 C 
ATOM      5  C   UNL     1       7.929  -1.115  26.763  0.00  0.00    +0.165 C 
ATOM      6  C   UNL     1       7.998  -2.483  26.044  0.00  0.00    +0.116 C 
ENDROOT
BRANCH   6   7
ATOM      7  N   UNL     1       8.355  -3.571  26.976  0.00  0.00    -0.323 NA
ATOM      8  H   UNL     1       8.336  -3.241  27.941  0.00  0.00    +0.119 HD
ATOM      9  H   UNL     1       7.654  -4.311  26.896  0.00  0.00    +0.119 HD
ENDBRANCH   6   7
BRANCH   5  10
ATOM     10  O   UNL     1       9.177  -0.784  27.390  0.00  0.00    -0.388 OA
ATOM     11  H   UNL     1       8.977  -0.333  28.227  0.00  0.00    +0.210 HD
ENDBRANCH   5  10
BRANCH   4  12
ATOM     12  C   UNL     1       7.464   1.349  26.378  0.00  0.00    +0.190 C 
BRANCH  12  13
ATOM     13  O   UNL     1       7.418   1.242  27.805  0.00  0.00    -0.392 OA
ATOM     14  H   UNL     1       7.195   2.116  28.167  0.00  0.00    +0.210 HD
ENDBRANCH  12  13
ENDBRANCH   4  12
BRANCH   2  15
ATOM     15  O   UNL     1       9.804  -1.003  23.042  0.00  0.00    -0.349 OA
BRANCH  15  16
ATOM     16  C   UNL     1       9.388  -0.921  21.667  0.00  0.00    +0.163 C 
BRANCH  16  17
ATOM     17  C   UNL     1       9.075   0.546  21.396  0.00  0.00    +0.028 C 
BRANCH  17  18
ATOM     18  C   UNL     1      10.054   1.568  21.955  0.00  0.00    +0.002 C 
BRANCH  18  19
ATOM     19  C   UNL     1       9.254   2.698  22.627  0.00  0.00    +0.000 C 
BRANCH  19  20
ATOM     20  C   UNL     1      10.079   3.453  23.662  0.00  0.00    -0.000 C 
BRANCH  20  21
ATOM     21  C   UNL     1       9.370   4.731  24.122  0.00  0.00    -0.000 C 
BRANCH  21  22
ATOM     22  C   UNL     1      10.316   5.928  24.042  0.00  0.00    -0.003 C 
ATOM     23  C   UNL     1      11.695   5.538  23.539  0.00  0.00    +0.004 C 
ENDBRANCH  21  22
ENDBRANCH  20  21
ENDBRANCH  19  20
ENDBRANCH  18  19
ENDBRANCH  17  18
ENDBRANCH  16  17
ENDBRANCH  15  16
ENDBRANCH   2  15
BRANCH   1  24
ATOM     24  O   UNL     1       8.872  -3.709  24.154  0.00  0.00    -0.341 OA
BRANCH  24  30
ATOM     25  C   UNL     1       6.033  -4.730  21.874  0.00  0.00    +0.150 C 
ATOM     26  C   UNL     1       5.469  -5.845  22.748  0.00  0.00    +0.172 C 
ATOM     27  C   UNL     1       5.749  -5.598  24.253  0.00  0.00    +0.149 C 
ATOM     28  C   UNL     1       4.774  -4.623  24.936  0.00  0.00    +0.041 C 
ATOM     29  O   UNL     1       7.120  -5.229  24.493  0.00  0.00    -0.346 OA
ATOM     30  C   UNL     1       7.549  -4.071  23.756  0.00  0.00    +0.254 C 
ATOM     31  C   UNL     1       7.457  -4.378  22.260  0.00  0.00    +0.095 C 
BRANCH  25  32
ATOM     32  O   UNL     1       5.168  -3.595  22.012  0.00  0.00    -0.389 OA
ATOM     33  H   UNL     1       4.499  -3.659  21.306  0.00  0.00    +0.210 HD
ENDBRANCH  25  32
BRANCH  26  34
ATOM     34  O   UNL     1       4.078  -6.000  22.476  0.00  0.00    -0.387 OA
ATOM     35  H   UNL     1       3.920  -5.507  21.650  0.00  0.00    +0.210 HD
ENDBRANCH  26  34
ENDBRANCH  24  30
ENDBRANCH   1  24
TORSDOF 16
ENDMDL
MODEL 3
REMARK VINA RESULT:      -5.9      2.321      7.297
REMARK  Name = 
REMARK  18 active torsions:
REMARK  status: ('A' for Active; 'I' for Inactive)
REMARK    1  A    between atoms: C_2  and  O_3
REMARK    2  A    between atoms: C_5  and  O_7
REMARK    3  A    between atoms: O_7  and  C_8
REMARK    4  A    between atoms: C_10  and  N_12
REMARK    5  A    between atoms: C_13  and  O_15
REMARK    6  A    between atoms: C_16  and  C_18
REMARK    7  A    between atoms: C_18  and  O_19
REMARK    8  A    between atoms: C_21  and  O_23
REMARK    9  A    between atoms: O_23  and  C_24
REMARK   10  A    between atoms: C_24  and  C_25
REMARK   11  A    between atoms: C_25  and  C_26
REMARK   12  A    between atoms: C_26  and  C_27
REMARK   13  A    between atoms: C_27  and  C_28
REMARK   14  A    between atoms: C_28  and  C_29
REMARK   15  A    between atoms: C_29  and  C_30
REMARK   16  A    between atoms: C_30  and  C_31
REMARK   17  A    between atoms: C_33  and  C_35
REMARK   18  A    between atoms: C_36  and  O_38
REMARK                            x       y       z     vdW  Elec       q    Type
REMARK                         _______ _______ _______ _____ _____    ______ ____
ROOT
ATOM      1  C   UNL     1       9.166  -1.387  23.785  0.00  0.00    +0.196 C 
ATOM      2  C   UNL     1       9.464  -0.551  25.077  0.00  0.00    +0.281 C 
ATOM      3  O   UNL     1       9.512   0.846  24.795  0.00  0.00    -0.341 OA
ATOM      4  C   UNL     1      10.511   1.209  23.834  0.00  0.00    +0.177 C 
ATOM      5  C   UNL     1      10.123   0.594  22.484  0.00  0.00    +0.165 C 
ATOM      6  C   UNL     1      10.103  -0.945  22.632  0.00  0.00    +0.116 C 
ENDROOT
BRANCH   6   7
ATOM      7  N   UNL     1       9.723  -1.611  21.370  0.00  0.00    -0.323 NA
ATOM      8  H   UNL     1       9.102  -1.016  20.822  0.00  0.00    +0.119 HD
ATOM      9  H   UNL     1      10.567  -1.761  20.815  0.00  0.00    +0.119 HD
ENDBRANCH   6   7
BRANCH   5  10
ATOM     10  O   UNL     1       8.844   1.101  22.072  0.00  0.00    -0.388 OA
ATOM     11  H   UNL     1       8.593   0.639  21.255  0.00  0.00    +0.210 HD
ENDBRANCH   5  10
BRANCH   4  12
ATOM     12  C   UNL     1      10.569   2.741  23.758  0.00  0.00    +0.190 C 
BRANCH  12  13
ATOM     13  O   UNL     1      10.788   3.176  22.411  0.00  0.00    -0.392 OA
ATOM     14  H   UNL     1      11.694   3.522  22.348  0.00  0.00    +0.210 HD
ENDBRANCH  12  13
ENDBRANCH   4  12
BRANCH   2  15
ATOM     15  O   UNL     1       8.406  -0.765  26.031  0.00  0.00    -0.349 OA
BRANCH  15  16
ATOM     16  C   UNL     1       7.672   0.432  26.347  0.00  0.00    +0.163 C 
BRANCH  16  17
ATOM     17  C   UNL     1       6.200   0.041  26.384  0.00  0.00    +0.028 C 
BRANCH  17  18
ATOM     18  C   UNL     1       5.264   0.816  25.466  0.00  0.00    +0.002 C 
BRANCH  18  19
ATOM     19  C   UNL     1       6.035   1.202  24.192  0.00  0.00    +0.000 C 
BRANCH  19  20
ATOM     20  C   UNL     1       5.639   2.578  23.672  0.00  0.00    -0.000 C 
BRANCH  20  21
ATOM     21  C   UNL     1       6.833   3.538  23.659  0.00  0.00    -0.000 C 
BRANCH  21  22
ATOM     22  C   UNL     1       7.074   4.078  22.250  0.00  0.00    -0.003 C 
ATOM     23  C   UNL     1       7.371   5.567  22.249  0.00  0.00    +0.004 C 
ENDBRANCH  21  22
ENDBRANCH  20  21
ENDBRANCH  19  20
ENDBRANCH  18  19
ENDBRANCH  17  18
ENDBRANCH  16  17
ENDBRANCH  15  16
ENDBRANCH   2  15
BRANCH   1  24
ATOM     24  O   UNL     1       9.328  -2.820  23.946  0.00  0.00    -0.341 OA
BRANCH  24  30
ATOM     25  C   UNL     1       5.779  -4.083  24.287  0.00  0.00    +0.150 C 
ATOM     26  C   UNL     1       5.424  -4.077  22.804  0.00  0.00    +0.172 C 
ATOM     27  C   UNL     1       6.673  -4.283  21.910  0.00  0.00    +0.149 C 
ATOM     28  C   UNL     1       7.119  -5.748  21.756  0.00  0.00    +0.041 C 
ATOM     29  O   UNL     1       7.768  -3.436  22.308  0.00  0.00    -0.346 OA
ATOM     30  C   UNL     1       8.162  -3.601  23.681  0.00  0.00    +0.254 C 
ATOM     31  C   UNL     1       6.986  -3.212  24.580  0.00  0.00    +0.095 C 
BRANCH  25  32
ATOM     32  O   UNL     1       6.023  -5.443  24.667  0.00  0.00    -0.389 OA
ATOM     33  H   UNL     1       6.965  -5.508  24.907  0.00  0.00    +0.210 HD
ENDBRANCH  25  32
BRANCH  26  34
ATOM     34  O   UNL     1       4.415  -5.053  22.557  0.00  0.00    -0.387 OA
ATOM     35  H   UNL     1       4.887  -5.825  22.191  0.00  0.00    +0.210 HD
ENDBRANCH  26  34
ENDBRANCH  24  30
ENDBRANCH   1  24
TORSDOF 16
ENDMDL
MODEL 4
REMARK VINA RESULT:      -5.9      1.626      2.055
REMARK  Name = 
REMARK  18 active torsions:
REMARK  status: ('A' for Active; 'I' for Inactive)
REMARK    1  A    between atoms: C_2  and  O_3
REMARK    2  A    between atoms: C_5  and  O_7
REMARK    3  A    between atoms: O_7  and  C_8
REMARK    4  A    between atoms: C_10  and  N_12
REMARK    5  A    between atoms: C_13  and  O_15
REMARK    6  A    between atoms: C_16  and  C_18
REMARK    7  A    between atoms: C_18  and  O_19
REMARK    8  A    between atoms: C_21  and  O_23
REMARK    9  A    between atoms: O_23  and  C_24
REMARK   10  A    between atoms: C_24  and  C_25
REMARK   11  A    between atoms: C_25  and  C_26
REMARK   12  A    between atoms: C_26  and  C_27
REMARK   13  A    between atoms: C_27  and  C_28
REMARK   14  A    between atoms: C_28  and  C_29
REMARK   15  A    between atoms: C_29  and  C_30
REMARK   16  A    between atoms: C_30  and  C_31
REMARK   17  A    between atoms: C_33  and  C_35
REMARK   18  A    between atoms: C_36  and  O_38
REMARK                            x       y       z     vdW  Elec       q    Type
REMARK                         _______ _______ _______ _____ _____    ______ ____
ROOT
ATOM      1  C   UNL     1       7.016  -1.754  24.140  0.00  0.00    +0.196 C 
ATOM      2  C   UNL     1       7.991  -2.500  23.165  0.00  0.00    +0.281 C 
ATOM      3  O   UNL     1       8.447  -3.730  23.723  0.00  0.00    -0.341 OA
ATOM      4  C   UNL     1       9.148  -3.578  24.964  0.00  0.00    +0.177 C 
ATOM      5  C   UNL     1       8.155  -3.066  26.015  0.00  0.00    +0.165 C 
ATOM      6  C   UNL     1       7.629  -1.683  25.562  0.00  0.00    +0.116 C 
ENDROOT
BRANCH   6   7
ATOM      7  N   UNL     1       6.653  -1.129  26.521  0.00  0.00    -0.323 NA
ATOM      8  H   UNL     1       7.073  -1.028  27.445  0.00  0.00    +0.119 HD
ATOM      9  H   UNL     1       6.384  -0.194  26.208  0.00  0.00    +0.119 HD
ENDBRANCH   6   7
BRANCH   5  10
ATOM     10  O   UNL     1       7.086  -4.011  26.171  0.00  0.00    -0.388 OA
ATOM     11  H   UNL     1       6.768  -3.949  27.087  0.00  0.00    +0.210 HD
ENDBRANCH   5  10
BRANCH   4  12
ATOM     12  C   UNL     1       9.727  -4.944  25.357  0.00  0.00    +0.190 C 
BRANCH  12  13
ATOM     13  O   UNL     1       9.767  -5.089  26.781  0.00  0.00    -0.392 OA
ATOM     14  H   UNL     1      10.679  -5.303  27.038  0.00  0.00    +0.210 HD
ENDBRANCH  12  13
ENDBRANCH   4  12
BRANCH   2  15
ATOM     15  O   UNL     1       7.290  -2.810  21.945  0.00  0.00    -0.349 OA
BRANCH  15  16
ATOM     16  C   UNL     1       6.035  -3.479  22.163  0.00  0.00    +0.163 C 
BRANCH  16  17
ATOM     17  C   UNL     1       6.135  -4.828  21.459  0.00  0.00    +0.028 C 
BRANCH  17  18
ATOM     18  C   UNL     1       6.055  -6.065  22.342  0.00  0.00    +0.002 C 
BRANCH  18  19
ATOM     19  C   UNL     1       4.715  -6.045  23.097  0.00  0.00    +0.000 C 
BRANCH  19  20
ATOM     20  C   UNL     1       4.877  -6.397  24.570  0.00  0.00    -0.000 C 
BRANCH  20  21
ATOM     21  C   UNL     1       3.873  -5.636  25.442  0.00  0.00    -0.000 C 
BRANCH  21  22
ATOM     22  C   UNL     1       3.330  -4.417  24.697  0.00  0.00    -0.003 C 
ATOM     23  C   UNL     1       3.767  -3.111  25.339  0.00  0.00    +0.004 C 
ENDBRANCH  21  22
ENDBRANCH  20  21
ENDBRANCH  19  20
ENDBRANCH  18  19
ENDBRANCH  17  18
ENDBRANCH  16  17
ENDBRANCH  15  16
ENDBRANCH   2  15
BRANCH   1  24
ATOM     24  O   UNL     1       6.691  -0.396  23.744  0.00  0.00    -0.341 OA
BRANCH  24  30
ATOM     25  C   UNL     1       8.728   2.297  22.040  0.00  0.00    +0.150 C 
ATOM     26  C   UNL     1       9.291   2.946  23.299  0.00  0.00    +0.172 C 
ATOM     27  C   UNL     1       9.407   1.935  24.468  0.00  0.00    +0.149 C 
ATOM     28  C   UNL     1      10.658   1.039  24.420  0.00  0.00    +0.041 C 
ATOM     29  O   UNL     1       8.206   1.158  24.632  0.00  0.00    -0.346 OA
ATOM     30  C   UNL     1       7.811   0.440  23.450  0.00  0.00    +0.254 C 
ATOM     31  C   UNL     1       7.506   1.450  22.341  0.00  0.00    +0.095 C 
BRANCH  25  32
ATOM     32  O   UNL     1       9.772   1.505  21.459  0.00  0.00    -0.389 OA
ATOM     33  H   UNL     1       9.894   0.728  22.035  0.00  0.00    +0.210 HD
ENDBRANCH  25  32
BRANCH  26  34
ATOM     34  O   UNL     1      10.538   3.565  22.994  0.00  0.00    -0.387 OA
ATOM     35  H   UNL     1      10.869   3.910  23.844  0.00  0.00    +0.210 HD
ENDBRANCH  26  34
ENDBRANCH  24  30
ENDBRANCH   1  24
TORSDOF 16
ENDMDL
MODEL 5
REMARK VINA RESULT:      -5.9      2.338      6.704
REMARK  Name = 
REMARK  18 active torsions:
REMARK  status: ('A' for Active; 'I' for Inactive)
REMARK    1  A    between atoms: C_2  and  O_3
REMARK    2  A    between atoms: C_5  and  O_7
REMARK    3  A    between atoms: O_7  and  C_8
REMARK    4  A    between atoms: C_10  and  N_12
REMARK    5  A    between atoms: C_13  and  O_15
REMARK    6  A    between atoms: C_16  and  C_18
REMARK    7  A    between atoms: C_18  and  O_19
REMARK    8  A    between atoms: C_21  and  O_23
REMARK    9  A    between atoms: O_23  and  C_24
REMARK   10  A    between atoms: C_24  and  C_25
REMARK   11  A    between atoms: C_25  and  C_26
REMARK   12  A    between atoms: C_26  and  C_27
REMARK   13  A    between atoms: C_27  and  C_28
REMARK   14  A    between atoms: C_28  and  C_29
REMARK   15  A    between atoms: C_29  and  C_30
REMARK   16  A    between atoms: C_30  and  C_31
REMARK   17  A    between atoms: C_33  and  C_35
REMARK   18  A    between atoms: C_36  and  O_38
REMARK                            x       y       z     vdW  Elec       q    Type
REMARK                         _______ _______ _______ _____ _____    ______ ____
ROOT
ATOM      1  C   UNL     1       8.089  -4.015  25.991  0.00  0.00    +0.196 C 
ATOM      2  C   UNL     1       7.858  -2.491  26.277  0.00  0.00    +0.281 C 
ATOM      3  O   UNL     1       8.097  -1.700  25.115  0.00  0.00    -0.341 OA
ATOM      4  C   UNL     1       9.428  -1.821  24.596  0.00  0.00    +0.177 C 
ATOM      5  C   UNL     1       9.614  -3.256  24.085  0.00  0.00    +0.165 C 
ATOM      6  C   UNL     1       9.448  -4.227  25.277  0.00  0.00    +0.116 C 
ENDROOT
BRANCH   6   7
ATOM      7  N   UNL     1       9.601  -5.635  24.860  0.00  0.00    -0.323 NA
ATOM      8  H   UNL     1       8.886  -6.220  25.293  0.00  0.00    +0.119 HD
ATOM      9  H   UNL     1       9.467  -5.691  23.849  0.00  0.00    +0.119 HD
ENDBRANCH   6   7
BRANCH   5  10
ATOM     10  O   UNL     1       8.659  -3.527  23.047  0.00  0.00    -0.388 OA
ATOM     11  H   UNL     1       8.127  -4.289  23.327  0.00  0.00    +0.210 HD
ENDBRANCH   5  10
BRANCH   4  12
ATOM     12  C   UNL     1       9.596  -0.796  23.466  0.00  0.00    +0.190 C 
BRANCH  12  13
ATOM     13  O   UNL     1       8.362  -0.603  22.766  0.00  0.00    -0.392 OA
ATOM     14  H   UNL     1       7.645  -0.559  23.421  0.00  0.00    +0.210 HD
ENDBRANCH  12  13
ENDBRANCH   4  12
BRANCH   2  15
ATOM     15  O   UNL     1       6.485  -2.287  26.665  0.00  0.00    -0.349 OA
BRANCH  15  16
ATOM     16  C   UNL     1       5.704  -1.612  25.663  0.00  0.00    +0.163 C 
BRANCH  16  17
ATOM     17  C   UNL     1       4.664  -2.614  25.176  0.00  0.00    +0.028 C 
BRANCH  17  18
ATOM     18  C   UNL     1       5.004  -3.392  23.913  0.00  0.00    +0.002 C 
BRANCH  18  19
ATOM     19  C   UNL     1       3.950  -4.496  23.718  0.00  0.00    +0.000 C 
BRANCH  19  20
ATOM     20  C   UNL     1       4.511  -5.706  22.981  0.00  0.00    -0.000 C 
BRANCH  20  21
ATOM     21  C   UNL     1       6.022  -5.842  23.195  0.00  0.00    -0.000 C 
BRANCH  21  22
ATOM     22  C   UNL     1       6.712  -6.268  21.899  0.00  0.00    -0.003 C 
ATOM     23  C   UNL     1       6.069  -5.641  20.675  0.00  0.00    +0.004 C 
ENDBRANCH  21  22
ENDBRANCH  20  21
ENDBRANCH  19  20
ENDBRANCH  18  19
ENDBRANCH  17  18
ENDBRANCH  16  17
ENDBRANCH  15  16
ENDBRANCH   2  15
BRANCH   1  24
ATOM     24  O   UNL     1       8.088  -4.856  27.174  0.00  0.00    -0.341 OA
BRANCH  24  30
ATOM     25  C   UNL     1       4.576  -6.254  27.056  0.00  0.00    +0.150 C 
ATOM     26  C   UNL     1       4.676  -7.142  28.291  0.00  0.00    +0.172 C 
ATOM     27  C   UNL     1       5.697  -6.591  29.319  0.00  0.00    +0.149 C 
ATOM     28  C   UNL     1       5.158  -5.467  30.221  0.00  0.00    +0.041 C 
ATOM     29  O   UNL     1       6.942  -6.219  28.697  0.00  0.00    -0.346 OA
ATOM     30  C   UNL     1       6.799  -5.256  27.640  0.00  0.00    +0.254 C 
ATOM     31  C   UNL     1       5.945  -5.869  26.527  0.00  0.00    +0.095 C 
BRANCH  25  32
ATOM     32  O   UNL     1       3.822  -5.091  27.421  0.00  0.00    -0.389 OA
ATOM     33  H   UNL     1       3.199  -4.914  26.692  0.00  0.00    +0.210 HD
ENDBRANCH  25  32
BRANCH  26  34
ATOM     34  O   UNL     1       3.378  -7.312  28.857  0.00  0.00    -0.387 OA
ATOM     35  H   UNL     1       3.498  -7.936  29.596  0.00  0.00    +0.210 HD
ENDBRANCH  26  34
ENDBRANCH  24  30
ENDBRANCH   1  24
TORSDOF 16
ENDMDL
MODEL 6
REMARK VINA RESULT:      -5.9      2.318      7.945
REMARK  Name = 
REMARK  18 active torsions:
REMARK  status: ('A' for Active; 'I' for Inactive)
REMARK    1  A    between atoms: C_2  and  O_3
REMARK    2  A    between atoms: C_5  and  O_7
REMARK    3  A    between atoms: O_7  and  C_8
REMARK    4  A    between atoms: C_10  and  N_12
REMARK    5  A    between atoms: C_13  and  O_15
REMARK    6  A    between atoms: C_16  and  C_18
REMARK    7  A    between atoms: C_18  and  O_19
REMARK    8  A    between atoms: C_21  and  O_23
REMARK    9  A    between atoms: O_23  and  C_24
REMARK   10  A    between atoms: C_24  and  C_25
REMARK   11  A    between atoms: C_25  and  C_26
REMARK   12  A    between atoms: C_26  and  C_27
REMARK   13  A    between atoms: C_27  and  C_28
REMARK   14  A    between atoms: C_28  and  C_29
REMARK   15  A    between atoms: C_29  and  C_30
REMARK   16  A    between atoms: C_30  and  C_31
REMARK   17  A    between atoms: C_33  and  C_35
REMARK   18  A    between atoms: C_36  and  O_38
REMARK                            x       y       z     vdW  Elec       q    Type
REMARK                         _______ _______ _______ _____ _____    ______ ____
ROOT
ATOM      1  C   UNL     1       8.151  -1.103  23.953  0.00  0.00    +0.196 C 
ATOM      2  C   UNL     1       7.756   0.392  24.214  0.00  0.00    +0.281 C 
ATOM      3  O   UNL     1       8.578   1.286  23.467  0.00  0.00    -0.341 OA
ATOM      4  C   UNL     1       9.976   1.174  23.766  0.00  0.00    +0.177 C 
ATOM      5  C   UNL     1      10.455  -0.208  23.304  0.00  0.00    +0.165 C 
ATOM      6  C   UNL     1       9.682  -1.287  24.099  0.00  0.00    +0.116 C 
ENDROOT
BRANCH   6   7
ATOM      7  N   UNL     1      10.082  -2.651  23.698  0.00  0.00    -0.323 NA
ATOM      8  H   UNL     1       9.534  -3.350  24.201  0.00  0.00    +0.119 HD
ATOM      9  H   UNL     1       9.883  -2.769  22.703  0.00  0.00    +0.119 HD
ENDBRANCH   6   7
BRANCH   5  10
ATOM     10  O   UNL     1      10.247  -0.344  21.890  0.00  0.00    -0.388 OA
ATOM     11  H   UNL     1      10.989  -0.856  21.530  0.00  0.00    +0.210 HD
ENDBRANCH   5  10
BRANCH   4  12
ATOM     12  C   UNL     1      10.715   2.300  23.030  0.00  0.00    +0.190 C 
BRANCH  12  13
ATOM     13  O   UNL     1      10.211   2.453  21.698  0.00  0.00    -0.392 OA
ATOM     14  H   UNL     1       9.491   1.813  21.570  0.00  0.00    +0.210 HD
ENDBRANCH  12  13
ENDBRANCH   4  12
BRANCH   2  15
ATOM     15  O   UNL     1       6.394   0.600  23.792  0.00  0.00    -0.349 OA
BRANCH  15  16
ATOM     16  C   UNL     1       5.646   1.448  24.682  0.00  0.00    +0.163 C 
BRANCH  16  17
ATOM     17  C   UNL     1       5.689   2.849  24.085  0.00  0.00    +0.028 C 
BRANCH  17  18
ATOM     18  C   UNL     1       5.539   2.953  22.574  0.00  0.00    +0.002 C 
BRANCH  18  19
ATOM     19  C   UNL     1       6.767   3.687  22.008  0.00  0.00    +0.000 C 
BRANCH  19  20
ATOM     20  C   UNL     1       7.439   4.575  23.048  0.00  0.00    -0.000 C 
BRANCH  20  21
ATOM     21  C   UNL     1       7.620   6.006  22.532  0.00  0.00    -0.000 C 
BRANCH  21  22
ATOM     22  C   UNL     1       8.598   6.777  23.418  0.00  0.00    -0.003 C 
ATOM     23  C   UNL     1       9.871   5.993  23.684  0.00  0.00    +0.004 C 
ENDBRANCH  21  22
ENDBRANCH  20  21
ENDBRANCH  19  20
ENDBRANCH  18  19
ENDBRANCH  17  18
ENDBRANCH  16  17
ENDBRANCH  15  16
ENDBRANCH   2  15
BRANCH   1  24
ATOM     24  O   UNL     1       7.516  -2.057  24.845  0.00  0.00    -0.341 OA
BRANCH  24  30
ATOM     25  C   UNL     1       5.794  -3.966  22.072  0.00  0.00    +0.150 C 
ATOM     26  C   UNL     1       6.407  -5.331  22.361  0.00  0.00    +0.172 C 
ATOM     27  C   UNL     1       6.778  -5.493  23.858  0.00  0.00    +0.149 C 
ATOM     28  C   UNL     1       5.600  -5.873  24.773  0.00  0.00    +0.041 C 
ATOM     29  O   UNL     1       7.493  -4.350  24.364  0.00  0.00    -0.346 OA
ATOM     30  C   UNL     1       6.792  -3.106  24.203  0.00  0.00    +0.254 C 
ATOM     31  C   UNL     1       6.591  -2.843  22.709  0.00  0.00    +0.095 C 
BRANCH  25  32
ATOM     32  O   UNL     1       4.449  -3.984  22.566  0.00  0.00    -0.389 OA
ATOM     33  H   UNL     1       4.500  -3.917  23.537  0.00  0.00    +0.210 HD
ENDBRANCH  25  32
BRANCH  26  34
ATOM     34  O   UNL     1       5.521  -6.352  21.910  0.00  0.00    -0.387 OA
ATOM     35  H   UNL     1       4.657  -5.914  21.802  0.00  0.00    +0.210 HD
ENDBRANCH  26  34
ENDBRANCH  24  30
ENDBRANCH   1  24
TORSDOF 16
ENDMDL
MODEL 7
REMARK VINA RESULT:      -5.8      2.202      7.099
REMARK  Name = 
REMARK  18 active torsions:
REMARK  status: ('A' for Active; 'I' for Inactive)
REMARK    1  A    between atoms: C_2  and  O_3
REMARK    2  A    between atoms: C_5  and  O_7
REMARK    3  A    between atoms: O_7  and  C_8
REMARK    4  A    between atoms: C_10  and  N_12
REMARK    5  A    between atoms: C_13  and  O_15
REMARK    6  A    between atoms: C_16  and  C_18
REMARK    7  A    between atoms: C_18  and  O_19
REMARK    8  A    between atoms: C_21  and  O_23
REMARK    9  A    between atoms: O_23  and  C_24
REMARK   10  A    between atoms: C_24  and  C_25
REMARK   11  A    between atoms: C_25  and  C_26
REMARK   12  A    between atoms: C_26  and  C_27
REMARK   13  A    between atoms: C_27  and  C_28
REMARK   14  A    between atoms: C_28  and  C_29
REMARK   15  A    between atoms: C_29  and  C_30
REMARK   16  A    between atoms: C_30  and  C_31
REMARK   17  A    between atoms: C_33  and  C_35
REMARK   18  A    between atoms: C_36  and  O_38
REMARK                            x       y       z     vdW  Elec       q    Type
REMARK                         _______ _______ _______ _____ _____    ______ ____
ROOT
ATOM      1  C   UNL     1       8.874  -2.374  24.815  0.00  0.00    +0.196 C 
ATOM      2  C   UNL     1       8.461  -1.138  23.943  0.00  0.00    +0.281 C 
ATOM      3  O   UNL     1       8.318   0.036  24.738  0.00  0.00    -0.341 OA
ATOM      4  C   UNL     1       7.334  -0.081  25.774  0.00  0.00    +0.177 C 
ATOM      5  C   UNL     1       7.823  -1.128  26.783  0.00  0.00    +0.165 C 
ATOM      6  C   UNL     1       7.954  -2.487  26.057  0.00  0.00    +0.116 C 
ENDROOT
BRANCH   6   7
ATOM      7  N   UNL     1       8.436  -3.547  26.965  0.00  0.00    -0.323 NA
ATOM      8  H   UNL     1       7.684  -3.867  27.576  0.00  0.00    +0.119 HD
ATOM      9  H   UNL     1       8.730  -4.348  26.403  0.00  0.00    +0.119 HD
ENDBRANCH   6   7
BRANCH   5  10
ATOM     10  O   UNL     1       9.075  -0.708  27.346  0.00  0.00    -0.388 OA
ATOM     11  H   UNL     1       9.390   0.053  26.831  0.00  0.00    +0.210 HD
ENDBRANCH   5  10
BRANCH   4  12
ATOM     12  C   UNL     1       7.163   1.295  26.431  0.00  0.00    +0.190 C 
BRANCH  12  13
ATOM     13  O   UNL     1       8.208   2.186  26.025  0.00  0.00    -0.392 OA
ATOM     14  H   UNL     1       8.416   2.006  25.094  0.00  0.00    +0.210 HD
ENDBRANCH  12  13
ENDBRANCH   4  12
BRANCH   2  15
ATOM     15  O   UNL     1       9.492  -0.881  22.971  0.00  0.00    -0.349 OA
BRANCH  15  16
ATOM     16  C   UNL     1       9.967   0.477  22.990  0.00  0.00    +0.163 C 
BRANCH  16  17
ATOM     17  C   UNL     1       9.595   1.086  21.643  0.00  0.00    +0.028 C 
BRANCH  17  18
ATOM     18  C   UNL     1       8.186   1.647  21.514  0.00  0.00    +0.002 C 
BRANCH  18  19
ATOM     19  C   UNL     1       8.012   2.778  22.544  0.00  0.00    +0.000 C 
BRANCH  19  20
ATOM     20  C   UNL     1       6.548   3.019  22.894  0.00  0.00    -0.000 C 
BRANCH  20  21
ATOM     21  C   UNL     1       6.156   4.485  22.685  0.00  0.00    -0.000 C 
BRANCH  21  22
ATOM     22  C   UNL     1       7.360   5.302  22.216  0.00  0.00    -0.003 C 
ATOM     23  C   UNL     1       6.987   6.737  21.887  0.00  0.00    +0.004 C 
ENDBRANCH  21  22
ENDBRANCH  20  21
ENDBRANCH  19  20
ENDBRANCH  18  19
ENDBRANCH  17  18
ENDBRANCH  16  17
ENDBRANCH  15  16
ENDBRANCH   2  15
BRANCH   1  24
ATOM     24  O   UNL     1       8.816  -3.647  24.120  0.00  0.00    -0.341 OA
BRANCH  24  30
ATOM     25  C   UNL     1       6.053  -4.815  21.816  0.00  0.00    +0.150 C 
ATOM     26  C   UNL     1       5.505  -5.922  22.710  0.00  0.00    +0.172 C 
ATOM     27  C   UNL     1       5.749  -5.626  24.212  0.00  0.00    +0.149 C 
ATOM     28  C   UNL     1       4.732  -4.664  24.850  0.00  0.00    +0.041 C 
ATOM     29  O   UNL     1       7.104  -5.210  24.467  0.00  0.00    -0.346 OA
ATOM     30  C   UNL     1       7.512  -4.060  23.707  0.00  0.00    +0.254 C 
ATOM     31  C   UNL     1       7.458  -4.410  22.218  0.00  0.00    +0.095 C 
BRANCH  25  32
ATOM     32  O   UNL     1       5.153  -3.703  21.906  0.00  0.00    -0.389 OA
ATOM     33  H   UNL     1       4.249  -4.069  21.932  0.00  0.00    +0.210 HD
ENDBRANCH  25  32
BRANCH  26  34
ATOM     34  O   UNL     1       4.126  -6.127  22.416  0.00  0.00    -0.387 OA
ATOM     35  H   UNL     1       3.707  -6.332  23.273  0.00  0.00    +0.210 HD
ENDBRANCH  26  34
ENDBRANCH  24  30
ENDBRANCH   1  24
TORSDOF 16
ENDMDL
MODEL 8
REMARK VINA RESULT:      -5.8      2.218      6.212
REMARK  Name = 
REMARK  18 active torsions:
REMARK  status: ('A' for Active; 'I' for Inactive)
REMARK    1  A    between atoms: C_2  and  O_3
REMARK    2  A    between atoms: C_5  and  O_7
REMARK    3  A    between atoms: O_7  and  C_8
REMARK    4  A    between atoms: C_10  and  N_12
REMARK    5  A    between atoms: C_13  and  O_15
REMARK    6  A    between atoms: C_16  and  C_18
REMARK    7  A    between atoms: C_18  and  O_19
REMARK    8  A    between atoms: C_21  and  O_23
REMARK    9  A    between atoms: O_23  and  C_24
REMARK   10  A    between atoms: C_24  and  C_25
REMARK   11  A    between atoms: C_25  and  C_26
REMARK   12  A    between atoms: C_26  and  C_27
REMARK   13  A    between atoms: C_27  and  C_28
REMARK   14  A    between atoms: C_28  and  C_29
REMARK   15  A    between atoms: C_29  and  C_30
REMARK   16  A    between atoms: C_30  and  C_31
REMARK   17  A    between atoms: C_33  and  C_35
REMARK   18  A    between atoms: C_36  and  O_38
REMARK                            x       y       z     vdW  Elec       q    Type
REMARK                         _______ _______ _______ _____ _____    ______ ____
ROOT
ATOM      1  C   UNL     1       8.655  -1.077  23.441  0.00  0.00    +0.196 C 
ATOM      2  C   UNL     1       8.143  -0.039  24.497  0.00  0.00    +0.281 C 
ATOM      3  O   UNL     1       8.348   1.300  24.054  0.00  0.00    -0.341 OA
ATOM      4  C   UNL     1       9.720   1.623  23.796  0.00  0.00    +0.177 C 
ATOM      5  C   UNL     1      10.193   0.784  22.601  0.00  0.00    +0.165 C 
ATOM      6  C   UNL     1      10.089  -0.712  22.980  0.00  0.00    +0.116 C 
ENDROOT
BRANCH   6   7
ATOM      7  N   UNL     1      10.517  -1.587  21.870  0.00  0.00    -0.323 NA
ATOM      8  H   UNL     1      11.534  -1.593  21.786  0.00  0.00    +0.119 HD
ATOM      9  H   UNL     1      10.225  -2.544  22.079  0.00  0.00    +0.119 HD
ENDBRANCH   6   7
BRANCH   5  10
ATOM     10  O   UNL     1       9.396   1.093  21.449  0.00  0.00    -0.388 OA
ATOM     11  H   UNL     1       9.870   1.766  20.933  0.00  0.00    +0.210 HD
ENDBRANCH   5  10
BRANCH   4  12
ATOM     12  C   UNL     1       9.812   3.125  23.498  0.00  0.00    +0.190 C 
BRANCH  12  13
ATOM     13  O   UNL     1      10.889   3.400  22.595  0.00  0.00    -0.392 OA
ATOM     14  H   UNL     1      10.743   4.279  22.208  0.00  0.00    +0.210 HD
ENDBRANCH  12  13
ENDBRANCH   4  12
BRANCH   2  15
ATOM     15  O   UNL     1       6.727  -0.221  24.689  0.00  0.00    -0.349 OA
BRANCH  15  16
ATOM     16  C   UNL     1       6.363  -0.448  26.063  0.00  0.00    +0.163 C 
BRANCH  16  17
ATOM     17  C   UNL     1       5.046  -1.214  26.042  0.00  0.00    +0.028 C 
BRANCH  17  18
ATOM     18  C   UNL     1       5.135  -2.719  25.827  0.00  0.00    +0.002 C 
BRANCH  18  19
ATOM     19  C   UNL     1       5.714  -3.362  27.099  0.00  0.00    +0.000 C 
BRANCH  19  20
ATOM     20  C   UNL     1       7.143  -3.852  26.898  0.00  0.00    -0.000 C 
BRANCH  20  21
ATOM     21  C   UNL     1       7.300  -5.314  27.328  0.00  0.00    -0.000 C 
BRANCH  21  22
ATOM     22  C   UNL     1       5.972  -5.869  27.844  0.00  0.00    -0.003 C 
ATOM     23  C   UNL     1       6.093  -6.428  29.250  0.00  0.00    +0.004 C 
ENDBRANCH  21  22
ENDBRANCH  20  21
ENDBRANCH  19  20
ENDBRANCH  18  19
ENDBRANCH  17  18
ENDBRANCH  16  17
ENDBRANCH  15  16
ENDBRANCH   2  15
BRANCH   1  24
ATOM     24  O   UNL     1       8.692  -2.449  23.914  0.00  0.00    -0.341 OA
BRANCH  24  30
ATOM     25  C   UNL     1       6.101  -3.772  21.497  0.00  0.00    +0.150 C 
ATOM     26  C   UNL     1       6.528  -5.235  21.531  0.00  0.00    +0.172 C 
ATOM     27  C   UNL     1       7.191  -5.613  22.881  0.00  0.00    +0.149 C 
ATOM     28  C   UNL     1       6.202  -5.918  24.019  0.00  0.00    +0.041 C 
ATOM     29  O   UNL     1       8.182  -4.648  23.285  0.00  0.00    -0.346 OA
ATOM     30  C   UNL     1       7.678  -3.306  23.388  0.00  0.00    +0.254 C 
ATOM     31  C   UNL     1       7.196  -2.854  22.007  0.00  0.00    +0.095 C 
BRANCH  25  32
ATOM     32  O   UNL     1       4.916  -3.650  22.295  0.00  0.00    -0.389 OA
ATOM     33  H   UNL     1       4.562  -2.755  22.146  0.00  0.00    +0.210 HD
ENDBRANCH  25  32
BRANCH  26  34
ATOM     34  O   UNL     1       5.407  -6.061  21.230  0.00  0.00    -0.387 OA
ATOM     35  H   UNL     1       4.663  -5.446  21.092  0.00  0.00    +0.210 HD
ENDBRANCH  26  34
ENDBRANCH  24  30
ENDBRANCH   1  24
TORSDOF 16
ENDMDL
MODEL 9
REMARK VINA RESULT:      -5.8      1.771      2.683
REMARK  Name = 
REMARK  18 active torsions:
REMARK  status: ('A' for Active; 'I' for Inactive)
REMARK    1  A    between atoms: C_2  and  O_3
REMARK    2  A    between atoms: C_5  and  O_7
REMARK    3  A    between atoms: O_7  and  C_8
REMARK    4  A    between atoms: C_10  and  N_12
REMARK    5  A    between atoms: C_13  and  O_15
REMARK    6  A    between atoms: C_16  and  C_18
REMARK    7  A    between atoms: C_18  and  O_19
REMARK    8  A    between atoms: C_21  and  O_23
REMARK    9  A    between atoms: O_23  and  C_24
REMARK   10  A    between atoms: C_24  and  C_25
REMARK   11  A    between atoms: C_25  and  C_26
REMARK   12  A    between atoms: C_26  and  C_27
REMARK   13  A    between atoms: C_27  and  C_28
REMARK   14  A    between atoms: C_28  and  C_29
REMARK   15  A    between atoms: C_29  and  C_30
REMARK   16  A    between atoms: C_30  and  C_31
REMARK   17  A    between atoms: C_33  and  C_35
REMARK   18  A    between atoms: C_36  and  O_38
REMARK                            x       y       z     vdW  Elec       q    Type
REMARK                         _______ _______ _______ _____ _____    ______ ____
ROOT
ATOM      1  C   UNL     1       6.994  -1.606  25.300  0.00  0.00    +0.196 C 
ATOM      2  C   UNL     1       6.678  -2.650  24.174  0.00  0.00    +0.281 C 
ATOM      3  O   UNL     1       7.046  -3.970  24.568  0.00  0.00    -0.341 OA
ATOM      4  C   UNL     1       8.438  -4.114  24.880  0.00  0.00    +0.177 C 
ATOM      5  C   UNL     1       8.736  -3.280  26.133  0.00  0.00    +0.165 C 
ATOM      6  C   UNL     1       8.443  -1.795  25.816  0.00  0.00    +0.116 C 
ENDROOT
BRANCH   6   7
ATOM      7  N   UNL     1       8.695  -0.927  26.983  0.00  0.00    -0.323 NA
ATOM      8  H   UNL     1       9.690  -0.721  27.071  0.00  0.00    +0.119 HD
ATOM      9  H   UNL     1       8.214  -0.038  26.838  0.00  0.00    +0.119 HD
ENDBRANCH   6   7
BRANCH   5  10
ATOM     10  O   UNL     1       7.939  -3.753  27.229  0.00  0.00    -0.388 OA
ATOM     11  H   UNL     1       7.694  -2.984  27.769  0.00  0.00    +0.210 HD
ENDBRANCH   5  10
BRANCH   4  12
ATOM     12  C   UNL     1       8.724  -5.603  25.116  0.00  0.00    +0.190 C 
BRANCH  12  13
ATOM     13  O   UNL     1      10.122  -5.825  25.330  0.00  0.00    -0.392 OA
ATOM     14  H   UNL     1      10.330  -5.585  26.248  0.00  0.00    +0.210 HD
ENDBRANCH  12  13
ENDBRANCH   4  12
BRANCH   2  15
ATOM     15  O   UNL     1       5.260  -2.654  23.918  0.00  0.00    -0.349 OA
BRANCH  15  16
ATOM     16  C   UNL     1       4.466  -2.754  25.114  0.00  0.00    +0.163 C 
BRANCH  16  17
ATOM     17  C   UNL     1       3.350  -3.747  24.812  0.00  0.00    +0.028 C 
BRANCH  17  18
ATOM     18  C   UNL     1       3.368  -5.053  25.594  0.00  0.00    +0.002 C 
BRANCH  18  19
ATOM     19  C   UNL     1       3.142  -6.216  24.613  0.00  0.00    +0.000 C 
BRANCH  19  20
ATOM     20  C   UNL     1       3.649  -5.896  23.212  0.00  0.00    -0.000 C 
BRANCH  20  21
ATOM     21  C   UNL     1       5.119  -6.293  23.043  0.00  0.00    -0.000 C 
BRANCH  21  22
ATOM     22  C   UNL     1       5.721  -5.614  21.813  0.00  0.00    -0.003 C 
ATOM     23  C   UNL     1       7.200  -5.920  21.655  0.00  0.00    +0.004 C 
ENDBRANCH  21  22
ENDBRANCH  20  21
ENDBRANCH  19  20
ENDBRANCH  18  19
ENDBRANCH  17  18
ENDBRANCH  16  17
ENDBRANCH  15  16
ENDBRANCH   2  15
BRANCH   1  24
ATOM     24  O   UNL     1       6.861  -0.220  24.889  0.00  0.00    -0.341 OA
BRANCH  24  30
ATOM     25  C   UNL     1       8.541   1.231  21.828  0.00  0.00    +0.150 C 
ATOM     26  C   UNL     1       9.378   2.286  22.543  0.00  0.00    +0.172 C 
ATOM     27  C   UNL     1       9.721   1.865  23.995  0.00  0.00    +0.149 C 
ATOM     28  C   UNL     1      10.911   0.897  24.118  0.00  0.00    +0.041 C 
ATOM     29  O   UNL     1       8.566   1.377  24.703  0.00  0.00    -0.346 OA
ATOM     30  C   UNL     1       7.909   0.274  24.055  0.00  0.00    +0.254 C 
ATOM     31  C   UNL     1       7.395   0.740  22.691  0.00  0.00    +0.095 C 
BRANCH  25  32
ATOM     32  O   UNL     1       9.417   0.152  21.476  0.00  0.00    -0.389 OA
ATOM     33  H   UNL     1      10.222   0.549  21.097  0.00  0.00    +0.210 HD
ENDBRANCH  25  32
BRANCH  26  34
ATOM     34  O   UNL     1      10.543   2.567  21.771  0.00  0.00    -0.387 OA
ATOM     35  H   UNL     1      10.971   3.322  22.216  0.00  0.00    +0.210 HD
ENDBRANCH  26  34
ENDBRANCH  24  30
ENDBRANCH   1  24
TORSDOF 16
ENDMDL
