MODEL 1
REMARK VINA RESULT:      -7.8      0.000      0.000
REMARK  Name = 
REMARK  10 active torsions:
REMARK  status: ('A' for Active; 'I' for Inactive)
REMARK    1  A    between atoms: C_1  and  N_2
REMARK    2  A    between atoms: N_2  and  C_3
REMARK    3  A    between atoms: C_9  and  C_11
REMARK    4  A    between atoms: C_21  and  C_23
REMARK    5  A    between atoms: C_32  and  C_33
REMARK    6  A    between atoms: C_33  and  C_35
REMARK    7  A    between atoms: C_35  and  C_37
REMARK    8  A    between atoms: C_35  and  P_47
REMARK    9  A    between atoms: P_47  and  O_48
REMARK   10  A    between atoms: P_47  and  O_49
REMARK                            x       y       z     vdW  Elec       q    Type
REMARK                         _______ _______ _______ _____ _____    ______ ____
ROOT
ATOM      1  C   UNL     1       7.331   1.556  25.796  0.00  0.00    +0.048 A 
ATOM      2  C   UNL     1       7.833   1.236  24.519  0.00  0.00    +0.031 A 
ATOM      3  C   UNL     1       8.585   2.194  23.804  0.00  0.00    +0.020 A 
ATOM      4  C   UNL     1       8.826   3.470  24.313  0.00  0.00    -0.017 A 
ATOM      5  C   UNL     1       8.225   3.821  25.527  0.00  0.00    -0.017 A 
ATOM      6  C   UNL     1       8.327   5.155  25.963  0.00  0.00    +0.008 A 
ATOM      7  C   UNL     1       9.079   6.081  25.233  0.00  0.00    +0.001 A 
ATOM      8  C   UNL     1       9.759   5.682  24.085  0.00  0.00    +0.001 A 
ATOM      9  C   UNL     1       9.621   4.382  23.608  0.00  0.00    +0.008 A 
ATOM     10  C   UNL     1       7.567   2.850  26.291  0.00  0.00    +0.022 A 
ENDROOT
BRANCH   1  13
ATOM     11  C   UNL     1       4.413   1.184  26.020  0.00  0.00    +0.132 C 
ATOM     12  N   UNL     1       5.330   0.703  27.066  0.00  0.00    -0.297 N 
ATOM     13  C   UNL     1       6.713   0.570  26.744  0.00  0.00    +0.247 C 
ATOM     14  O   UNL     1       7.463  -0.230  27.314  0.00  0.00    -0.270 OA
BRANCH  12  15
ATOM     15  C   UNL     1       4.760  -0.005  28.264  0.00  0.00    +0.079 C 
ATOM     16  C   UNL     1       4.869  -1.544  28.205  0.00  0.00    +0.041 C 
ATOM     17  C   UNL     1       4.049  -2.068  27.029  0.00  0.00    +0.110 C 
ATOM     18  N   UNL     1       2.628  -1.788  27.231  0.00  0.00    -0.297 N 
ATOM     19  C   UNL     1       1.576  -2.541  26.669  0.00  0.00    +0.247 C 
ATOM     20  O   UNL     1       0.444  -2.077  26.526  0.00  0.00    -0.270 OA
ATOM     21  C   UNL     1       2.336  -0.370  27.489  0.00  0.00    +0.110 C 
ATOM     22  C   UNL     1       3.259   0.269  28.529  0.00  0.00    +0.041 C 
BRANCH  19  23
ATOM     23  C   UNL     1       1.804  -3.926  26.164  0.00  0.00    +0.037 A 
ATOM     24  C   UNL     1       1.919  -4.966  27.094  0.00  0.00    +0.013 A 
ATOM     25  C   UNL     1       1.979  -6.295  26.664  0.00  0.00    +0.009 A 
ATOM     26  C   UNL     1       1.882  -6.604  25.298  0.00  0.00    -0.018 A 
ATOM     27  C   UNL     1       1.847  -5.550  24.357  0.00  0.00    -0.017 A 
ATOM     28  C   UNL     1       1.719  -5.843  22.991  0.00  0.00    +0.008 A 
ATOM     29  C   UNL     1       1.613  -7.163  22.556  0.00  0.00    +0.001 A 
ATOM     30  C   UNL     1       1.659  -8.205  23.479  0.00  0.00    +0.001 A 
ATOM     31  C   UNL     1       1.802  -7.929  24.840  0.00  0.00    +0.008 A 
ATOM     32  C   UNL     1       1.896  -4.223  24.803  0.00  0.00    +0.021 A 
ENDBRANCH  19  23
ENDBRANCH  12  15
ENDBRANCH   1  13
BRANCH   2  33
ATOM     33  C   UNL     1       7.542  -0.027  23.797  0.00  0.00    +0.183 C 
ATOM     34  O   UNL     1       6.741  -0.025  22.865  0.00  0.00    -0.291 OA
BRANCH  33  35
ATOM     35  C   UNL     1       8.349  -1.263  24.164  0.00  0.00    +0.204 C 
BRANCH  35  36
ATOM     36  C   UNL     1       7.403  -2.596  23.902  0.00  0.00    -0.018 A 
ATOM     37  C   UNL     1       6.957  -3.549  24.931  0.00  0.00    -0.013 A 
ATOM     38  C   UNL     1       5.829  -4.387  24.643  0.00  0.00    -0.018 A 
ATOM     39  C   UNL     1       5.281  -5.275  25.596  0.00  0.00    +0.008 A 
ATOM     40  C   UNL     1       5.854  -5.422  26.849  0.00  0.00    +0.001 A 
ATOM     41  C   UNL     1       6.986  -4.684  27.161  0.00  0.00    +0.001 A 
ATOM     42  C   UNL     1       5.247  -4.370  23.378  0.00  0.00    +0.008 A 
ATOM     43  C   UNL     1       5.789  -3.595  22.361  0.00  0.00    +0.001 A 
ATOM     44  C   UNL     1       7.521  -3.772  26.221  0.00  0.00    +0.009 A 
ATOM     45  C   UNL     1       6.851  -2.721  22.614  0.00  0.00    +0.005 A 
ENDBRANCH  35  36
BRANCH  35  46
ATOM     46  P   UNL     1       9.751  -1.432  22.999  0.00  0.00    +0.343 P 
ATOM     47  O   UNL     1      10.937  -1.575  22.013  0.00  0.00    -0.258 OA
BRANCH  46  48
ATOM     48  O   UNL     1      10.102  -2.842  23.800  0.00  0.00    -0.323 OA
ATOM     49  H   UNL     1      10.646  -2.675  24.596  0.00  0.00    +0.220 HD
ENDBRANCH  46  48
BRANCH  46  50
ATOM     50  O   UNL     1      10.613  -0.541  24.093  0.00  0.00    -0.323 OA
ATOM     51  H   UNL     1      11.366  -1.103  24.369  0.00  0.00    +0.220 HD
ENDBRANCH  46  50
ENDBRANCH  35  46
ENDBRANCH  33  35
ENDBRANCH   2  33
TORSDOF 9
ENDMDL
MODEL 2
REMARK VINA RESULT:      -7.6      2.961      6.321
REMARK  Name = 
REMARK  10 active torsions:
REMARK  status: ('A' for Active; 'I' for Inactive)
REMARK    1  A    between atoms: C_1  and  N_2
REMARK    2  A    between atoms: N_2  and  C_3
REMARK    3  A    between atoms: C_9  and  C_11
REMARK    4  A    between atoms: C_21  and  C_23
REMARK    5  A    between atoms: C_32  and  C_33
REMARK    6  A    between atoms: C_33  and  C_35
REMARK    7  A    between atoms: C_35  and  C_37
REMARK    8  A    between atoms: C_35  and  P_47
REMARK    9  A    between atoms: P_47  and  O_48
REMARK   10  A    between atoms: P_47  and  O_49
REMARK                            x       y       z     vdW  Elec       q    Type
REMARK                         _______ _______ _______ _____ _____    ______ ____
ROOT
ATOM      1  C   UNL     1       8.331   3.341  23.542  0.00  0.00    +0.048 A 
ATOM      2  C   UNL     1       7.574   4.291  24.256  0.00  0.00    +0.031 A 
ATOM      3  C   UNL     1       8.198   5.465  24.733  0.00  0.00    +0.020 A 
ATOM      4  C   UNL     1       9.558   5.705  24.543  0.00  0.00    -0.017 A 
ATOM      5  C   UNL     1      10.327   4.704  23.939  0.00  0.00    -0.017 A 
ATOM      6  C   UNL     1      11.723   4.869  23.895  0.00  0.00    +0.008 A 
ATOM      7  C   UNL     1      12.313   6.042  24.375  0.00  0.00    +0.001 A 
ATOM      8  C   UNL     1      11.518   7.072  24.872  0.00  0.00    +0.001 A 
ATOM      9  C   UNL     1      10.140   6.902  24.978  0.00  0.00    +0.008 A 
ATOM     10  C   UNL     1       9.704   3.586  23.372  0.00  0.00    +0.022 A 
ENDROOT
BRANCH   1  13
ATOM     11  C   UNL     1       8.565   0.567  24.520  0.00  0.00    +0.132 C 
ATOM     12  N   UNL     1       8.215   0.860  23.121  0.00  0.00    -0.297 N 
ATOM     13  C   UNL     1       7.754   2.171  22.800  0.00  0.00    +0.247 C 
ATOM     14  O   UNL     1       7.007   2.406  21.843  0.00  0.00    -0.270 OA
BRANCH  12  15
ATOM     15  C   UNL     1       7.957  -0.285  22.181  0.00  0.00    +0.079 C 
ATOM     16  C   UNL     1       6.864  -1.265  22.655  0.00  0.00    +0.041 C 
ATOM     17  C   UNL     1       7.307  -1.934  23.954  0.00  0.00    +0.110 C 
ATOM     18  N   UNL     1       8.493  -2.758  23.725  0.00  0.00    -0.297 N 
ATOM     19  C   UNL     1       8.851  -3.879  24.503  0.00  0.00    +0.247 C 
ATOM     20  O   UNL     1      10.006  -4.303  24.548  0.00  0.00    -0.270 OA
ATOM     21  C   UNL     1       9.607  -2.030  23.098  0.00  0.00    +0.110 C 
ATOM     22  C   UNL     1       9.187  -1.182  21.895  0.00  0.00    +0.041 C 
BRANCH  19  23
ATOM     23  C   UNL     1       7.847  -4.573  25.362  0.00  0.00    +0.037 A 
ATOM     24  C   UNL     1       7.881  -4.348  26.744  0.00  0.00    +0.013 A 
ATOM     25  C   UNL     1       6.869  -4.852  27.566  0.00  0.00    +0.009 A 
ATOM     26  C   UNL     1       5.787  -5.554  27.012  0.00  0.00    -0.018 A 
ATOM     27  C   UNL     1       5.795  -5.848  25.630  0.00  0.00    -0.017 A 
ATOM     28  C   UNL     1       4.706  -6.520  25.056  0.00  0.00    +0.008 A 
ATOM     29  C   UNL     1       3.610  -6.888  25.835  0.00  0.00    +0.001 A 
ATOM     30  C   UNL     1       3.603  -6.610  27.199  0.00  0.00    +0.001 A 
ATOM     31  C   UNL     1       4.688  -5.956  27.788  0.00  0.00    +0.008 A 
ATOM     32  C   UNL     1       6.872  -5.425  24.840  0.00  0.00    +0.021 A 
ENDBRANCH  19  23
ENDBRANCH  12  15
ENDBRANCH   1  13
BRANCH   2  33
ATOM     33  C   UNL     1       6.155   4.108  24.649  0.00  0.00    +0.183 C 
ATOM     34  O   UNL     1       5.287   4.816  24.144  0.00  0.00    -0.291 OA
BRANCH  33  35
ATOM     35  C   UNL     1       5.814   2.955  25.581  0.00  0.00    +0.204 C 
BRANCH  35  36
ATOM     36  C   UNL     1       5.960   3.490  27.141  0.00  0.00    -0.018 A 
ATOM     37  C   UNL     1       6.603   2.757  28.245  0.00  0.00    -0.013 A 
ATOM     38  C   UNL     1       7.022   3.494  29.400  0.00  0.00    -0.018 A 
ATOM     39  C   UNL     1       7.717   2.892  30.474  0.00  0.00    +0.008 A 
ATOM     40  C   UNL     1       7.975   1.531  30.484  0.00  0.00    +0.001 A 
ATOM     41  C   UNL     1       7.536   0.756  29.421  0.00  0.00    +0.001 A 
ATOM     42  C   UNL     1       6.724   4.850  29.515  0.00  0.00    +0.008 A 
ATOM     43  C   UNL     1       5.962   5.490  28.546  0.00  0.00    +0.001 A 
ATOM     44  C   UNL     1       6.866   1.359  28.331  0.00  0.00    +0.009 A 
ATOM     45  C   UNL     1       5.582   4.824  27.377  0.00  0.00    +0.005 A 
ENDBRANCH  35  36
BRANCH  35  46
ATOM     46  P   UNL     1       4.046   2.526  25.383  0.00  0.00    +0.343 P 
ATOM     47  O   UNL     1       2.549   2.162  25.215  0.00  0.00    -0.258 OA
BRANCH  46  48
ATOM     48  O   UNL     1       4.476   1.001  25.878  0.00  0.00    -0.323 OA
ATOM     49  H   UNL     1       4.138   0.318  25.265  0.00  0.00    +0.220 HD
ENDBRANCH  46  48
BRANCH  46  50
ATOM     50  O   UNL     1       4.429   2.174  23.813  0.00  0.00    -0.323 OA
ATOM     51  H   UNL     1       5.369   1.899  23.817  0.00  0.00    +0.220 HD
ENDBRANCH  46  50
ENDBRANCH  35  46
ENDBRANCH  33  35
ENDBRANCH   2  33
TORSDOF 9
ENDMDL
MODEL 3
REMARK VINA RESULT:      -7.5      2.388      5.405
REMARK  Name = 
REMARK  10 active torsions:
REMARK  status: ('A' for Active; 'I' for Inactive)
REMARK    1  A    between atoms: C_1  and  N_2
REMARK    2  A    between atoms: N_2  and  C_3
REMARK    3  A    between atoms: C_9  and  C_11
REMARK    4  A    between atoms: C_21  and  C_23
REMARK    5  A    between atoms: C_32  and  C_33
REMARK    6  A    between atoms: C_33  and  C_35
REMARK    7  A    between atoms: C_35  and  C_37
REMARK    8  A    between atoms: C_35  and  P_47
REMARK    9  A    between atoms: P_47  and  O_48
REMARK   10  A    between atoms: P_47  and  O_49
REMARK                            x       y       z     vdW  Elec       q    Type
REMARK                         _______ _______ _______ _____ _____    ______ ____
ROOT
ATOM      1  C   UNL     1       8.169   2.303  24.417  0.00  0.00    +0.048 A 
ATOM      2  C   UNL     1       7.479   2.533  25.624  0.00  0.00    +0.031 A 
ATOM      3  C   UNL     1       7.543   3.806  26.234  0.00  0.00    +0.020 A 
ATOM      4  C   UNL     1       8.296   4.845  25.689  0.00  0.00    -0.017 A 
ATOM      5  C   UNL     1       9.074   4.575  24.558  0.00  0.00    -0.017 A 
ATOM      6  C   UNL     1       9.961   5.568  24.103  0.00  0.00    +0.008 A 
ATOM      7  C   UNL     1      10.002   6.819  24.727  0.00  0.00    +0.001 A 
ATOM      8  C   UNL     1       9.140   7.103  25.784  0.00  0.00    +0.001 A 
ATOM      9  C   UNL     1       8.299   6.113  26.283  0.00  0.00    +0.008 A 
ATOM     10  C   UNL     1       8.938   3.353  23.888  0.00  0.00    +0.022 A 
ENDROOT
BRANCH   1  13
ATOM     11  C   UNL     1       9.758  -0.147  24.837  0.00  0.00    +0.132 C 
ATOM     12  N   UNL     1       9.041   0.096  23.574  0.00  0.00    -0.297 N 
ATOM     13  C   UNL     1       8.010   1.081  23.561  0.00  0.00    +0.247 C 
ATOM     14  O   UNL     1       7.058   1.049  22.773  0.00  0.00    -0.270 OA
BRANCH  12  15
ATOM     15  C   UNL     1       9.113  -0.940  22.487  0.00  0.00    +0.079 C 
ATOM     16  C   UNL     1       7.825  -1.772  22.313  0.00  0.00    +0.041 C 
ATOM     17  C   UNL     1       7.561  -2.576  23.584  0.00  0.00    +0.110 C 
ATOM     18  N   UNL     1       8.628  -3.553  23.800  0.00  0.00    -0.297 N 
ATOM     19  C   UNL     1       8.474  -4.760  24.515  0.00  0.00    +0.247 C 
ATOM     20  O   UNL     1       9.434  -5.353  25.010  0.00  0.00    -0.270 OA
ATOM     21  C   UNL     1       9.975  -2.964  23.816  0.00  0.00    +0.110 C 
ATOM     22  C   UNL     1      10.235  -1.992  22.662  0.00  0.00    +0.041 C 
BRANCH  19  23
ATOM     23  C   UNL     1       7.124  -5.345  24.758  0.00  0.00    +0.037 A 
ATOM     24  C   UNL     1       6.753  -5.646  26.074  0.00  0.00    +0.013 A 
ATOM     25  C   UNL     1       5.447  -6.050  26.365  0.00  0.00    +0.009 A 
ATOM     26  C   UNL     1       4.482  -6.118  25.348  0.00  0.00    -0.018 A 
ATOM     27  C   UNL     1       4.877  -5.892  24.010  0.00  0.00    -0.017 A 
ATOM     28  C   UNL     1       3.918  -5.926  22.987  0.00  0.00    +0.008 A 
ATOM     29  C   UNL     1       2.577  -6.168  23.280  0.00  0.00    +0.001 A 
ATOM     30  C   UNL     1       2.185  -6.402  24.596  0.00  0.00    +0.001 A 
ATOM     31  C   UNL     1       3.131  -6.388  25.623  0.00  0.00    +0.008 A 
ATOM     32  C   UNL     1       6.216  -5.593  23.727  0.00  0.00    +0.021 A 
ENDBRANCH  19  23
ENDBRANCH  12  15
ENDBRANCH   1  13
BRANCH   2  33
ATOM     33  C   UNL     1       6.752   1.488  26.386  0.00  0.00    +0.183 C 
ATOM     34  O   UNL     1       7.268   0.992  27.385  0.00  0.00    -0.291 OA
BRANCH  33  35
ATOM     35  C   UNL     1       5.328   1.157  25.965  0.00  0.00    +0.204 C 
BRANCH  35  36
ATOM     36  C   UNL     1       4.493   0.662  27.307  0.00  0.00    -0.018 A 
ATOM     37  C   UNL     1       4.027  -0.709  27.571  0.00  0.00    -0.013 A 
ATOM     38  C   UNL     1       3.704  -1.071  28.921  0.00  0.00    -0.018 A 
ATOM     39  C   UNL     1       3.323  -2.382  29.284  0.00  0.00    +0.008 A 
ATOM     40  C   UNL     1       3.186  -3.377  28.329  0.00  0.00    +0.001 A 
ATOM     41  C   UNL     1       3.424  -3.068  26.998  0.00  0.00    +0.001 A 
ATOM     42  C   UNL     1       3.727  -0.111  29.930  0.00  0.00    +0.008 A 
ATOM     43  C   UNL     1       3.997   1.218  29.635  0.00  0.00    +0.001 A 
ATOM     44  C   UNL     1       3.833  -1.764  26.634  0.00  0.00    +0.009 A 
ATOM     45  C   UNL     1       4.374   1.604  28.345  0.00  0.00    +0.005 A 
ENDBRANCH  35  36
BRANCH  35  46
ATOM     46  P   UNL     1       4.493   2.690  25.417  0.00  0.00    +0.343 P 
ATOM     47  O   UNL     1       3.785   3.988  24.954  0.00  0.00    -0.258 OA
BRANCH  46  48
ATOM     48  O   UNL     1       3.071   1.873  25.669  0.00  0.00    -0.323 OA
ATOM     49  H   UNL     1       2.307   2.484  25.701  0.00  0.00    +0.220 HD
ENDBRANCH  46  48
BRANCH  46  50
ATOM     50  O   UNL     1       4.627   2.077  23.887  0.00  0.00    -0.323 OA
ATOM     51  H   UNL     1       5.177   1.270  23.965  0.00  0.00    +0.220 HD
ENDBRANCH  46  50
ENDBRANCH  35  46
ENDBRANCH  33  35
ENDBRANCH   2  33
TORSDOF 9
ENDMDL
MODEL 4
REMARK VINA RESULT:      -7.4      2.842      6.319
REMARK  Name = 
REMARK  10 active torsions:
REMARK  status: ('A' for Active; 'I' for Inactive)
REMARK    1  A    between atoms: C_1  and  N_2
REMARK    2  A    between atoms: N_2  and  C_3
REMARK    3  A    between atoms: C_9  and  C_11
REMARK    4  A    between atoms: C_21  and  C_23
REMARK    5  A    between atoms: C_32  and  C_33
REMARK    6  A    between atoms: C_33  and  C_35
REMARK    7  A    between atoms: C_35  and  C_37
REMARK    8  A    between atoms: C_35  and  P_47
REMARK    9  A    between atoms: P_47  and  O_48
REMARK   10  A    between atoms: P_47  and  O_49
REMARK                            x       y       z     vdW  Elec       q    Type
REMARK                         _______ _______ _______ _____ _____    ______ ____
ROOT
ATOM      1  C   UNL     1       9.449   2.033  23.386  0.00  0.00    +0.048 A 
ATOM      2  C   UNL     1       8.460   2.798  24.037  0.00  0.00    +0.031 A 
ATOM      3  C   UNL     1       8.722   4.149  24.357  0.00  0.00    +0.020 A 
ATOM      4  C   UNL     1       9.947   4.749  24.071  0.00  0.00    -0.017 A 
ATOM      5  C   UNL     1      10.964   3.951  23.534  0.00  0.00    -0.017 A 
ATOM      6  C   UNL     1      12.249   4.507  23.399  0.00  0.00    +0.008 A 
ATOM      7  C   UNL     1      12.478   5.848  23.724  0.00  0.00    +0.001 A 
ATOM      8  C   UNL     1      11.426   6.653  24.153  0.00  0.00    +0.001 A 
ATOM      9  C   UNL     1      10.162   6.105  24.348  0.00  0.00    +0.008 A 
ATOM     10  C   UNL     1      10.685   2.644  23.120  0.00  0.00    +0.022 A 
ENDROOT
BRANCH   1  13
ATOM     11  C   UNL     1       9.663  -0.437  24.986  0.00  0.00    +0.132 C 
ATOM     12  N   UNL     1       9.700  -0.470  23.514  0.00  0.00    -0.297 N 
ATOM     13  C   UNL     1       9.225   0.670  22.800  0.00  0.00    +0.247 C 
ATOM     14  O   UNL     1       8.764   0.602  21.655  0.00  0.00    -0.270 OA
BRANCH  12  15
ATOM     15  C   UNL     1       9.836  -1.796  22.820  0.00  0.00    +0.079 C 
ATOM     16  C   UNL     1       8.550  -2.283  22.118  0.00  0.00    +0.041 C 
ATOM     17  C   UNL     1       7.456  -2.509  23.158  0.00  0.00    +0.110 C 
ATOM     18  N   UNL     1       7.832  -3.591  24.068  0.00  0.00    -0.297 N 
ATOM     19  C   UNL     1       6.916  -4.400  24.772  0.00  0.00    +0.247 C 
ATOM     20  O   UNL     1       7.233  -5.011  25.793  0.00  0.00    -0.270 OA
ATOM     21  C   UNL     1       9.140  -3.394  24.710  0.00  0.00    +0.110 C 
ATOM     22  C   UNL     1      10.246  -2.974  23.739  0.00  0.00    +0.041 C 
BRANCH  19  23
ATOM     23  C   UNL     1       5.491  -4.505  24.341  0.00  0.00    +0.037 A 
ATOM     24  C   UNL     1       5.168  -5.402  23.315  0.00  0.00    +0.013 A 
ATOM     25  C   UNL     1       3.832  -5.645  22.985  0.00  0.00    +0.009 A 
ATOM     26  C   UNL     1       2.798  -5.026  23.705  0.00  0.00    -0.018 A 
ATOM     27  C   UNL     1       3.127  -4.062  24.685  0.00  0.00    -0.017 A 
ATOM     28  C   UNL     1       2.106  -3.458  25.434  0.00  0.00    +0.008 A 
ATOM     29  C   UNL     1       0.774  -3.810  25.231  0.00  0.00    +0.001 A 
ATOM     30  C   UNL     1       0.445  -4.751  24.258  0.00  0.00    +0.001 A 
ATOM     31  C   UNL     1       1.448  -5.349  23.493  0.00  0.00    +0.008 A 
ATOM     32  C   UNL     1       4.472  -3.753  24.927  0.00  0.00    +0.021 A 
ENDBRANCH  19  23
ENDBRANCH  12  15
ENDBRANCH   1  13
BRANCH   2  33
ATOM     33  C   UNL     1       7.166   2.259  24.522  0.00  0.00    +0.183 C 
ATOM     34  O   UNL     1       6.756   1.182  24.093  0.00  0.00    -0.291 OA
BRANCH  33  35
ATOM     35  C   UNL     1       6.450   3.009  25.635  0.00  0.00    +0.204 C 
BRANCH  35  36
ATOM     36  C   UNL     1       5.030   3.606  25.026  0.00  0.00    -0.018 A 
ATOM     37  C   UNL     1       4.901   4.765  24.127  0.00  0.00    -0.013 A 
ATOM     38  C   UNL     1       3.696   4.905  23.363  0.00  0.00    -0.018 A 
ATOM     39  C   UNL     1       3.513   5.939  22.418  0.00  0.00    +0.008 A 
ATOM     40  C   UNL     1       4.480   6.914  22.227  0.00  0.00    +0.001 A 
ATOM     41  C   UNL     1       5.640   6.865  22.986  0.00  0.00    +0.001 A 
ATOM     42  C   UNL     1       2.635   4.022  23.556  0.00  0.00    +0.008 A 
ATOM     43  C   UNL     1       2.704   3.040  24.534  0.00  0.00    +0.001 A 
ATOM     44  C   UNL     1       5.840   5.815  23.912  0.00  0.00    +0.009 A 
ATOM     45  C   UNL     1       3.880   2.831  25.261  0.00  0.00    +0.005 A 
ENDBRANCH  35  36
BRANCH  35  46
ATOM     46  P   UNL     1       5.953   1.821  26.935  0.00  0.00    +0.343 P 
ATOM     47  O   UNL     1       5.533   0.816  28.037  0.00  0.00    -0.258 OA
BRANCH  46  48
ATOM     48  O   UNL     1       6.086   3.094  27.991  0.00  0.00    -0.323 OA
ATOM     49  H   UNL     1       5.289   3.662  27.971  0.00  0.00    +0.220 HD
ENDBRANCH  46  48
BRANCH  46  50
ATOM     50  O   UNL     1       7.565   1.479  27.073  0.00  0.00    -0.323 OA
ATOM     51  H   UNL     1       7.640   0.503  27.042  0.00  0.00    +0.220 HD
ENDBRANCH  46  50
ENDBRANCH  35  46
ENDBRANCH  33  35
ENDBRANCH   2  33
TORSDOF 9
ENDMDL
MODEL 5
REMARK VINA RESULT:      -7.4      2.710      9.102
REMARK  Name = 
REMARK  10 active torsions:
REMARK  status: ('A' for Active; 'I' for Inactive)
REMARK    1  A    between atoms: C_1  and  N_2
REMARK    2  A    between atoms: N_2  and  C_3
REMARK    3  A    between atoms: C_9  and  C_11
REMARK    4  A    between atoms: C_21  and  C_23
REMARK    5  A    between atoms: C_32  and  C_33
REMARK    6  A    between atoms: C_33  and  C_35
REMARK    7  A    between atoms: C_35  and  C_37
REMARK    8  A    between atoms: C_35  and  P_47
REMARK    9  A    between atoms: P_47  and  O_48
REMARK   10  A    between atoms: P_47  and  O_49
REMARK                            x       y       z     vdW  Elec       q    Type
REMARK                         _______ _______ _______ _____ _____    ______ ____
ROOT
ATOM      1  C   UNL     1       6.876  -4.118  26.231  0.00  0.00    +0.048 A 
ATOM      2  C   UNL     1       5.683  -3.437  26.544  0.00  0.00    +0.031 A 
ATOM      3  C   UNL     1       4.960  -3.792  27.705  0.00  0.00    +0.020 A 
ATOM      4  C   UNL     1       5.378  -4.822  28.545  0.00  0.00    -0.017 A 
ATOM      5  C   UNL     1       6.497  -5.572  28.165  0.00  0.00    -0.017 A 
ATOM      6  C   UNL     1       6.824  -6.714  28.919  0.00  0.00    +0.008 A 
ATOM      7  C   UNL     1       6.090  -7.041  30.063  0.00  0.00    +0.001 A 
ATOM      8  C   UNL     1       5.048  -6.218  30.485  0.00  0.00    +0.001 A 
ATOM      9  C   UNL     1       4.674  -5.118  29.719  0.00  0.00    +0.008 A 
ATOM     10  C   UNL     1       7.277  -5.166  27.077  0.00  0.00    +0.022 A 
ENDROOT
BRANCH   1  13
ATOM     11  C   UNL     1       8.753  -1.869  26.582  0.00  0.00    +0.132 C 
ATOM     12  N   UNL     1       8.442  -2.408  25.248  0.00  0.00    -0.297 N 
ATOM     13  C   UNL     1       7.844  -3.700  25.163  0.00  0.00    +0.247 C 
ATOM     14  O   UNL     1       7.973  -4.438  24.180  0.00  0.00    -0.270 OA
BRANCH  12  15
ATOM     15  C   UNL     1       9.112  -1.803  24.046  0.00  0.00    +0.079 C 
ATOM     16  C   UNL     1       9.809  -0.453  24.317  0.00  0.00    +0.041 C 
ATOM     17  C   UNL     1       8.768   0.584  24.733  0.00  0.00    +0.110 C 
ATOM     18  N   UNL     1       7.837   0.842  23.634  0.00  0.00    -0.297 N 
ATOM     19  C   UNL     1       7.122   2.045  23.458  0.00  0.00    +0.247 C 
ATOM     20  O   UNL     1       6.089   2.099  22.789  0.00  0.00    -0.270 OA
ATOM     21  C   UNL     1       7.195  -0.371  23.106  0.00  0.00    +0.110 C 
ATOM     22  C   UNL     1       8.171  -1.522  22.848  0.00  0.00    +0.041 C 
BRANCH  19  23
ATOM     23  C   UNL     1       7.555   3.305  24.129  0.00  0.00    +0.037 A 
ATOM     24  C   UNL     1       6.882   3.709  25.289  0.00  0.00    +0.013 A 
ATOM     25  C   UNL     1       7.350   4.795  26.035  0.00  0.00    +0.009 A 
ATOM     26  C   UNL     1       8.523   5.465  25.654  0.00  0.00    -0.018 A 
ATOM     27  C   UNL     1       9.155   5.107  24.442  0.00  0.00    -0.017 A 
ATOM     28  C   UNL     1      10.345   5.746  24.065  0.00  0.00    +0.008 A 
ATOM     29  C   UNL     1      10.916   6.721  24.880  0.00  0.00    +0.001 A 
ATOM     30  C   UNL     1      10.290   7.085  26.070  0.00  0.00    +0.001 A 
ATOM     31  C   UNL     1       9.096   6.469  26.451  0.00  0.00    +0.008 A 
ATOM     32  C   UNL     1       8.609   4.086  23.653  0.00  0.00    +0.021 A 
ENDBRANCH  19  23
ENDBRANCH  12  15
ENDBRANCH   1  13
BRANCH   2  33
ATOM     33  C   UNL     1       5.048  -2.416  25.675  0.00  0.00    +0.183 C 
ATOM     34  O   UNL     1       5.638  -1.363  25.442  0.00  0.00    -0.291 OA
BRANCH  33  35
ATOM     35  C   UNL     1       3.732  -2.769  24.999  0.00  0.00    +0.204 C 
BRANCH  35  36
ATOM     36  C   UNL     1       3.877  -4.284  24.345  0.00  0.00    -0.018 A 
ATOM     37  C   UNL     1       4.744  -4.651  23.213  0.00  0.00    -0.013 A 
ATOM     38  C   UNL     1       5.081  -6.033  23.033  0.00  0.00    -0.018 A 
ATOM     39  C   UNL     1       5.968  -6.473  22.025  0.00  0.00    +0.008 A 
ATOM     40  C   UNL     1       6.513  -5.582  21.114  0.00  0.00    +0.001 A 
ATOM     41  C   UNL     1       6.172  -4.240  21.201  0.00  0.00    +0.001 A 
ATOM     42  C   UNL     1       4.508  -7.008  23.847  0.00  0.00    +0.008 A 
ATOM     43  C   UNL     1       3.555  -6.664  24.796  0.00  0.00    +0.001 A 
ATOM     44  C   UNL     1       5.307  -3.792  22.226  0.00  0.00    +0.009 A 
ATOM     45  C   UNL     1       3.240  -5.325  25.045  0.00  0.00    +0.005 A 
ENDBRANCH  35  36
BRANCH  35  46
ATOM     46  P   UNL     1       2.426  -2.918  26.272  0.00  0.00    +0.343 P 
ATOM     47  O   UNL     1       1.319  -3.044  27.349  0.00  0.00    -0.258 OA
BRANCH  46  48
ATOM     48  O   UNL     1       1.350  -2.624  25.043  0.00  0.00    -0.323 OA
ATOM     49  H   UNL     1       1.756  -2.782  24.167  0.00  0.00    +0.220 HD
ENDBRANCH  46  48
BRANCH  46  50
ATOM     50  O   UNL     1       2.651  -1.300  26.524  0.00  0.00    -0.323 OA
ATOM     51  H   UNL     1       2.271  -1.105  27.404  0.00  0.00    +0.220 HD
ENDBRANCH  46  50
ENDBRANCH  35  46
ENDBRANCH  33  35
ENDBRANCH   2  33
TORSDOF 9
ENDMDL
MODEL 6
REMARK VINA RESULT:      -7.3      2.980      9.012
REMARK  Name = 
REMARK  10 active torsions:
REMARK  status: ('A' for Active; 'I' for Inactive)
REMARK    1  A    between atoms: C_1  and  N_2
REMARK    2  A    between atoms: N_2  and  C_3
REMARK    3  A    between atoms: C_9  and  C_11
REMARK    4  A    between atoms: C_21  and  C_23
REMARK    5  A    between atoms: C_32  and  C_33
REMARK    6  A    between atoms: C_33  and  C_35
REMARK    7  A    between atoms: C_35  and  C_37
REMARK    8  A    between atoms: C_35  and  P_47
REMARK    9  A    between atoms: P_47  and  O_48
REMARK   10  A    between atoms: P_47  and  O_49
REMARK                            x       y       z     vdW  Elec       q    Type
REMARK                         _______ _______ _______ _____ _____    ______ ____
ROOT
ATOM      1  C   UNL     1       4.606  -1.529  26.476  0.00  0.00    +0.048 A 
ATOM      2  C   UNL     1       4.264  -2.472  27.465  0.00  0.00    +0.031 A 
ATOM      3  C   UNL     1       3.123  -2.258  28.270  0.00  0.00    +0.020 A 
ATOM      4  C   UNL     1       2.330  -1.119  28.134  0.00  0.00    -0.017 A 
ATOM      5  C   UNL     1       2.743  -0.131  27.233  0.00  0.00    -0.017 A 
ATOM      6  C   UNL     1       2.043   1.089  27.211  0.00  0.00    +0.008 A 
ATOM      7  C   UNL     1       0.916   1.273  28.019  0.00  0.00    +0.001 A 
ATOM      8  C   UNL     1       0.459   0.235  28.828  0.00  0.00    +0.001 A 
ATOM      9  C   UNL     1       1.173  -0.957  28.906  0.00  0.00    +0.008 A 
ATOM     10  C   UNL     1       3.809  -0.378  26.360  0.00  0.00    +0.022 A 
ENDROOT
BRANCH   1  13
ATOM     11  C   UNL     1       7.471  -1.012  26.953  0.00  0.00    +0.132 C 
ATOM     12  N   UNL     1       6.929  -1.130  25.589  0.00  0.00    -0.297 N 
ATOM     13  C   UNL     1       5.651  -1.739  25.420  0.00  0.00    +0.247 C 
ATOM     14  O   UNL     1       5.313  -2.316  24.380  0.00  0.00    -0.270 OA
BRANCH  12  15
ATOM     15  C   UNL     1       7.866  -0.997  24.421  0.00  0.00    +0.079 C 
ATOM     16  C   UNL     1       8.987   0.046  24.618  0.00  0.00    +0.041 C 
ATOM     17  C   UNL     1       8.371   1.434  24.770  0.00  0.00    +0.110 C 
ATOM     18  N   UNL     1       7.689   1.828  23.537  0.00  0.00    -0.297 N 
ATOM     19  C   UNL     1       7.482   3.162  23.128  0.00  0.00    +0.247 C 
ATOM     20  O   UNL     1       6.597   3.470  22.328  0.00  0.00    -0.270 OA
ATOM     21  C   UNL     1       6.689   0.852  23.077  0.00  0.00    +0.110 C 
ATOM     22  C   UNL     1       7.190  -0.594  23.087  0.00  0.00    +0.041 C 
BRANCH  19  23
ATOM     23  C   UNL     1       8.294   4.277  23.696  0.00  0.00    +0.037 A 
ATOM     24  C   UNL     1       7.731   5.064  24.708  0.00  0.00    +0.013 A 
ATOM     25  C   UNL     1       8.507   6.017  25.374  0.00  0.00    +0.009 A 
ATOM     26  C   UNL     1       9.868   6.167  25.066  0.00  0.00    -0.018 A 
ATOM     27  C   UNL     1      10.413   5.429  23.991  0.00  0.00    -0.017 A 
ATOM     28  C   UNL     1      11.779   5.544  23.691  0.00  0.00    +0.008 A 
ATOM     29  C   UNL     1      12.604   6.370  24.452  0.00  0.00    +0.001 A 
ATOM     30  C   UNL     1      12.069   7.108  25.505  0.00  0.00    +0.001 A 
ATOM     31  C   UNL     1      10.708   7.016  25.805  0.00  0.00    +0.008 A 
ATOM     32  C   UNL     1       9.592   4.556  23.265  0.00  0.00    +0.021 A 
ENDBRANCH  19  23
ENDBRANCH  12  15
ENDBRANCH   1  13
BRANCH   2  33
ATOM     33  C   UNL     1       5.086  -3.658  27.813  0.00  0.00    +0.183 C 
ATOM     34  O   UNL     1       5.823  -3.621  28.796  0.00  0.00    -0.291 OA
BRANCH  33  35
ATOM     35  C   UNL     1       4.888  -4.928  27.000  0.00  0.00    +0.204 C 
BRANCH  35  36
ATOM     36  C   UNL     1       6.206  -5.124  26.017  0.00  0.00    -0.018 A 
ATOM     37  C   UNL     1       6.167  -5.333  24.560  0.00  0.00    -0.013 A 
ATOM     38  C   UNL     1       7.354  -5.068  23.801  0.00  0.00    -0.018 A 
ATOM     39  C   UNL     1       7.391  -5.164  22.391  0.00  0.00    +0.008 A 
ATOM     40  C   UNL     1       6.281  -5.582  21.674  0.00  0.00    +0.001 A 
ATOM     41  C   UNL     1       5.123  -5.913  22.361  0.00  0.00    +0.001 A 
ATOM     42  C   UNL     1       8.541  -4.729  24.447  0.00  0.00    +0.008 A 
ATOM     43  C   UNL     1       8.607  -4.709  25.834  0.00  0.00    +0.001 A 
ATOM     44  C   UNL     1       5.073  -5.791  23.770  0.00  0.00    +0.009 A 
ATOM     45  C   UNL     1       7.462  -4.903  26.611  0.00  0.00    +0.005 A 
ENDBRANCH  35  36
BRANCH  35  46
ATOM     46  P   UNL     1       4.911  -6.370  28.127  0.00  0.00    +0.343 P 
ATOM     47  O   UNL     1       4.930  -7.591  29.080  0.00  0.00    -0.258 OA
BRANCH  46  48
ATOM     48  O   UNL     1       4.326  -7.242  26.842  0.00  0.00    -0.323 OA
ATOM     49  H   UNL     1       3.369  -7.090  26.712  0.00  0.00    +0.220 HD
ENDBRANCH  46  48
BRANCH  46  50
ATOM     50  O   UNL     1       3.386  -5.904  28.563  0.00  0.00    -0.323 OA
ATOM     51  H   UNL     1       3.433  -5.674  29.514  0.00  0.00    +0.220 HD
ENDBRANCH  46  50
ENDBRANCH  35  46
ENDBRANCH  33  35
ENDBRANCH   2  33
TORSDOF 9
ENDMDL
MODEL 7
REMARK VINA RESULT:      -7.2      2.489      9.040
REMARK  Name = 
REMARK  10 active torsions:
REMARK  status: ('A' for Active; 'I' for Inactive)
REMARK    1  A    between atoms: C_1  and  N_2
REMARK    2  A    between atoms: N_2  and  C_3
REMARK    3  A    between atoms: C_9  and  C_11
REMARK    4  A    between atoms: C_21  and  C_23
REMARK    5  A    between atoms: C_32  and  C_33
REMARK    6  A    between atoms: C_33  and  C_35
REMARK    7  A    between atoms: C_35  and  C_37
REMARK    8  A    between atoms: C_35  and  P_47
REMARK    9  A    between atoms: P_47  and  O_48
REMARK   10  A    between atoms: P_47  and  O_49
REMARK                            x       y       z     vdW  Elec       q    Type
REMARK                         _______ _______ _______ _____ _____    ______ ____
ROOT
ATOM      1  C   UNL     1       6.257  -4.352  26.121  0.00  0.00    +0.048 A 
ATOM      2  C   UNL     1       6.057  -3.222  26.939  0.00  0.00    +0.031 A 
ATOM      3  C   UNL     1       5.530  -3.386  28.239  0.00  0.00    +0.020 A 
ATOM      4  C   UNL     1       5.173  -4.639  28.736  0.00  0.00    -0.017 A 
ATOM      5  C   UNL     1       5.262  -5.740  27.877  0.00  0.00    -0.017 A 
ATOM      6  C   UNL     1       4.749  -6.974  28.316  0.00  0.00    +0.008 A 
ATOM      7  C   UNL     1       4.234  -7.106  29.609  0.00  0.00    +0.001 A 
ATOM      8  C   UNL     1       4.255  -6.023  30.485  0.00  0.00    +0.001 A 
ATOM      9  C   UNL     1       4.705  -4.781  30.048  0.00  0.00    +0.008 A 
ATOM     10  C   UNL     1       5.878  -5.606  26.627  0.00  0.00    +0.022 A 
ENDROOT
BRANCH   1  13
ATOM     11  C   UNL     1       9.149  -3.792  25.955  0.00  0.00    +0.132 C 
ATOM     12  N   UNL     1       8.283  -3.713  24.768  0.00  0.00    -0.297 N 
ATOM     13  C   UNL     1       7.004  -4.343  24.819  0.00  0.00    +0.247 C 
ATOM     14  O   UNL     1       6.418  -4.758  23.814  0.00  0.00    -0.270 OA
BRANCH  12  15
ATOM     15  C   UNL     1       8.896  -3.353  23.443  0.00  0.00    +0.079 C 
ATOM     16  C   UNL     1       9.945  -2.222  23.513  0.00  0.00    +0.041 C 
ATOM     17  C   UNL     1       9.275  -0.933  23.983  0.00  0.00    +0.110 C 
ATOM     18  N   UNL     1       8.286  -0.485  23.003  0.00  0.00    -0.297 N 
ATOM     19  C   UNL     1       7.881   0.856  22.832  0.00  0.00    +0.247 C 
ATOM     20  O   UNL     1       6.807   1.152  22.305  0.00  0.00    -0.270 OA
ATOM     21  C   UNL     1       7.286  -1.507  22.662  0.00  0.00    +0.110 C 
ATOM     22  C   UNL     1       7.889  -2.883  22.365  0.00  0.00    +0.041 C 
BRANCH  19  23
ATOM     23  C   UNL     1       8.715   1.984  23.340  0.00  0.00    +0.037 A 
ATOM     24  C   UNL     1      10.023   2.116  22.859  0.00  0.00    +0.013 A 
ATOM     25  C   UNL     1      10.786   3.241  23.188  0.00  0.00    +0.009 A 
ATOM     26  C   UNL     1      10.234   4.269  23.968  0.00  0.00    -0.018 A 
ATOM     27  C   UNL     1       8.944   4.097  24.517  0.00  0.00    -0.017 A 
ATOM     28  C   UNL     1       8.367   5.129  25.272  0.00  0.00    +0.008 A 
ATOM     29  C   UNL     1       9.050   6.327  25.474  0.00  0.00    +0.001 A 
ATOM     30  C   UNL     1      10.327   6.496  24.944  0.00  0.00    +0.001 A 
ATOM     31  C   UNL     1      10.921   5.472  24.204  0.00  0.00    +0.008 A 
ATOM     32  C   UNL     1       8.237   2.915  24.263  0.00  0.00    +0.021 A 
ENDBRANCH  19  23
ENDBRANCH  12  15
ENDBRANCH   1  13
BRANCH   2  33
ATOM     33  C   UNL     1       6.263  -1.820  26.497  0.00  0.00    +0.183 C 
ATOM     34  O   UNL     1       7.363  -1.292  26.643  0.00  0.00    -0.291 OA
BRANCH  33  35
ATOM     35  C   UNL     1       5.126  -1.128  25.761  0.00  0.00    +0.204 C 
BRANCH  35  36
ATOM     36  C   UNL     1       3.695  -1.729  26.337  0.00  0.00    -0.018 A 
ATOM     37  C   UNL     1       3.055  -2.983  25.907  0.00  0.00    -0.013 A 
ATOM     38  C   UNL     1       2.070  -3.576  26.765  0.00  0.00    -0.018 A 
ATOM     39  C   UNL     1       1.460  -4.817  26.475  0.00  0.00    +0.008 A 
ATOM     40  C   UNL     1       1.746  -5.498  25.302  0.00  0.00    +0.001 A 
ATOM     41  C   UNL     1       2.644  -4.941  24.404  0.00  0.00    +0.001 A 
ATOM     42  C   UNL     1       1.656  -2.916  27.920  0.00  0.00    +0.008 A 
ATOM     43  C   UNL     1       2.140  -1.650  28.221  0.00  0.00    +0.001 A 
ATOM     44  C   UNL     1       3.279  -3.713  24.704  0.00  0.00    +0.009 A 
ATOM     45  C   UNL     1       3.142  -1.061  27.445  0.00  0.00    +0.005 A 
ENDBRANCH  35  36
BRANCH  35  46
ATOM     46  P   UNL     1       5.116   0.647  26.208  0.00  0.00    +0.343 P 
ATOM     47  O   UNL     1       5.108   2.150  26.585  0.00  0.00    -0.258 OA
BRANCH  46  48
ATOM     48  O   UNL     1       4.818   0.935  24.601  0.00  0.00    -0.323 OA
ATOM     49  H   UNL     1       3.969   1.403  24.473  0.00  0.00    +0.220 HD
ENDBRANCH  46  48
BRANCH  46  50
ATOM     50  O   UNL     1       6.748   0.601  25.944  0.00  0.00    -0.323 OA
ATOM     51  H   UNL     1       7.154   0.334  26.794  0.00  0.00    +0.220 HD
ENDBRANCH  46  50
ENDBRANCH  35  46
ENDBRANCH  33  35
ENDBRANCH   2  33
TORSDOF 9
ENDMDL
MODEL 8
REMARK VINA RESULT:      -6.9      2.446      5.862
REMARK  Name = 
REMARK  10 active torsions:
REMARK  status: ('A' for Active; 'I' for Inactive)
REMARK    1  A    between atoms: C_1  and  N_2
REMARK    2  A    between atoms: N_2  and  C_3
REMARK    3  A    between atoms: C_9  and  C_11
REMARK    4  A    between atoms: C_21  and  C_23
REMARK    5  A    between atoms: C_32  and  C_33
REMARK    6  A    between atoms: C_33  and  C_35
REMARK    7  A    between atoms: C_35  and  C_37
REMARK    8  A    between atoms: C_35  and  P_47
REMARK    9  A    between atoms: P_47  and  O_48
REMARK   10  A    between atoms: P_47  and  O_49
REMARK                            x       y       z     vdW  Elec       q    Type
REMARK                         _______ _______ _______ _____ _____    ______ ____
ROOT
ATOM      1  C   UNL     1       9.120   2.227  24.114  0.00  0.00    +0.048 A 
ATOM      2  C   UNL     1       7.797   2.261  24.598  0.00  0.00    +0.031 A 
ATOM      3  C   UNL     1       7.123   3.498  24.703  0.00  0.00    +0.020 A 
ATOM      4  C   UNL     1       7.740   4.702  24.367  0.00  0.00    -0.017 A 
ATOM      5  C   UNL     1       9.091   4.674  24.002  0.00  0.00    -0.017 A 
ATOM      6  C   UNL     1       9.761   5.898  23.823  0.00  0.00    +0.008 A 
ATOM      7  C   UNL     1       9.068   7.107  23.934  0.00  0.00    +0.001 A 
ATOM      8  C   UNL     1       7.699   7.108  24.191  0.00  0.00    +0.001 A 
ATOM      9  C   UNL     1       7.032   5.909  24.428  0.00  0.00    +0.008 A 
ATOM     10  C   UNL     1       9.736   3.449  23.795  0.00  0.00    +0.022 A 
ENDROOT
BRANCH   1  13
ATOM     11  C   UNL     1       8.838   0.924  21.482  0.00  0.00    +0.132 C 
ATOM     12  N   UNL     1       9.411   0.210  22.635  0.00  0.00    -0.297 N 
ATOM     13  C   UNL     1       9.865   0.977  23.748  0.00  0.00    +0.247 C 
ATOM     14  O   UNL     1      10.755   0.590  24.515  0.00  0.00    -0.270 OA
BRANCH  12  15
ATOM     15  C   UNL     1       9.874  -1.209  22.454  0.00  0.00    +0.079 C 
ATOM     16  C   UNL     1       8.839  -2.137  21.783  0.00  0.00    +0.041 C 
ATOM     17  C   UNL     1       7.604  -2.251  22.674  0.00  0.00    +0.110 C 
ATOM     18  N   UNL     1       7.946  -2.903  23.938  0.00  0.00    -0.297 N 
ATOM     19  C   UNL     1       7.035  -3.627  24.736  0.00  0.00    +0.247 C 
ATOM     20  O   UNL     1       7.228  -3.819  25.937  0.00  0.00    -0.270 OA
ATOM     21  C   UNL     1       9.057  -2.258  24.654  0.00  0.00    +0.110 C 
ATOM     22  C   UNL     1      10.260  -1.941  23.764  0.00  0.00    +0.041 C 
BRANCH  19  23
ATOM     23  C   UNL     1       5.756  -4.144  24.170  0.00  0.00    +0.037 A 
ATOM     24  C   UNL     1       5.815  -5.148  23.195  0.00  0.00    +0.013 A 
ATOM     25  C   UNL     1       4.644  -5.769  22.749  0.00  0.00    +0.009 A 
ATOM     26  C   UNL     1       3.402  -5.424  23.304  0.00  0.00    -0.018 A 
ATOM     27  C   UNL     1       3.335  -4.357  24.228  0.00  0.00    -0.017 A 
ATOM     28  C   UNL     1       2.106  -4.021  24.814  0.00  0.00    +0.008 A 
ATOM     29  C   UNL     1       0.953  -4.739  24.502  0.00  0.00    +0.001 A 
ATOM     30  C   UNL     1       1.012  -5.784  23.583  0.00  0.00    +0.001 A 
ATOM     31  C   UNL     1       2.225  -6.119  22.980  0.00  0.00    +0.008 A 
ATOM     32  C   UNL     1       4.507  -3.675  24.582  0.00  0.00    +0.021 A 
ENDBRANCH  19  23
ENDBRANCH  12  15
ENDBRANCH   1  13
BRANCH   2  33
ATOM     33  C   UNL     1       7.065   1.080  25.118  0.00  0.00    +0.183 C 
ATOM     34  O   UNL     1       6.876   0.110  24.388  0.00  0.00    -0.291 OA
BRANCH  33  35
ATOM     35  C   UNL     1       6.681   1.068  26.590  0.00  0.00    +0.204 C 
BRANCH  35  36
ATOM     36  C   UNL     1       5.494   2.199  26.824  0.00  0.00    -0.018 A 
ATOM     37  C   UNL     1       5.673   3.510  27.471  0.00  0.00    -0.013 A 
ATOM     38  C   UNL     1       4.692   4.528  27.231  0.00  0.00    -0.018 A 
ATOM     39  C   UNL     1       4.818   5.839  27.744  0.00  0.00    +0.008 A 
ATOM     40  C   UNL     1       5.880   6.187  28.562  0.00  0.00    +0.001 A 
ATOM     41  C   UNL     1       6.827   5.225  28.880  0.00  0.00    +0.001 A 
ATOM     42  C   UNL     1       3.545   4.239  26.495  0.00  0.00    +0.008 A 
ATOM     43  C   UNL     1       3.304   2.950  26.040  0.00  0.00    +0.001 A 
ATOM     44  C   UNL     1       6.720   3.919  28.346  0.00  0.00    +0.009 A 
ATOM     45  C   UNL     1       4.260   1.942  26.200  0.00  0.00    +0.005 A 
ENDBRANCH  35  36
BRANCH  35  46
ATOM     46  P   UNL     1       5.900  -0.537  26.993  0.00  0.00    +0.343 P 
ATOM     47  O   UNL     1       5.240  -1.896  27.335  0.00  0.00    -0.258 OA
BRANCH  46  48
ATOM     48  O   UNL     1       5.898  -0.014  28.568  0.00  0.00    -0.323 OA
ATOM     49  H   UNL     1       5.873   0.963  28.620  0.00  0.00    +0.220 HD
ENDBRANCH  46  48
BRANCH  46  50
ATOM     50  O   UNL     1       7.443  -1.116  27.140  0.00  0.00    -0.323 OA
ATOM     51  H   UNL     1       8.015  -0.492  26.648  0.00  0.00    +0.220 HD
ENDBRANCH  46  50
ENDBRANCH  35  46
ENDBRANCH  33  35
ENDBRANCH   2  33
TORSDOF 9
ENDMDL
MODEL 9
REMARK VINA RESULT:      -6.8      2.839      8.927
REMARK  Name = 
REMARK  10 active torsions:
REMARK  status: ('A' for Active; 'I' for Inactive)
REMARK    1  A    between atoms: C_1  and  N_2
REMARK    2  A    between atoms: N_2  and  C_3
REMARK    3  A    between atoms: C_9  and  C_11
REMARK    4  A    between atoms: C_21  and  C_23
REMARK    5  A    between atoms: C_32  and  C_33
REMARK    6  A    between atoms: C_33  and  C_35
REMARK    7  A    between atoms: C_35  and  C_37
REMARK    8  A    between atoms: C_35  and  P_47
REMARK    9  A    between atoms: P_47  and  O_48
REMARK   10  A    between atoms: P_47  and  O_49
REMARK                            x       y       z     vdW  Elec       q    Type
REMARK                         _______ _______ _______ _____ _____    ______ ____
ROOT
ATOM      1  C   UNL     1       7.698  -5.049  25.758  0.00  0.00    +0.048 A 
ATOM      2  C   UNL     1       6.607  -5.510  24.995  0.00  0.00    +0.031 A 
ATOM      3  C   UNL     1       5.462  -6.016  25.648  0.00  0.00    +0.020 A 
ATOM      4  C   UNL     1       5.385  -6.101  27.038  0.00  0.00    -0.017 A 
ATOM      5  C   UNL     1       6.516  -5.755  27.785  0.00  0.00    -0.017 A 
ATOM      6  C   UNL     1       6.503  -5.995  29.171  0.00  0.00    +0.008 A 
ATOM      7  C   UNL     1       5.354  -6.497  29.790  0.00  0.00    +0.001 A 
ATOM      8  C   UNL     1       4.202  -6.733  29.043  0.00  0.00    +0.001 A 
ATOM      9  C   UNL     1       4.217  -6.556  27.663  0.00  0.00    +0.008 A 
ATOM     10  C   UNL     1       7.615  -5.156  27.157  0.00  0.00    +0.022 A 
ENDROOT
BRANCH   1  13
ATOM     11  C   UNL     1       7.933  -2.115  25.957  0.00  0.00    +0.132 C 
ATOM     12  N   UNL     1       8.747  -2.888  25.004  0.00  0.00    -0.297 N 
ATOM     13  C   UNL     1       8.871  -4.294  25.204  0.00  0.00    +0.247 C 
ATOM     14  O   UNL     1       9.845  -4.946  24.813  0.00  0.00    -0.270 OA
BRANCH  12  15
ATOM     15  C   UNL     1       9.726  -2.158  24.127  0.00  0.00    +0.079 C 
ATOM     16  C   UNL     1      10.153  -0.775  24.661  0.00  0.00    +0.041 C 
ATOM     17  C   UNL     1       8.937   0.147  24.719  0.00  0.00    +0.110 C 
ATOM     18  N   UNL     1       8.420   0.394  23.373  0.00  0.00    -0.297 N 
ATOM     19  C   UNL     1       7.695   1.543  22.993  0.00  0.00    +0.247 C 
ATOM     20  O   UNL     1       6.955   1.554  22.009  0.00  0.00    -0.270 OA
ATOM     21  C   UNL     1       8.119  -0.833  22.621  0.00  0.00    +0.110 C 
ATOM     22  C   UNL     1       9.231  -1.883  22.686  0.00  0.00    +0.041 C 
BRANCH  19  23
ATOM     23  C   UNL     1       7.746   2.792  23.809  0.00  0.00    +0.037 A 
ATOM     24  C   UNL     1       6.859   2.923  24.885  0.00  0.00    +0.013 A 
ATOM     25  C   UNL     1       6.974   4.001  25.767  0.00  0.00    +0.009 A 
ATOM     26  C   UNL     1       8.005   4.941  25.609  0.00  0.00    -0.018 A 
ATOM     27  C   UNL     1       8.849   4.851  24.479  0.00  0.00    -0.017 A 
ATOM     28  C   UNL     1       9.903   5.764  24.325  0.00  0.00    +0.008 A 
ATOM     29  C   UNL     1      10.133   6.749  25.282  0.00  0.00    +0.001 A 
ATOM     30  C   UNL     1       9.297   6.849  26.392  0.00  0.00    +0.001 A 
ATOM     31  C   UNL     1       8.234   5.957  26.551  0.00  0.00    +0.008 A 
ATOM     32  C   UNL     1       8.649   3.823  23.548  0.00  0.00    +0.021 A 
ENDBRANCH  19  23
ENDBRANCH  12  15
ENDBRANCH   1  13
BRANCH   2  33
ATOM     33  C   UNL     1       6.601  -5.606  23.514  0.00  0.00    +0.183 C 
ATOM     34  O   UNL     1       7.613  -5.977  22.924  0.00  0.00    -0.291 OA
BRANCH  33  35
ATOM     35  C   UNL     1       5.288  -5.356  22.786  0.00  0.00    +0.204 C 
BRANCH  35  36
ATOM     36  C   UNL     1       4.375  -4.325  23.705  0.00  0.00    -0.018 A 
ATOM     37  C   UNL     1       3.035  -4.611  24.243  0.00  0.00    -0.013 A 
ATOM     38  C   UNL     1       2.557  -3.821  25.340  0.00  0.00    -0.018 A 
ATOM     39  C   UNL     1       1.318  -4.072  25.972  0.00  0.00    +0.008 A 
ATOM     40  C   UNL     1       0.471  -5.069  25.515  0.00  0.00    +0.001 A 
ATOM     41  C   UNL     1       0.854  -5.824  24.416  0.00  0.00    +0.001 A 
ATOM     42  C   UNL     1       3.303  -2.741  25.805  0.00  0.00    +0.008 A 
ATOM     43  C   UNL     1       4.483  -2.373  25.173  0.00  0.00    +0.001 A 
ATOM     44  C   UNL     1       2.105  -5.596  23.798  0.00  0.00    +0.009 A 
ATOM     45  C   UNL     1       5.015  -3.149  24.138  0.00  0.00    +0.005 A 
ENDBRANCH  35  36
BRANCH  35  46
ATOM     46  P   UNL     1       5.627  -4.447  21.235  0.00  0.00    +0.343 P 
ATOM     47  O   UNL     1       5.914  -3.677  19.921  0.00  0.00    -0.258 OA
BRANCH  46  48
ATOM     48  O   UNL     1       6.116  -5.907  20.617  0.00  0.00    -0.323 OA
ATOM     49  H   UNL     1       6.742  -6.359  21.218  0.00  0.00    +0.220 HD
ENDBRANCH  46  48
BRANCH  46  50
ATOM     50  O   UNL     1       7.127  -4.161  21.869  0.00  0.00    -0.323 OA
ATOM     51  H   UNL     1       7.055  -3.324  22.373  0.00  0.00    +0.220 HD
ENDBRANCH  46  50
ENDBRANCH  35  46
ENDBRANCH  33  35
ENDBRANCH   2  33
TORSDOF 9
ENDMDL
