MODEL 1
REMARK VINA RESULT:      -6.1      0.000      0.000
REMARK  Name = 
REMARK  6 active torsions:
REMARK  status: ('A' for Active; 'I' for Inactive)
REMARK    1  A    between atoms: C_1  and  C_2
REMARK    2  A    between atoms: C_3  and  C_4
REMARK    3  A    between atoms: C_4  and  O_5
REMARK    4  A    between atoms: C_7  and  C_8
REMARK    5  A    between atoms: C_12  and  C_13
REMARK    6  A    between atoms: C_12  and  O_14
REMARK                            x       y       z     vdW  Elec       q    Type
REMARK                         _______ _______ _______ _____ _____    ______ ____
ROOT
ATOM      1  C   UNL     1       6.083  -5.973  20.661  0.00  0.00    +0.044 C 
ATOM      2  C   UNL     1       6.185  -5.689  22.121  0.00  0.00    -0.044 C 
ATOM      3  C   UNL     1       7.467  -5.303  22.682  0.00  0.00    +0.015 C 
ATOM      4  C   UNL     1       7.326  -5.122  24.001  0.00  0.00    +0.028 C 
ATOM      5  C   UNL     1       5.940  -5.332  24.358  0.00  0.00    -0.009 C 
ATOM      6  C   UNL     1       5.529  -5.141  25.635  0.00  0.00    -0.055 C 
ATOM      7  C   UNL     1       6.518  -4.809  26.765  0.00  0.00    +0.028 C 
ATOM      8  C   UNL     1       7.977  -4.405  26.366  0.00  0.00    +0.135 C 
ATOM      9  C   UNL     1       8.219  -2.891  26.532  0.00  0.00    +0.051 C 
ATOM     10  C   UNL     1       6.318  -5.661  28.031  0.00  0.00    +0.015 C 
ATOM     11  C   UNL     1       6.000  -4.204  28.075  0.00  0.00    +0.015 C 
ATOM     12  C   UNL     1       4.069  -5.307  26.014  0.00  0.00    +0.040 C 
ATOM     13  C   UNL     1       8.391  -4.729  24.926  0.00  0.00    +0.196 C 
ATOM     14  O   UNL     1       9.549  -4.616  24.514  0.00  0.00    -0.289 OA
ATOM     15  C   UNL     1       5.253  -5.748  23.109  0.00  0.00    -0.011 C 
ENDROOT
BRANCH   8  16
ATOM     16  O   UNL     1       8.904  -5.114  27.209  0.00  0.00    -0.380 OA
ATOM     17  H   UNL     1       9.694  -4.562  27.315  0.00  0.00    +0.211 HD
ENDBRANCH   8  16
BRANCH  15  18
ATOM     18  C   UNL     1       3.840  -6.204  22.939  0.00  0.00    +0.192 C 
BRANCH  18  19
ATOM     19  O   UNL     1       3.643  -7.472  23.551  0.00  0.00    -0.390 OA
ATOM     20  H   UNL     1       4.131  -8.124  23.018  0.00  0.00    +0.210 HD
ENDBRANCH  18  19
ENDBRANCH  15  18
TORSDOF 3
ENDMDL
MODEL 2
REMARK VINA RESULT:      -6.0      3.823      6.012
REMARK  Name = 
REMARK  6 active torsions:
REMARK  status: ('A' for Active; 'I' for Inactive)
REMARK    1  A    between atoms: C_1  and  C_2
REMARK    2  A    between atoms: C_3  and  C_4
REMARK    3  A    between atoms: C_4  and  O_5
REMARK    4  A    between atoms: C_7  and  C_8
REMARK    5  A    between atoms: C_12  and  C_13
REMARK    6  A    between atoms: C_12  and  O_14
REMARK                            x       y       z     vdW  Elec       q    Type
REMARK                         _______ _______ _______ _____ _____    ______ ____
ROOT
ATOM      1  C   UNL     1      10.563   2.440  23.539  0.00  0.00    +0.044 C 
ATOM      2  C   UNL     1       9.916   1.122  23.801  0.00  0.00    -0.044 C 
ATOM      3  C   UNL     1       9.698   0.697  25.172  0.00  0.00    +0.015 C 
ATOM      4  C   UNL     1       9.130  -0.515  25.165  0.00  0.00    +0.028 C 
ATOM      5  C   UNL     1       8.907  -0.921  23.794  0.00  0.00    -0.009 C 
ATOM      6  C   UNL     1       8.280  -2.091  23.523  0.00  0.00    -0.055 C 
ATOM      7  C   UNL     1       7.886  -3.077  24.636  0.00  0.00    +0.028 C 
ATOM      8  C   UNL     1       7.956  -2.576  26.118  0.00  0.00    +0.135 C 
ATOM      9  C   UNL     1       6.555  -2.302  26.699  0.00  0.00    +0.051 C 
ATOM     10  C   UNL     1       8.282  -4.534  24.340  0.00  0.00    +0.015 C 
ATOM     11  C   UNL     1       6.839  -4.161  24.355  0.00  0.00    +0.015 C 
ATOM     12  C   UNL     1       7.992  -2.505  22.092  0.00  0.00    +0.040 C 
ATOM     13  C   UNL     1       8.753  -1.287  26.351  0.00  0.00    +0.196 C 
ATOM     14  O   UNL     1       9.030  -0.858  27.474  0.00  0.00    -0.289 OA
ATOM     15  C   UNL     1       9.482   0.156  22.948  0.00  0.00    -0.011 C 
ENDROOT
BRANCH   8  16
ATOM     16  O   UNL     1       8.598  -3.584  26.920  0.00  0.00    -0.380 OA
ATOM     17  H   UNL     1       8.807  -3.192  27.782  0.00  0.00    +0.211 HD
ENDBRANCH   8  16
BRANCH  15  18
ATOM     18  C   UNL     1       9.628   0.185  21.462  0.00  0.00    +0.192 C 
BRANCH  18  19
ATOM     19  O   UNL     1       8.793   1.187  20.894  0.00  0.00    -0.390 OA
ATOM     20  H   UNL     1       9.370   1.787  20.391  0.00  0.00    +0.210 HD
ENDBRANCH  18  19
ENDBRANCH  15  18
TORSDOF 3
ENDMDL
MODEL 3
REMARK VINA RESULT:      -5.9      1.919      4.091
REMARK  Name = 
REMARK  6 active torsions:
REMARK  status: ('A' for Active; 'I' for Inactive)
REMARK    1  A    between atoms: C_1  and  C_2
REMARK    2  A    between atoms: C_3  and  C_4
REMARK    3  A    between atoms: C_4  and  O_5
REMARK    4  A    between atoms: C_7  and  C_8
REMARK    5  A    between atoms: C_12  and  C_13
REMARK    6  A    between atoms: C_12  and  O_14
REMARK                            x       y       z     vdW  Elec       q    Type
REMARK                         _______ _______ _______ _____ _____    ______ ____
ROOT
ATOM      1  C   UNL     1       2.206  -7.533  26.010  0.00  0.00    +0.044 C 
ATOM      2  C   UNL     1       3.528  -6.915  25.705  0.00  0.00    -0.044 C 
ATOM      3  C   UNL     1       3.899  -6.678  24.322  0.00  0.00    +0.015 C 
ATOM      4  C   UNL     1       5.125  -6.142  24.288  0.00  0.00    +0.028 C 
ATOM      5  C   UNL     1       5.595  -5.958  25.645  0.00  0.00    -0.009 C 
ATOM      6  C   UNL     1       6.792  -5.368  25.877  0.00  0.00    -0.055 C 
ATOM      7  C   UNL     1       7.739  -4.975  24.731  0.00  0.00    +0.028 C 
ATOM      8  C   UNL     1       7.174  -5.001  23.272  0.00  0.00    +0.135 C 
ATOM      9  C   UNL     1       6.913  -3.580  22.732  0.00  0.00    +0.051 C 
ATOM     10  C   UNL     1       9.197  -5.415  24.956  0.00  0.00    +0.015 C 
ATOM     11  C   UNL     1       8.862  -3.962  24.987  0.00  0.00    +0.015 C 
ATOM     12  C   UNL     1       7.274  -5.122  27.295  0.00  0.00    +0.040 C 
ATOM     13  C   UNL     1       5.856  -5.759  23.078  0.00  0.00    +0.196 C 
ATOM     14  O   UNL     1       5.372  -6.000  21.969  0.00  0.00    -0.289 OA
ATOM     15  C   UNL     1       4.541  -6.524  26.524  0.00  0.00    -0.011 C 
ENDROOT
BRANCH   8  16
ATOM     16  O   UNL     1       8.129  -5.650  22.413  0.00  0.00    -0.380 OA
ATOM     17  H   UNL     1       7.707  -5.796  21.553  0.00  0.00    +0.211 HD
ENDBRANCH   8  16
BRANCH  15  18
ATOM     18  C   UNL     1       4.570  -6.702  28.007  0.00  0.00    +0.192 C 
BRANCH  18  19
ATOM     19  O   UNL     1       5.411  -7.791  28.367  0.00  0.00    -0.390 OA
ATOM     20  H   UNL     1       5.428  -8.400  27.608  0.00  0.00    +0.210 HD
ENDBRANCH  18  19
ENDBRANCH  15  18
TORSDOF 3
ENDMDL
MODEL 4
REMARK VINA RESULT:      -5.9      5.164      7.473
REMARK  Name = 
REMARK  6 active torsions:
REMARK  status: ('A' for Active; 'I' for Inactive)
REMARK    1  A    between atoms: C_1  and  C_2
REMARK    2  A    between atoms: C_3  and  C_4
REMARK    3  A    between atoms: C_4  and  O_5
REMARK    4  A    between atoms: C_7  and  C_8
REMARK    5  A    between atoms: C_12  and  C_13
REMARK    6  A    between atoms: C_12  and  O_14
REMARK                            x       y       z     vdW  Elec       q    Type
REMARK                         _______ _______ _______ _____ _____    ______ ____
ROOT
ATOM      1  C   UNL     1       8.695  -3.458  25.542  0.00  0.00    +0.044 C 
ATOM      2  C   UNL     1       8.701  -2.049  25.053  0.00  0.00    -0.044 C 
ATOM      3  C   UNL     1       9.118  -1.772  23.691  0.00  0.00    +0.015 C 
ATOM      4  C   UNL     1       9.066  -0.451  23.482  0.00  0.00    +0.028 C 
ATOM      5  C   UNL     1       8.568   0.194  24.677  0.00  0.00    -0.009 C 
ATOM      6  C   UNL     1       8.361   1.533  24.693  0.00  0.00    -0.055 C 
ATOM      7  C   UNL     1       8.745   2.428  23.503  0.00  0.00    +0.028 C 
ATOM      8  C   UNL     1       9.112   1.730  22.150  0.00  0.00    +0.135 C 
ATOM      9  C   UNL     1       7.984   1.868  21.108  0.00  0.00    +0.051 C 
ATOM     10  C   UNL     1       9.526   3.691  23.907  0.00  0.00    +0.015 C 
ATOM     11  C   UNL     1       8.138   3.831  23.379  0.00  0.00    +0.015 C 
ATOM     12  C   UNL     1       7.790   2.216  25.922  0.00  0.00    +0.040 C 
ATOM     13  C   UNL     1       9.411   0.229  22.231  0.00  0.00    +0.196 C 
ATOM     14  O   UNL     1       9.865  -0.422  21.286  0.00  0.00    -0.289 OA
ATOM     15  C   UNL     1       8.396  -0.884  25.684  0.00  0.00    -0.011 C 
ENDROOT
BRANCH   8  16
ATOM     16  O   UNL     1      10.304   2.339  21.620  0.00  0.00    -0.380 OA
ATOM     17  H   UNL     1      10.175   2.470  20.669  0.00  0.00    +0.211 HD
ENDBRANCH   8  16
BRANCH  15  18
ATOM     18  C   UNL     1       8.022  -0.753  27.124  0.00  0.00    +0.192 C 
BRANCH  18  19
ATOM     19  O   UNL     1       9.139  -0.336  27.899  0.00  0.00    -0.390 OA
ATOM     20  H   UNL     1       9.538  -1.139  28.278  0.00  0.00    +0.210 HD
ENDBRANCH  18  19
ENDBRANCH  15  18
TORSDOF 3
ENDMDL
MODEL 5
REMARK VINA RESULT:      -5.8      1.682      3.369
REMARK  Name = 
REMARK  6 active torsions:
REMARK  status: ('A' for Active; 'I' for Inactive)
REMARK    1  A    between atoms: C_1  and  C_2
REMARK    2  A    between atoms: C_3  and  C_4
REMARK    3  A    between atoms: C_4  and  O_5
REMARK    4  A    between atoms: C_7  and  C_8
REMARK    5  A    between atoms: C_12  and  C_13
REMARK    6  A    between atoms: C_12  and  O_14
REMARK                            x       y       z     vdW  Elec       q    Type
REMARK                         _______ _______ _______ _____ _____    ______ ____
ROOT
ATOM      1  C   UNL     1       2.947  -7.486  25.665  0.00  0.00    +0.044 C 
ATOM      2  C   UNL     1       4.087  -6.571  25.373  0.00  0.00    -0.044 C 
ATOM      3  C   UNL     1       5.200  -6.503  26.302  0.00  0.00    +0.015 C 
ATOM      4  C   UNL     1       6.088  -5.608  25.851  0.00  0.00    +0.028 C 
ATOM      5  C   UNL     1       5.623  -5.084  24.585  0.00  0.00    -0.009 C 
ATOM      6  C   UNL     1       6.386  -4.204  23.892  0.00  0.00    -0.055 C 
ATOM      7  C   UNL     1       7.701  -3.646  24.460  0.00  0.00    +0.028 C 
ATOM      8  C   UNL     1       8.300  -4.333  25.733  0.00  0.00    +0.135 C 
ATOM      9  C   UNL     1       9.524  -5.206  25.393  0.00  0.00    +0.051 C 
ATOM     10  C   UNL     1       7.833  -2.118  24.326  0.00  0.00    +0.015 C 
ATOM     11  C   UNL     1       8.723  -2.999  23.517  0.00  0.00    +0.015 C 
ATOM     12  C   UNL     1       5.937  -3.686  22.538  0.00  0.00    +0.040 C 
ATOM     13  C   UNL     1       7.347  -5.251  26.508  0.00  0.00    +0.196 C 
ATOM     14  O   UNL     1       7.621  -5.734  27.610  0.00  0.00    -0.289 OA
ATOM     15  C   UNL     1       4.296  -5.704  24.346  0.00  0.00    -0.011 C 
ENDROOT
BRANCH   8  16
ATOM     16  O   UNL     1       8.706  -3.314  26.665  0.00  0.00    -0.380 OA
ATOM     17  H   UNL     1       8.449  -2.454  26.298  0.00  0.00    +0.211 HD
ENDBRANCH   8  16
BRANCH  15  18
ATOM     18  C   UNL     1       3.327  -5.419  23.245  0.00  0.00    +0.192 C 
BRANCH  18  19
ATOM     19  O   UNL     1       3.421  -6.405  22.224  0.00  0.00    -0.390 OA
ATOM     20  H   UNL     1       4.185  -6.169  21.670  0.00  0.00    +0.210 HD
ENDBRANCH  18  19
ENDBRANCH  15  18
TORSDOF 3
ENDMDL
MODEL 6
REMARK VINA RESULT:      -5.7      1.941      3.704
REMARK  Name = 
REMARK  6 active torsions:
REMARK  status: ('A' for Active; 'I' for Inactive)
REMARK    1  A    between atoms: C_1  and  C_2
REMARK    2  A    between atoms: C_3  and  C_4
REMARK    3  A    between atoms: C_4  and  O_5
REMARK    4  A    between atoms: C_7  and  C_8
REMARK    5  A    between atoms: C_12  and  C_13
REMARK    6  A    between atoms: C_12  and  O_14
REMARK                            x       y       z     vdW  Elec       q    Type
REMARK                         _______ _______ _______ _____ _____    ______ ____
ROOT
ATOM      1  C   UNL     1       9.543  -3.137  24.113  0.00  0.00    +0.044 C 
ATOM      2  C   UNL     1       8.290  -3.848  24.500  0.00  0.00    -0.044 C 
ATOM      3  C   UNL     1       8.164  -4.385  25.842  0.00  0.00    +0.015 C 
ATOM      4  C   UNL     1       6.977  -4.994  25.955  0.00  0.00    +0.028 C 
ATOM      5  C   UNL     1       6.253  -4.844  24.712  0.00  0.00    -0.009 C 
ATOM      6  C   UNL     1       4.990  -5.322  24.597  0.00  0.00    -0.055 C 
ATOM      7  C   UNL     1       4.323  -6.130  25.723  0.00  0.00    +0.028 C 
ATOM      8  C   UNL     1       5.018  -6.145  27.126  0.00  0.00    +0.135 C 
ATOM      9  C   UNL     1       4.273  -5.259  28.145  0.00  0.00    +0.051 C 
ATOM     10  C   UNL     1       3.638  -7.419  25.236  0.00  0.00    +0.015 C 
ATOM     11  C   UNL     1       2.798  -6.295  25.740  0.00  0.00    +0.015 C 
ATOM     12  C   UNL     1       4.198  -5.127  23.318  0.00  0.00    +0.040 C 
ATOM     13  C   UNL     1       6.473  -5.664  27.156  0.00  0.00    +0.196 C 
ATOM     14  O   UNL     1       7.198  -5.766  28.149  0.00  0.00    -0.289 OA
ATOM     15  C   UNL     1       7.171  -4.137  23.784  0.00  0.00    -0.011 C 
ENDROOT
BRANCH   8  16
ATOM     16  O   UNL     1       5.041  -7.496  27.621  0.00  0.00    -0.380 OA
ATOM     17  H   UNL     1       5.218  -7.462  28.573  0.00  0.00    +0.211 HD
ENDBRANCH   8  16
BRANCH  15  18
ATOM     18  C   UNL     1       6.970  -3.835  22.335  0.00  0.00    +0.192 C 
BRANCH  18  19
ATOM     19  O   UNL     1       7.145  -5.007  21.548  0.00  0.00    -0.390 OA
ATOM     20  H   UNL     1       7.309  -5.742  22.164  0.00  0.00    +0.210 HD
ENDBRANCH  18  19
ENDBRANCH  15  18
TORSDOF 3
ENDMDL
MODEL 7
REMARK VINA RESULT:      -5.7      2.383      4.867
REMARK  Name = 
REMARK  6 active torsions:
REMARK  status: ('A' for Active; 'I' for Inactive)
REMARK    1  A    between atoms: C_1  and  C_2
REMARK    2  A    between atoms: C_3  and  C_4
REMARK    3  A    between atoms: C_4  and  O_5
REMARK    4  A    between atoms: C_7  and  C_8
REMARK    5  A    between atoms: C_12  and  C_13
REMARK    6  A    between atoms: C_12  and  O_14
REMARK                            x       y       z     vdW  Elec       q    Type
REMARK                         _______ _______ _______ _____ _____    ______ ____
ROOT
ATOM      1  C   UNL     1      10.117  -0.285  24.836  0.00  0.00    +0.044 C 
ATOM      2  C   UNL     1       9.078  -1.334  24.630  0.00  0.00    -0.044 C 
ATOM      3  C   UNL     1       8.663  -2.153  25.755  0.00  0.00    +0.015 C 
ATOM      4  C   UNL     1       7.746  -3.034  25.334  0.00  0.00    +0.028 C 
ATOM      5  C   UNL     1       7.483  -2.803  23.930  0.00  0.00    -0.009 C 
ATOM      6  C   UNL     1       6.538  -3.530  23.286  0.00  0.00    -0.055 C 
ATOM      7  C   UNL     1       5.795  -4.687  23.975  0.00  0.00    +0.028 C 
ATOM      8  C   UNL     1       5.937  -4.829  25.527  0.00  0.00    +0.135 C 
ATOM      9  C   UNL     1       4.662  -4.375  26.265  0.00  0.00    +0.051 C 
ATOM     10  C   UNL     1       5.732  -5.971  23.128  0.00  0.00    +0.015 C 
ATOM     11  C   UNL     1       4.479  -5.205  23.382  0.00  0.00    +0.015 C 
ATOM     12  C   UNL     1       6.213  -3.264  21.828  0.00  0.00    +0.040 C 
ATOM     13  C   UNL     1       7.083  -4.038  26.169  0.00  0.00    +0.196 C 
ATOM     14  O   UNL     1       7.418  -4.171  27.349  0.00  0.00    -0.289 OA
ATOM     15  C   UNL     1       8.411  -1.723  23.511  0.00  0.00    -0.011 C 
ENDROOT
BRANCH   8  16
ATOM     16  O   UNL     1       6.187  -6.210  25.848  0.00  0.00    -0.380 OA
ATOM     17  H   UNL     1       6.530  -6.644  25.052  0.00  0.00    +0.211 HD
ENDBRANCH   8  16
BRANCH  15  18
ATOM     18  C   UNL     1       8.640  -1.183  22.137  0.00  0.00    +0.192 C 
BRANCH  18  19
ATOM     19  O   UNL     1       9.816  -1.741  21.566  0.00  0.00    -0.390 OA
ATOM     20  H   UNL     1       9.895  -2.649  21.907  0.00  0.00    +0.210 HD
ENDBRANCH  18  19
ENDBRANCH  15  18
TORSDOF 3
ENDMDL
MODEL 8
REMARK VINA RESULT:      -5.6      3.334      5.413
REMARK  Name = 
REMARK  6 active torsions:
REMARK  status: ('A' for Active; 'I' for Inactive)
REMARK    1  A    between atoms: C_1  and  C_2
REMARK    2  A    between atoms: C_3  and  C_4
REMARK    3  A    between atoms: C_4  and  O_5
REMARK    4  A    between atoms: C_7  and  C_8
REMARK    5  A    between atoms: C_12  and  C_13
REMARK    6  A    between atoms: C_12  and  O_14
REMARK                            x       y       z     vdW  Elec       q    Type
REMARK                         _______ _______ _______ _____ _____    ______ ____
ROOT
ATOM      1  C   UNL     1       9.715   0.853  21.655  0.00  0.00    +0.044 C 
ATOM      2  C   UNL     1       9.206  -0.200  22.580  0.00  0.00    -0.044 C 
ATOM      3  C   UNL     1       8.631  -1.413  22.028  0.00  0.00    +0.015 C 
ATOM      4  C   UNL     1       8.224  -2.197  23.034  0.00  0.00    +0.028 C 
ATOM      5  C   UNL     1       8.556  -1.559  24.290  0.00  0.00    -0.009 C 
ATOM      6  C   UNL     1       8.303  -2.189  25.462  0.00  0.00    -0.055 C 
ATOM      7  C   UNL     1       7.563  -3.537  25.516  0.00  0.00    +0.028 C 
ATOM      8  C   UNL     1       7.362  -4.316  24.173  0.00  0.00    +0.135 C 
ATOM      9  C   UNL     1       8.307  -5.530  24.066  0.00  0.00    +0.051 C 
ATOM     10  C   UNL     1       6.434  -3.579  26.560  0.00  0.00    +0.015 C 
ATOM     11  C   UNL     1       7.656  -4.405  26.776  0.00  0.00    +0.015 C 
ATOM     12  C   UNL     1       8.693  -1.556  26.784  0.00  0.00    +0.040 C 
ATOM     13  C   UNL     1       7.589  -3.508  22.890  0.00  0.00    +0.196 C 
ATOM     14  O   UNL     1       7.317  -3.937  21.765  0.00  0.00    -0.289 OA
ATOM     15  C   UNL     1       9.145  -0.242  23.938  0.00  0.00    -0.011 C 
ENDROOT
BRANCH   8  16
ATOM     16  O   UNL     1       6.003  -4.785  24.106  0.00  0.00    -0.380 OA
ATOM     17  H   UNL     1       5.593  -4.641  24.973  0.00  0.00    +0.211 HD
ENDBRANCH   8  16
BRANCH  15  18
ATOM     18  C   UNL     1       9.549   0.865  24.856  0.00  0.00    +0.192 C 
BRANCH  18  19
ATOM     19  O   UNL     1      10.913   0.733  25.235  0.00  0.00    -0.390 OA
ATOM     20  H   UNL     1      11.308   0.065  24.648  0.00  0.00    +0.210 HD
ENDBRANCH  18  19
ENDBRANCH  15  18
TORSDOF 3
ENDMDL
MODEL 9
REMARK VINA RESULT:      -5.6      4.694      6.837
REMARK  Name = 
REMARK  6 active torsions:
REMARK  status: ('A' for Active; 'I' for Inactive)
REMARK    1  A    between atoms: C_1  and  C_2
REMARK    2  A    between atoms: C_3  and  C_4
REMARK    3  A    between atoms: C_4  and  O_5
REMARK    4  A    between atoms: C_7  and  C_8
REMARK    5  A    between atoms: C_12  and  C_13
REMARK    6  A    between atoms: C_12  and  O_14
REMARK                            x       y       z     vdW  Elec       q    Type
REMARK                         _______ _______ _______ _____ _____    ______ ____
ROOT
ATOM      1  C   UNL     1      10.946   3.376  23.471  0.00  0.00    +0.044 C 
ATOM      2  C   UNL     1      10.112   2.163  23.707  0.00  0.00    -0.044 C 
ATOM      3  C   UNL     1      10.482   0.912  23.072  0.00  0.00    +0.015 C 
ATOM      4  C   UNL     1       9.586  -0.025  23.405  0.00  0.00    +0.028 C 
ATOM      5  C   UNL     1       8.616   0.553  24.310  0.00  0.00    -0.009 C 
ATOM      6  C   UNL     1       7.638  -0.218  24.844  0.00  0.00    -0.055 C 
ATOM      7  C   UNL     1       7.449  -1.688  24.434  0.00  0.00    +0.028 C 
ATOM      8  C   UNL     1       8.587  -2.370  23.604  0.00  0.00    +0.135 C 
ATOM      9  C   UNL     1       9.416  -3.348  24.461  0.00  0.00    +0.051 C 
ATOM     10  C   UNL     1       5.990  -2.056  24.110  0.00  0.00    +0.015 C 
ATOM     11  C   UNL     1       6.631  -2.627  25.329  0.00  0.00    +0.015 C 
ATOM     12  C   UNL     1       6.646   0.362  25.835  0.00  0.00    +0.040 C 
ATOM     13  C   UNL     1       9.609  -1.422  22.964  0.00  0.00    +0.196 C 
ATOM     14  O   UNL     1      10.464  -1.795  22.157  0.00  0.00    -0.289 OA
ATOM     15  C   UNL     1       8.974   1.989  24.432  0.00  0.00    -0.011 C 
ENDROOT
BRANCH   8  16
ATOM     16  O   UNL     1       7.996  -3.101  22.514  0.00  0.00    -0.380 OA
ATOM     17  H   UNL     1       7.390  -2.504  22.048  0.00  0.00    +0.211 HD
ENDBRANCH   8  16
BRANCH  15  18
ATOM     18  C   UNL     1       8.231   3.070  25.147  0.00  0.00    +0.192 C 
BRANCH  18  19
ATOM     19  O   UNL     1       7.258   3.661  24.294  0.00  0.00    -0.390 OA
ATOM     20  H   UNL     1       6.449   3.777  24.822  0.00  0.00    +0.210 HD
ENDBRANCH  18  19
ENDBRANCH  15  18
TORSDOF 3
ENDMDL
