MODEL 1
REMARK VINA RESULT:      -8.1      0.000      0.000
REMARK  Name = 
REMARK  6 active torsions:
REMARK  status: ('A' for Active; 'I' for Inactive)
REMARK    1  A    between atoms: O_1  and  C_2
REMARK    2  A    between atoms: C_2  and  O_3
REMARK    3  A    between atoms: C_2  and  C_4
REMARK    4  A    between atoms: C_2  and  C_26
REMARK    5  A    between atoms: C_7  and  C_9
REMARK    6  A    between atoms: C_19  and  C_20
REMARK                            x       y       z     vdW  Elec       q    Type
REMARK                         _______ _______ _______ _____ _____    ______ ____
ROOT
ATOM      1  C   UNL     1      10.095  -1.405  23.596  0.00  0.00    +0.254 C 
ATOM      2  N   UNL     1      10.094  -0.470  24.643  0.00  0.00    -0.288 N 
ATOM      3  C   UNL     1       9.049  -0.350  25.664  0.00  0.00    +0.182 C 
ATOM      4  C   UNL     1       8.357   0.974  25.549  0.00  0.00    +0.128 A 
ATOM      5  N   UNL     1       7.268   1.338  26.188  0.00  0.00    -0.238 NA
ATOM      6  C   UNL     1       6.998   2.607  25.748  0.00  0.00    +0.139 A 
ATOM      7  C   UNL     1       7.935   3.052  24.825  0.00  0.00    +0.069 A 
ATOM      8  N   UNL     1       8.819   1.992  24.746  0.00  0.00    -0.325 N 
ATOM      9  C   UNL     1      10.044   1.882  23.972  0.00  0.00    +0.142 C 
ATOM     10  C   UNL     1      10.911   0.733  24.485  0.00  0.00    +0.130 C 
ATOM     11  O   UNL     1      10.792  -1.184  22.602  0.00  0.00    -0.269 OA
ENDROOT
BRANCH   7  12
ATOM     12  C   UNL     1       7.983   4.328  24.101  0.00  0.00    +0.000 A 
ATOM     13  C   UNL     1       8.875   5.350  24.447  0.00  0.00    +0.010 A 
ATOM     14  C   UNL     1       8.925   6.543  23.717  0.00  0.00    +0.001 A 
ATOM     15  C   UNL     1       8.101   6.721  22.610  0.00  0.00    +0.000 A 
ATOM     16  C   UNL     1       7.222   5.710  22.238  0.00  0.00    +0.001 A 
ATOM     17  C   UNL     1       7.160   4.527  22.980  0.00  0.00    +0.010 A 
ENDBRANCH   7  12
BRANCH   1  20
ATOM     18  C   UNL     1       7.422  -4.230  23.277  0.00  0.00    +0.082 A 
ATOM     19  S   UNL     1       7.956  -2.759  22.581  0.00  0.00    -0.081 S 
ATOM     20  C   UNL     1       9.259  -2.603  23.686  0.00  0.00    +0.075 A 
ATOM     21  C   UNL     1       9.363  -3.724  24.485  0.00  0.00    +0.021 A 
ATOM     22  C   UNL     1       8.278  -4.628  24.290  0.00  0.00    +0.020 A 
BRANCH  18  23
ATOM     23  C   UNL     1       6.183  -4.945  22.762  0.00  0.00    +0.370 C 
BRANCH  23  24
ATOM     24  C   UNL     1       6.532  -6.045  21.683  0.00  0.00    +0.473 C 
ATOM     25  F   UNL     1       7.791  -5.931  21.196  0.00  0.00    -0.163 F 
ATOM     26  F   UNL     1       5.693  -6.018  20.620  0.00  0.00    -0.163 F 
ATOM     27  F   UNL     1       6.443  -7.286  22.234  0.00  0.00    -0.163 F 
ENDBRANCH  23  24
BRANCH  23  28
ATOM     28  O   UNL     1       5.576  -5.482  23.948  0.00  0.00    -0.495 OA
ATOM     29  H   UNL     1       4.814  -6.011  23.659  0.00  0.00    +0.288 HD
ENDBRANCH  23  28
BRANCH  23  30
ATOM     30  O   UNL     1       5.260  -3.981  22.242  0.00  0.00    -0.495 OA
ATOM     31  H   UNL     1       5.747  -3.148  22.129  0.00  0.00    +0.288 HD
ENDBRANCH  23  30
ENDBRANCH  18  23
ENDBRANCH   1  20
TORSDOF 6
ENDMDL
MODEL 2
REMARK VINA RESULT:      -7.8      1.313      1.639
REMARK  Name = 
REMARK  6 active torsions:
REMARK  status: ('A' for Active; 'I' for Inactive)
REMARK    1  A    between atoms: O_1  and  C_2
REMARK    2  A    between atoms: C_2  and  O_3
REMARK    3  A    between atoms: C_2  and  C_4
REMARK    4  A    between atoms: C_2  and  C_26
REMARK    5  A    between atoms: C_7  and  C_9
REMARK    6  A    between atoms: C_19  and  C_20
REMARK                            x       y       z     vdW  Elec       q    Type
REMARK                         _______ _______ _______ _____ _____    ______ ____
ROOT
ATOM      1  C   UNL     1       9.847  -1.805  23.566  0.00  0.00    +0.254 C 
ATOM      2  N   UNL     1       9.885  -0.906  24.643  0.00  0.00    -0.288 N 
ATOM      3  C   UNL     1       8.833  -0.754  25.652  0.00  0.00    +0.182 C 
ATOM      4  C   UNL     1       8.225   0.613  25.570  0.00  0.00    +0.128 A 
ATOM      5  N   UNL     1       7.150   1.024  26.203  0.00  0.00    -0.238 NA
ATOM      6  C   UNL     1       6.966   2.320  25.801  0.00  0.00    +0.139 A 
ATOM      7  C   UNL     1       7.945   2.735  24.908  0.00  0.00    +0.069 A 
ATOM      8  N   UNL     1       8.763   1.626  24.808  0.00  0.00    -0.325 N 
ATOM      9  C   UNL     1       9.992   1.465  24.049  0.00  0.00    +0.142 C 
ATOM     10  C   UNL     1      10.778   0.248  24.538  0.00  0.00    +0.130 C 
ATOM     11  O   UNL     1      10.573  -1.597  22.591  0.00  0.00    -0.269 OA
ENDROOT
BRANCH   7  12
ATOM     12  C   UNL     1       8.084   4.028  24.227  0.00  0.00    +0.000 A 
ATOM     13  C   UNL     1       9.016   4.991  24.635  0.00  0.00    +0.010 A 
ATOM     14  C   UNL     1       9.153   6.201  23.946  0.00  0.00    +0.001 A 
ATOM     15  C   UNL     1       8.378   6.455  22.819  0.00  0.00    +0.000 A 
ATOM     16  C   UNL     1       7.460   5.505  22.386  0.00  0.00    +0.001 A 
ATOM     17  C   UNL     1       7.311   4.304  23.087  0.00  0.00    +0.010 A 
ENDBRANCH   7  12
BRANCH   1  20
ATOM     18  C   UNL     1       7.035  -4.469  23.081  0.00  0.00    +0.082 A 
ATOM     19  S   UNL     1       7.698  -3.034  22.420  0.00  0.00    -0.081 S 
ATOM     20  C   UNL     1       8.937  -2.952  23.604  0.00  0.00    +0.075 A 
ATOM     21  C   UNL     1       8.924  -4.074  24.408  0.00  0.00    +0.021 A 
ATOM     22  C   UNL     1       7.802  -4.913  24.146  0.00  0.00    +0.020 A 
BRANCH  18  23
ATOM     23  C   UNL     1       5.791  -5.111  22.490  0.00  0.00    +0.370 C 
BRANCH  23  24
ATOM     24  C   UNL     1       4.649  -5.301  23.563  0.00  0.00    +0.473 C 
ATOM     25  F   UNL     1       4.569  -4.274  24.443  0.00  0.00    -0.163 F 
ATOM     26  F   UNL     1       4.800  -6.434  24.291  0.00  0.00    -0.163 F 
ATOM     27  F   UNL     1       3.437  -5.377  22.949  0.00  0.00    -0.163 F 
ENDBRANCH  23  24
BRANCH  23  28
ATOM     28  O   UNL     1       5.424  -4.229  21.417  0.00  0.00    -0.495 OA
ATOM     29  H   UNL     1       6.249  -3.961  20.978  0.00  0.00    +0.288 HD
ENDBRANCH  23  28
BRANCH  23  30
ATOM     30  O   UNL     1       6.144  -6.358  21.879  0.00  0.00    -0.495 OA
ATOM     31  H   UNL     1       7.111  -6.367  21.782  0.00  0.00    +0.288 HD
ENDBRANCH  23  30
ENDBRANCH  18  23
ENDBRANCH   1  20
TORSDOF 6
ENDMDL
MODEL 3
REMARK VINA RESULT:      -7.7      4.287      8.649
REMARK  Name = 
REMARK  6 active torsions:
REMARK  status: ('A' for Active; 'I' for Inactive)
REMARK    1  A    between atoms: O_1  and  C_2
REMARK    2  A    between atoms: C_2  and  O_3
REMARK    3  A    between atoms: C_2  and  C_4
REMARK    4  A    between atoms: C_2  and  C_26
REMARK    5  A    between atoms: C_7  and  C_9
REMARK    6  A    between atoms: C_19  and  C_20
REMARK                            x       y       z     vdW  Elec       q    Type
REMARK                         _______ _______ _______ _____ _____    ______ ____
ROOT
ATOM      1  C   UNL     1       8.343  -1.826  25.787  0.00  0.00    +0.254 C 
ATOM      2  N   UNL     1       8.448  -3.166  25.382  0.00  0.00    -0.288 N 
ATOM      3  C   UNL     1       8.723  -3.613  24.013  0.00  0.00    +0.182 C 
ATOM      4  C   UNL     1       7.552  -4.374  23.469  0.00  0.00    +0.128 A 
ATOM      5  N   UNL     1       7.392  -4.764  22.225  0.00  0.00    -0.238 NA
ATOM      6  C   UNL     1       6.175  -5.392  22.197  0.00  0.00    +0.139 A 
ATOM      7  C   UNL     1       5.564  -5.406  23.444  0.00  0.00    +0.069 A 
ATOM      8  N   UNL     1       6.492  -4.775  24.250  0.00  0.00    -0.325 N 
ATOM      9  C   UNL     1       6.439  -4.530  25.682  0.00  0.00    +0.142 C 
ATOM     10  C   UNL     1       7.826  -4.185  26.227  0.00  0.00    +0.130 C 
ATOM     11  O   UNL     1       7.752  -1.567  26.838  0.00  0.00    -0.269 OA
ENDROOT
BRANCH   7  12
ATOM     12  C   UNL     1       4.253  -5.947  23.823  0.00  0.00    +0.000 A 
ATOM     13  C   UNL     1       3.052  -5.354  23.414  0.00  0.00    +0.010 A 
ATOM     14  C   UNL     1       1.817  -5.911  23.760  0.00  0.00    +0.001 A 
ATOM     15  C   UNL     1       1.762  -7.089  24.498  0.00  0.00    +0.000 A 
ATOM     16  C   UNL     1       2.943  -7.705  24.898  0.00  0.00    +0.001 A 
ATOM     17  C   UNL     1       4.177  -7.136  24.568  0.00  0.00    +0.010 A 
ENDBRANCH   7  12
BRANCH   1  20
ATOM     18  C   UNL     1       9.137   0.992  23.206  0.00  0.00    +0.082 A 
ATOM     19  S   UNL     1       7.876   0.014  23.829  0.00  0.00    -0.081 S 
ATOM     20  C   UNL     1       8.911  -0.764  24.954  0.00  0.00    +0.075 A 
ATOM     21  C   UNL     1      10.166  -0.191  24.946  0.00  0.00    +0.021 A 
ATOM     22  C   UNL     1      10.312   0.775  23.906  0.00  0.00    +0.020 A 
BRANCH  18  23
ATOM     23  C   UNL     1       8.894   1.962  22.061  0.00  0.00    +0.370 C 
BRANCH  23  24
ATOM     24  C   UNL     1       7.738   2.988  22.381  0.00  0.00    +0.473 C 
ATOM     25  F   UNL     1       6.516   2.551  21.993  0.00  0.00    -0.163 F 
ATOM     26  F   UNL     1       7.933   4.193  21.793  0.00  0.00    -0.163 F 
ATOM     27  F   UNL     1       7.661   3.204  23.723  0.00  0.00    -0.163 F 
ENDBRANCH  23  24
BRANCH  23  28
ATOM     28  O   UNL     1      10.173   2.586  21.861  0.00  0.00    -0.495 OA
ATOM     29  H   UNL     1      10.039   3.299  21.214  0.00  0.00    +0.288 HD
ENDBRANCH  23  28
BRANCH  23  30
ATOM     30  O   UNL     1       8.618   1.223  20.865  0.00  0.00    -0.495 OA
ATOM     31  H   UNL     1       7.653   1.139  20.795  0.00  0.00    +0.288 HD
ENDBRANCH  23  30
ENDBRANCH  18  23
ENDBRANCH   1  20
TORSDOF 6
ENDMDL
MODEL 4
REMARK VINA RESULT:      -7.3      4.939      8.480
REMARK  Name = 
REMARK  6 active torsions:
REMARK  status: ('A' for Active; 'I' for Inactive)
REMARK    1  A    between atoms: O_1  and  C_2
REMARK    2  A    between atoms: C_2  and  O_3
REMARK    3  A    between atoms: C_2  and  C_4
REMARK    4  A    between atoms: C_2  and  C_26
REMARK    5  A    between atoms: C_7  and  C_9
REMARK    6  A    between atoms: C_19  and  C_20
REMARK                            x       y       z     vdW  Elec       q    Type
REMARK                         _______ _______ _______ _____ _____    ______ ____
ROOT
ATOM      1  C   UNL     1       9.170  -2.840  23.467  0.00  0.00    +0.254 C 
ATOM      2  N   UNL     1       8.030  -3.642  23.304  0.00  0.00    -0.288 N 
ATOM      3  C   UNL     1       6.691  -3.145  22.975  0.00  0.00    +0.182 C 
ATOM      4  C   UNL     1       5.742  -3.418  24.102  0.00  0.00    +0.128 A 
ATOM      5  N   UNL     1       4.516  -2.958  24.214  0.00  0.00    -0.238 NA
ATOM      6  C   UNL     1       4.054  -3.447  25.407  0.00  0.00    +0.139 A 
ATOM      7  C   UNL     1       4.998  -4.233  26.052  0.00  0.00    +0.069 A 
ATOM      8  N   UNL     1       6.062  -4.227  25.169  0.00  0.00    -0.325 N 
ATOM      9  C   UNL     1       7.335  -4.919  25.272  0.00  0.00    +0.142 C 
ATOM     10  C   UNL     1       8.037  -4.971  23.915  0.00  0.00    +0.130 C 
ATOM     11  O   UNL     1      10.130  -3.291  24.097  0.00  0.00    -0.269 OA
ENDROOT
BRANCH   7  12
ATOM     12  C   UNL     1       4.904  -4.906  27.354  0.00  0.00    +0.000 A 
ATOM     13  C   UNL     1       4.898  -4.199  28.562  0.00  0.00    +0.010 A 
ATOM     14  C   UNL     1       4.771  -4.862  29.787  0.00  0.00    +0.001 A 
ATOM     15  C   UNL     1       4.621  -6.244  29.821  0.00  0.00    +0.000 A 
ATOM     16  C   UNL     1       4.605  -6.964  28.631  0.00  0.00    +0.001 A 
ATOM     17  C   UNL     1       4.751  -6.302  27.409  0.00  0.00    +0.010 A 
ENDBRANCH   7  12
BRANCH   1  20
ATOM     18  C   UNL     1       8.894   0.975  22.689  0.00  0.00    +0.082 A 
ATOM     19  S   UNL     1       8.702  -0.193  23.927  0.00  0.00    -0.081 S 
ATOM     20  C   UNL     1       9.196  -1.485  22.913  0.00  0.00    +0.075 A 
ATOM     21  C   UNL     1       9.628  -1.013  21.690  0.00  0.00    +0.021 A 
ATOM     22  C   UNL     1       9.401   0.387  21.541  0.00  0.00    +0.020 A 
BRANCH  18  23
ATOM     23  C   UNL     1       8.557   2.438  22.922  0.00  0.00    +0.370 C 
BRANCH  23  24
ATOM     24  C   UNL     1       9.538   3.120  23.954  0.00  0.00    +0.473 C 
ATOM     25  F   UNL     1       9.777   4.425  23.679  0.00  0.00    -0.163 F 
ATOM     26  F   UNL     1      10.743   2.502  24.017  0.00  0.00    -0.163 F 
ATOM     27  F   UNL     1       9.002   3.082  25.205  0.00  0.00    -0.163 F 
ENDBRANCH  23  24
BRANCH  23  28
ATOM     28  O   UNL     1       8.616   3.019  21.609  0.00  0.00    -0.495 OA
ATOM     29  H   UNL     1       8.012   2.506  21.047  0.00  0.00    +0.288 HD
ENDBRANCH  23  28
BRANCH  23  30
ATOM     30  O   UNL     1       7.194   2.550  23.347  0.00  0.00    -0.495 OA
ATOM     31  H   UNL     1       7.204   2.842  24.274  0.00  0.00    +0.288 HD
ENDBRANCH  23  30
ENDBRANCH  18  23
ENDBRANCH   1  20
TORSDOF 6
ENDMDL
MODEL 5
REMARK VINA RESULT:      -7.2      2.429      3.149
REMARK  Name = 
REMARK  6 active torsions:
REMARK  status: ('A' for Active; 'I' for Inactive)
REMARK    1  A    between atoms: O_1  and  C_2
REMARK    2  A    between atoms: C_2  and  O_3
REMARK    3  A    between atoms: C_2  and  C_4
REMARK    4  A    between atoms: C_2  and  C_26
REMARK    5  A    between atoms: C_7  and  C_9
REMARK    6  A    between atoms: C_19  and  C_20
REMARK                            x       y       z     vdW  Elec       q    Type
REMARK                         _______ _______ _______ _____ _____    ______ ____
ROOT
ATOM      1  C   UNL     1       7.750  -1.702  25.607  0.00  0.00    +0.254 C 
ATOM      2  N   UNL     1       7.105  -0.480  25.356  0.00  0.00    -0.288 N 
ATOM      3  C   UNL     1       6.435  -0.123  24.102  0.00  0.00    +0.182 C 
ATOM      4  C   UNL     1       7.136   1.027  23.445  0.00  0.00    +0.128 A 
ATOM      5  N   UNL     1       6.908   1.485  22.235  0.00  0.00    -0.238 NA
ATOM      6  C   UNL     1       7.797   2.513  22.065  0.00  0.00    +0.139 A 
ATOM      7  C   UNL     1       8.590   2.711  23.187  0.00  0.00    +0.069 A 
ATOM      8  N   UNL     1       8.115   1.763  24.073  0.00  0.00    -0.325 N 
ATOM      9  C   UNL     1       8.523   1.511  25.445  0.00  0.00    +0.142 C 
ATOM     10  C   UNL     1       7.478   0.670  26.179  0.00  0.00    +0.130 C 
ATOM     11  O   UNL     1       8.584  -1.759  26.514  0.00  0.00    -0.269 OA
ENDROOT
BRANCH   7  12
ATOM     12  C   UNL     1       9.674   3.681  23.392  0.00  0.00    +0.000 A 
ATOM     13  C   UNL     1      11.019   3.351  23.193  0.00  0.00    +0.010 A 
ATOM     14  C   UNL     1      12.030   4.304  23.360  0.00  0.00    +0.001 A 
ATOM     15  C   UNL     1      11.706   5.612  23.703  0.00  0.00    +0.000 A 
ATOM     16  C   UNL     1      10.374   5.966  23.888  0.00  0.00    +0.001 A 
ATOM     17  C   UNL     1       9.367   5.008  23.738  0.00  0.00    +0.010 A 
ENDBRANCH   7  12
BRANCH   1  20
ATOM     18  C   UNL     1       6.215  -4.782  23.766  0.00  0.00    +0.082 A 
ATOM     19  S   UNL     1       5.837  -3.473  24.803  0.00  0.00    -0.081 S 
ATOM     20  C   UNL     1       7.444  -2.872  24.782  0.00  0.00    +0.075 A 
ATOM     21  C   UNL     1       8.223  -3.582  23.891  0.00  0.00    +0.021 A 
ATOM     22  C   UNL     1       7.535  -4.710  23.353  0.00  0.00    +0.020 A 
BRANCH  18  23
ATOM     23  C   UNL     1       5.168  -5.814  23.381  0.00  0.00    +0.370 C 
BRANCH  23  24
ATOM     24  C   UNL     1       4.537  -6.525  24.641  0.00  0.00    +0.473 C 
ATOM     25  F   UNL     1       3.532  -5.814  25.206  0.00  0.00    -0.163 F 
ATOM     26  F   UNL     1       5.448  -6.764  25.616  0.00  0.00    -0.163 F 
ATOM     27  F   UNL     1       4.007  -7.726  24.285  0.00  0.00    -0.163 F 
ENDBRANCH  23  24
BRANCH  23  28
ATOM     28  O   UNL     1       4.214  -5.066  22.610  0.00  0.00    -0.495 OA
ATOM     29  H   UNL     1       4.720  -4.435  22.071  0.00  0.00    +0.288 HD
ENDBRANCH  23  28
BRANCH  23  30
ATOM     30  O   UNL     1       5.749  -6.767  22.482  0.00  0.00    -0.495 OA
ATOM     31  H   UNL     1       5.257  -6.710  21.646  0.00  0.00    +0.288 HD
ENDBRANCH  23  30
ENDBRANCH  18  23
ENDBRANCH   1  20
TORSDOF 6
ENDMDL
MODEL 6
REMARK VINA RESULT:      -7.2      2.974      4.018
REMARK  Name = 
REMARK  6 active torsions:
REMARK  status: ('A' for Active; 'I' for Inactive)
REMARK    1  A    between atoms: O_1  and  C_2
REMARK    2  A    between atoms: C_2  and  O_3
REMARK    3  A    between atoms: C_2  and  C_4
REMARK    4  A    between atoms: C_2  and  C_26
REMARK    5  A    between atoms: C_7  and  C_9
REMARK    6  A    between atoms: C_19  and  C_20
REMARK                            x       y       z     vdW  Elec       q    Type
REMARK                         _______ _______ _______ _____ _____    ______ ____
ROOT
ATOM      1  C   UNL     1       6.547   0.141  26.891  0.00  0.00    +0.254 C 
ATOM      2  N   UNL     1       6.322   0.870  25.713  0.00  0.00    -0.288 N 
ATOM      3  C   UNL     1       6.515   0.355  24.354  0.00  0.00    +0.182 C 
ATOM      4  C   UNL     1       7.611   1.109  23.662  0.00  0.00    +0.128 A 
ATOM      5  N   UNL     1       8.157   0.798  22.508  0.00  0.00    -0.238 NA
ATOM      6  C   UNL     1       9.121   1.748  22.297  0.00  0.00    +0.139 A 
ATOM      7  C   UNL     1       9.177   2.676  23.328  0.00  0.00    +0.069 A 
ATOM      8  N   UNL     1       8.167   2.259  24.175  0.00  0.00    -0.325 N 
ATOM      9  C   UNL     1       7.707   2.864  25.413  0.00  0.00    +0.142 C 
ATOM     10  C   UNL     1       6.328   2.330  25.802  0.00  0.00    +0.130 C 
ATOM     11  O   UNL     1       6.721   0.755  27.947  0.00  0.00    -0.269 OA
ENDROOT
BRANCH   7  12
ATOM     12  C   UNL     1      10.084   3.818  23.494  0.00  0.00    +0.000 A 
ATOM     13  C   UNL     1       9.646   5.055  23.982  0.00  0.00    +0.010 A 
ATOM     14  C   UNL     1      10.539   6.117  24.164  0.00  0.00    +0.001 A 
ATOM     15  C   UNL     1      11.891   5.949  23.886  0.00  0.00    +0.000 A 
ATOM     16  C   UNL     1      12.350   4.722  23.418  0.00  0.00    +0.001 A 
ATOM     17  C   UNL     1      11.454   3.668  23.219  0.00  0.00    +0.010 A 
ENDBRANCH   7  12
BRANCH   1  20
ATOM     18  C   UNL     1       7.441  -3.644  26.561  0.00  0.00    +0.082 A 
ATOM     19  S   UNL     1       8.113  -2.068  26.565  0.00  0.00    -0.081 S 
ATOM     20  C   UNL     1       6.594  -1.322  26.847  0.00  0.00    +0.075 A 
ATOM     21  C   UNL     1       5.615  -2.269  27.068  0.00  0.00    +0.021 A 
ATOM     22  C   UNL     1       6.087  -3.596  26.847  0.00  0.00    +0.020 A 
BRANCH  18  23
ATOM     23  C   UNL     1       8.301  -4.870  26.302  0.00  0.00    +0.370 C 
BRANCH  23  24
ATOM     24  C   UNL     1       8.526  -5.127  24.760  0.00  0.00    +0.473 C 
ATOM     25  F   UNL     1       9.329  -6.189  24.509  0.00  0.00    -0.163 F 
ATOM     26  F   UNL     1       9.073  -4.060  24.127  0.00  0.00    -0.163 F 
ATOM     27  F   UNL     1       7.339  -5.390  24.150  0.00  0.00    -0.163 F 
ENDBRANCH  23  24
BRANCH  23  28
ATOM     28  O   UNL     1       9.516  -4.598  27.019  0.00  0.00    -0.495 OA
ATOM     29  H   UNL     1      10.250  -4.781  26.408  0.00  0.00    +0.288 HD
ENDBRANCH  23  28
BRANCH  23  30
ATOM     30  O   UNL     1       7.708  -6.009  26.937  0.00  0.00    -0.495 OA
ATOM     31  H   UNL     1       6.989  -6.318  26.362  0.00  0.00    +0.288 HD
ENDBRANCH  23  30
ENDBRANCH  18  23
ENDBRANCH   1  20
TORSDOF 6
ENDMDL
MODEL 7
REMARK VINA RESULT:      -7.2      2.147      2.791
REMARK  Name = 
REMARK  6 active torsions:
REMARK  status: ('A' for Active; 'I' for Inactive)
REMARK    1  A    between atoms: O_1  and  C_2
REMARK    2  A    between atoms: C_2  and  O_3
REMARK    3  A    between atoms: C_2  and  C_4
REMARK    4  A    between atoms: C_2  and  C_26
REMARK    5  A    between atoms: C_7  and  C_9
REMARK    6  A    between atoms: C_19  and  C_20
REMARK                            x       y       z     vdW  Elec       q    Type
REMARK                         _______ _______ _______ _____ _____    ______ ____
ROOT
ATOM      1  C   UNL     1       8.800  -2.337  24.159  0.00  0.00    +0.254 C 
ATOM      2  N   UNL     1       8.404  -1.270  24.982  0.00  0.00    -0.288 N 
ATOM      3  C   UNL     1       7.136  -0.545  24.869  0.00  0.00    +0.182 C 
ATOM      4  C   UNL     1       7.384   0.884  24.495  0.00  0.00    +0.128 A 
ATOM      5  N   UNL     1       6.473   1.764  24.144  0.00  0.00    -0.238 NA
ATOM      6  C   UNL     1       7.166   2.913  23.871  0.00  0.00    +0.139 A 
ATOM      7  C   UNL     1       8.533   2.758  24.059  0.00  0.00    +0.069 A 
ATOM      8  N   UNL     1       8.638   1.451  24.497  0.00  0.00    -0.325 N 
ATOM      9  C   UNL     1       9.826   0.719  24.905  0.00  0.00    +0.142 C 
ATOM     10  C   UNL     1       9.448  -0.534  25.695  0.00  0.00    +0.130 C 
ATOM     11  O   UNL     1       9.999  -2.618  24.085  0.00  0.00    -0.269 OA
ENDROOT
BRANCH   7  12
ATOM     12  C   UNL     1       9.610   3.731  23.844  0.00  0.00    +0.000 A 
ATOM     13  C   UNL     1       9.446   5.097  24.103  0.00  0.00    +0.010 A 
ATOM     14  C   UNL     1      10.501   5.999  23.925  0.00  0.00    +0.001 A 
ATOM     15  C   UNL     1      11.748   5.542  23.509  0.00  0.00    +0.000 A 
ATOM     16  C   UNL     1      11.938   4.187  23.265  0.00  0.00    +0.001 A 
ATOM     17  C   UNL     1      10.877   3.290  23.426  0.00  0.00    +0.010 A 
ENDBRANCH   7  12
BRANCH   1  20
ATOM     18  C   UNL     1       6.064  -4.753  22.777  0.00  0.00    +0.082 A 
ATOM     19  S   UNL     1       6.911  -4.304  24.196  0.00  0.00    -0.081 S 
ATOM     20  C   UNL     1       7.798  -3.077  23.390  0.00  0.00    +0.075 A 
ATOM     21  C   UNL     1       7.358  -2.925  22.091  0.00  0.00    +0.021 A 
ATOM     22  C   UNL     1       6.407  -3.922  21.723  0.00  0.00    +0.020 A 
BRANCH  18  23
ATOM     23  C   UNL     1       5.069  -5.901  22.779  0.00  0.00    +0.370 C 
BRANCH  23  24
ATOM     24  C   UNL     1       3.675  -5.483  23.392  0.00  0.00    +0.473 C 
ATOM     25  F   UNL     1       3.525  -5.867  24.683  0.00  0.00    -0.163 F 
ATOM     26  F   UNL     1       2.627  -5.995  22.703  0.00  0.00    -0.163 F 
ATOM     27  F   UNL     1       3.543  -4.129  23.375  0.00  0.00    -0.163 F 
ENDBRANCH  23  24
BRANCH  23  28
ATOM     28  O   UNL     1       4.991  -6.293  21.399  0.00  0.00    -0.495 OA
ATOM     29  H   UNL     1       4.097  -6.066  21.092  0.00  0.00    +0.288 HD
ENDBRANCH  23  28
BRANCH  23  30
ATOM     30  O   UNL     1       5.632  -7.017  23.480  0.00  0.00    -0.495 OA
ATOM     31  H   UNL     1       6.553  -6.789  23.690  0.00  0.00    +0.288 HD
ENDBRANCH  23  30
ENDBRANCH  18  23
ENDBRANCH   1  20
TORSDOF 6
ENDMDL
MODEL 8
REMARK VINA RESULT:      -7.1      5.047      8.824
REMARK  Name = 
REMARK  6 active torsions:
REMARK  status: ('A' for Active; 'I' for Inactive)
REMARK    1  A    between atoms: O_1  and  C_2
REMARK    2  A    between atoms: C_2  and  O_3
REMARK    3  A    between atoms: C_2  and  C_4
REMARK    4  A    between atoms: C_2  and  C_26
REMARK    5  A    between atoms: C_7  and  C_9
REMARK    6  A    between atoms: C_19  and  C_20
REMARK                            x       y       z     vdW  Elec       q    Type
REMARK                         _______ _______ _______ _____ _____    ______ ____
ROOT
ATOM      1  C   UNL     1       9.645  -0.822  24.114  0.00  0.00    +0.254 C 
ATOM      2  N   UNL     1       9.245  -1.991  23.448  0.00  0.00    -0.288 N 
ATOM      3  C   UNL     1       8.291  -2.043  22.336  0.00  0.00    +0.182 C 
ATOM      4  C   UNL     1       7.066  -2.809  22.736  0.00  0.00    +0.128 A 
ATOM      5  N   UNL     1       5.950  -2.899  22.048  0.00  0.00    -0.238 NA
ATOM      6  C   UNL     1       5.117  -3.672  22.814  0.00  0.00    +0.139 A 
ATOM      7  C   UNL     1       5.719  -4.080  23.996  0.00  0.00    +0.069 A 
ATOM      8  N   UNL     1       6.988  -3.539  23.900  0.00  0.00    -0.325 N 
ATOM      9  C   UNL     1       8.104  -3.664  24.821  0.00  0.00    +0.142 C 
ATOM     10  C   UNL     1       9.416  -3.266  24.144  0.00  0.00    +0.130 C 
ATOM     11  O   UNL     1      10.135  -0.918  25.242  0.00  0.00    -0.269 OA
ENDROOT
BRANCH   7  12
ATOM     12  C   UNL     1       5.157  -4.882  25.089  0.00  0.00    +0.000 A 
ATOM     13  C   UNL     1       4.754  -4.313  26.304  0.00  0.00    +0.010 A 
ATOM     14  C   UNL     1       4.188  -5.095  27.316  0.00  0.00    +0.001 A 
ATOM     15  C   UNL     1       3.989  -6.457  27.118  0.00  0.00    +0.000 A 
ATOM     16  C   UNL     1       4.364  -7.039  25.912  0.00  0.00    +0.001 A 
ATOM     17  C   UNL     1       4.947  -6.260  24.909  0.00  0.00    +0.010 A 
ENDBRANCH   7  12
BRANCH   1  20
ATOM     18  C   UNL     1       8.828   2.866  23.132  0.00  0.00    +0.082 A 
ATOM     19  S   UNL     1       8.888   1.776  24.452  0.00  0.00    -0.081 S 
ATOM     20  C   UNL     1       9.454   0.483  23.478  0.00  0.00    +0.075 A 
ATOM     21  C   UNL     1       9.720   0.914  22.194  0.00  0.00    +0.021 A 
ATOM     22  C   UNL     1       9.307   2.262  21.981  0.00  0.00    +0.020 A 
BRANCH  18  23
ATOM     23  C   UNL     1       8.331   4.292  23.304  0.00  0.00    +0.370 C 
BRANCH  23  24
ATOM     24  C   UNL     1       9.470   5.265  23.803  0.00  0.00    +0.473 C 
ATOM     25  F   UNL     1       9.316   5.646  25.094  0.00  0.00    -0.163 F 
ATOM     26  F   UNL     1       9.549   6.398  23.064  0.00  0.00    -0.163 F 
ATOM     27  F   UNL     1      10.681   4.649  23.725  0.00  0.00    -0.163 F 
ENDBRANCH  23  24
BRANCH  23  28
ATOM     28  O   UNL     1       7.813   4.636  22.009  0.00  0.00    -0.495 OA
ATOM     29  H   UNL     1       8.271   5.445  21.729  0.00  0.00    +0.288 HD
ENDBRANCH  23  28
BRANCH  23  30
ATOM     30  O   UNL     1       7.211   4.299  24.198  0.00  0.00    -0.495 OA
ATOM     31  H   UNL     1       7.447   3.744  24.960  0.00  0.00    +0.288 HD
ENDBRANCH  23  30
ENDBRANCH  18  23
ENDBRANCH   1  20
TORSDOF 6
ENDMDL
MODEL 9
REMARK VINA RESULT:      -7.0      4.663      8.969
REMARK  Name = 
REMARK  6 active torsions:
REMARK  status: ('A' for Active; 'I' for Inactive)
REMARK    1  A    between atoms: O_1  and  C_2
REMARK    2  A    between atoms: C_2  and  O_3
REMARK    3  A    between atoms: C_2  and  C_4
REMARK    4  A    between atoms: C_2  and  C_26
REMARK    5  A    between atoms: C_7  and  C_9
REMARK    6  A    between atoms: C_19  and  C_20
REMARK                            x       y       z     vdW  Elec       q    Type
REMARK                         _______ _______ _______ _____ _____    ______ ____
ROOT
ATOM      1  C   UNL     1       8.375  -2.791  25.468  0.00  0.00    +0.254 C 
ATOM      2  N   UNL     1       8.226  -4.138  25.105  0.00  0.00    -0.288 N 
ATOM      3  C   UNL     1       8.228  -4.646  23.731  0.00  0.00    +0.182 C 
ATOM      4  C   UNL     1       6.893  -5.236  23.391  0.00  0.00    +0.128 A 
ATOM      5  N   UNL     1       6.496  -5.621  22.199  0.00  0.00    -0.238 NA
ATOM      6  C   UNL     1       5.211  -6.064  22.372  0.00  0.00    +0.139 A 
ATOM      7  C   UNL     1       4.796  -5.964  23.692  0.00  0.00    +0.069 A 
ATOM      8  N   UNL     1       5.915  -5.463  24.332  0.00  0.00    -0.325 N 
ATOM      9  C   UNL     1       6.110  -5.186  25.745  0.00  0.00    +0.142 C 
ATOM     10  C   UNL     1       7.596  -5.039  26.071  0.00  0.00    +0.130 C 
ATOM     11  O   UNL     1       7.989  -2.428  26.582  0.00  0.00    -0.269 OA
ENDROOT
BRANCH   7  12
ATOM     12  C   UNL     1       3.492  -6.300  24.278  0.00  0.00    +0.000 A 
ATOM     13  C   UNL     1       3.267  -7.501  24.961  0.00  0.00    +0.010 A 
ATOM     14  C   UNL     1       2.024  -7.780  25.540  0.00  0.00    +0.001 A 
ATOM     15  C   UNL     1       0.994  -6.848  25.470  0.00  0.00    +0.000 A 
ATOM     16  C   UNL     1       1.204  -5.640  24.812  0.00  0.00    +0.001 A 
ATOM     17  C   UNL     1       2.439  -5.371  24.217  0.00  0.00    +0.010 A 
ENDBRANCH   7  12
BRANCH   1  20
ATOM     18  C   UNL     1       9.410   0.263  23.269  0.00  0.00    +0.082 A 
ATOM     19  S   UNL     1       8.464  -0.200  24.619  0.00  0.00    -0.081 S 
ATOM     20  C   UNL     1       8.959  -1.839  24.520  0.00  0.00    +0.075 A 
ATOM     21  C   UNL     1       9.934  -2.001  23.557  0.00  0.00    +0.021 A 
ATOM     22  C   UNL     1      10.150  -0.811  22.802  0.00  0.00    +0.020 A 
BRANCH  18  23
ATOM     23  C   UNL     1       9.399   1.690  22.747  0.00  0.00    +0.370 C 
BRANCH  23  24
ATOM     24  C   UNL     1      10.409   2.620  23.527  0.00  0.00    +0.473 C 
ATOM     25  F   UNL     1       9.792   3.515  24.335  0.00  0.00    -0.163 F 
ATOM     26  F   UNL     1      11.214   3.327  22.697  0.00  0.00    -0.163 F 
ATOM     27  F   UNL     1      11.214   1.870  24.326  0.00  0.00    -0.163 F 
ENDBRANCH  23  24
BRANCH  23  28
ATOM     28  O   UNL     1       9.713   1.550  21.352  0.00  0.00    -0.495 OA
ATOM     29  H   UNL     1       8.869   1.431  20.884  0.00  0.00    +0.288 HD
ENDBRANCH  23  28
BRANCH  23  30
ATOM     30  O   UNL     1       8.064   2.207  22.805  0.00  0.00    -0.495 OA
ATOM     31  H   UNL     1       7.460   1.465  22.634  0.00  0.00    +0.288 HD
ENDBRANCH  23  30
ENDBRANCH  18  23
ENDBRANCH   1  20
TORSDOF 6
ENDMDL
