MODEL 1
REMARK VINA RESULT:      -5.6      0.000      0.000
REMARK  Name = 
REMARK  12 active torsions:
REMARK  status: ('A' for Active; 'I' for Inactive)
REMARK    1  A    between atoms: C_1  and  C_2
REMARK    2  A    between atoms: C_2  and  N_4
REMARK    3  A    between atoms: C_2  and  P_24
REMARK    4  A    between atoms: C_5  and  C_7
REMARK    5  A    between atoms: C_7  and  C_8
REMARK    6  A    between atoms: C_8  and  C_9
REMARK    7  A    between atoms: C_9  and  C_10
REMARK    8  A    between atoms: C_10  and  C_11
REMARK    9  A    between atoms: C_11  and  N_13
REMARK   10  A    between atoms: C_11  and  C_21
REMARK   11  A    between atoms: C_14  and  CA_16
REMARK   12  A    between atoms: CA_16  and  N_17
REMARK                            x       y       z     vdW  Elec       q    Type
REMARK                         _______ _______ _______ _____ _____    ______ ____
ROOT
ATOM      1  C   UNK A   2       9.403  -0.500  25.229  0.00  0.00    +0.028 C 
ENDROOT
BRANCH   1   2
ATOM      2  C   UNK A   2       8.642  -0.986  26.458  0.00  0.00    +0.003 C 
BRANCH   2   3
ATOM      3  C   UNK A   2       7.558  -2.009  26.088  0.00  0.00    +0.009 C 
BRANCH   3   4
ATOM      4  C   UNK A   2       7.888  -3.365  26.703  0.00  0.00    +0.096 C 
BRANCH   4   7
ATOM      5  N   UNK A   2       7.118  -4.360  24.608  0.00  0.00    -0.307 N 
ATOM      6  H   UNK A   2       6.609  -3.509  24.388  0.00  0.00    +0.149 HD
ATOM      7  C   UNK A   2       7.484  -4.596  25.909  0.00  0.00    +0.214 C 
ATOM      8  O   UNK A   2       7.674  -5.721  26.372  0.00  0.00    -0.276 OA
BRANCH   5  10
ATOM      9  C   UNK A   2       7.129  -5.032  22.262  0.00  0.00    +0.034 C 
ATOM     10  C   UNK A   2       6.779  -5.442  23.687  0.00  0.00    +0.115 C 
BRANCH  10  11
ATOM     11  P   UNK A   2       4.910  -5.708  23.795  0.00  0.00    +0.023 P 
ATOM     12  H   UNK A   2       4.556  -4.865  24.872  0.00  0.00    +0.085 HD
ATOM     13  O   UNK A   2       4.314  -5.230  22.483  0.00  0.00    -0.338 OA
ATOM     14  O   UNK A   2       4.766  -7.189  24.134  0.00  0.00    -0.803 OA
ENDBRANCH  10  11
ENDBRANCH   5  10
ENDBRANCH   4   7
ENDBRANCH   3   4
ENDBRANCH   2   3
ENDBRANCH   1   2
BRANCH   1  15
ATOM     15  C   UNK A   2       8.979  -1.180  23.923  0.00  0.00    +0.119 C 
BRANCH  15  16
ATOM     16  N   UNK A   2       8.859  -0.158  22.855  0.00  0.00    -0.303 N 
ATOM     17  H   UNK A   2       9.597  -0.347  22.166  0.00  0.00    +0.150 HD
ATOM     18  C   GLY A   1       7.840   0.720  22.639  0.00  0.00    +0.259 C 
ATOM     19  O   GLY A   1       6.795   0.783  23.267  0.00  0.00    -0.270 OA
BRANCH  18  20
ATOM     20  CA  GLY A   1       8.217   1.759  21.595  0.00  0.00    +0.225 C 
BRANCH  20  21
ATOM     21  N   GLY A   1       9.701   1.940  21.574  0.00  0.00    +0.225 N 
ATOM     22  H1  GLY A   1      10.213   1.112  21.262  0.00  0.00    +0.200 HD
ATOM     23  H2  GLY A   1      10.033   2.222  22.512  0.00  0.00    +0.200 HD
ATOM     24  H3  GLY A   1       9.937   2.738  20.962  0.00  0.00    +0.200 HD
ENDBRANCH  20  21
ENDBRANCH  18  20
ENDBRANCH  15  16
BRANCH  15  25
ATOM     25  C   UNK A   2      10.042  -2.226  23.408  0.00  0.00    +0.062 C 
ATOM     26  O   UNK A   2      10.640  -1.799  22.357  0.00  0.00    -0.548 OA
ATOM     27  O   UNK A   2      10.112  -3.329  23.997  0.00  0.00    -0.548 OA
ENDBRANCH  15  25
ENDBRANCH   1  15
TORSDOF 11
ENDMDL
MODEL 2
REMARK VINA RESULT:      -5.4      2.462      4.510
REMARK  Name = 
REMARK  12 active torsions:
REMARK  status: ('A' for Active; 'I' for Inactive)
REMARK    1  A    between atoms: C_1  and  C_2
REMARK    2  A    between atoms: C_2  and  N_4
REMARK    3  A    between atoms: C_2  and  P_24
REMARK    4  A    between atoms: C_5  and  C_7
REMARK    5  A    between atoms: C_7  and  C_8
REMARK    6  A    between atoms: C_8  and  C_9
REMARK    7  A    between atoms: C_9  and  C_10
REMARK    8  A    between atoms: C_10  and  C_11
REMARK    9  A    between atoms: C_11  and  N_13
REMARK   10  A    between atoms: C_11  and  C_21
REMARK   11  A    between atoms: C_14  and  CA_16
REMARK   12  A    between atoms: CA_16  and  N_17
REMARK                            x       y       z     vdW  Elec       q    Type
REMARK                         _______ _______ _______ _____ _____    ______ ____
ROOT
ATOM      1  C   UNK A   2       6.832  -3.895  22.069  0.00  0.00    +0.028 C 
ENDROOT
BRANCH   1   2
ATOM      2  C   UNK A   2       7.232  -5.362  22.194  0.00  0.00    +0.003 C 
BRANCH   2   3
ATOM      3  C   UNK A   2       6.059  -6.300  21.872  0.00  0.00    +0.009 C 
BRANCH   3   4
ATOM      4  C   UNK A   2       4.843  -5.921  22.710  0.00  0.00    +0.096 C 
BRANCH   4   7
ATOM      5  N   UNK A   2       5.146  -5.392  25.076  0.00  0.00    -0.307 N 
ATOM      6  H   UNK A   2       5.838  -4.689  24.833  0.00  0.00    +0.149 HD
ATOM      7  C   UNK A   2       4.842  -6.369  24.162  0.00  0.00    +0.214 C 
ATOM      8  O   UNK A   2       4.406  -7.479  24.468  0.00  0.00    -0.276 OA
BRANCH   5  10
ATOM      9  C   UNK A   2       4.110  -4.693  27.173  0.00  0.00    +0.034 C 
ATOM     10  C   UNK A   2       5.111  -5.636  26.516  0.00  0.00    +0.115 C 
BRANCH  10  11
ATOM     11  P   UNK A   2       6.834  -5.252  27.193  0.00  0.00    +0.023 P 
ATOM     12  H   UNK A   2       6.670  -3.940  27.688  0.00  0.00    +0.085 HD
ATOM     13  O   UNK A   2       7.108  -6.247  28.307  0.00  0.00    -0.338 OA
ATOM     14  O   UNK A   2       7.736  -5.309  25.963  0.00  0.00    -0.803 OA
ENDBRANCH  10  11
ENDBRANCH   5  10
ENDBRANCH   4   7
ENDBRANCH   3   4
ENDBRANCH   2   3
ENDBRANCH   1   2
BRANCH   1  15
ATOM     15  C   UNK A   2       7.230  -3.036  23.275  0.00  0.00    +0.119 C 
BRANCH  15  16
ATOM     16  N   UNK A   2       8.353  -2.145  22.892  0.00  0.00    -0.303 N 
ATOM     17  H   UNK A   2       7.943  -1.297  22.481  0.00  0.00    +0.150 HD
ATOM     18  C   GLY A   1       9.670  -2.256  23.224  0.00  0.00    +0.259 C 
ATOM     19  O   GLY A   1      10.159  -3.097  23.961  0.00  0.00    -0.270 OA
BRANCH  18  20
ATOM     20  CA  GLY A   1      10.524  -1.285  22.428  0.00  0.00    +0.225 C 
BRANCH  20  21
ATOM     21  N   GLY A   1       9.733  -0.731  21.286  0.00  0.00    +0.225 N 
ATOM     22  H1  GLY A   1       8.735  -0.945  21.334  0.00  0.00    +0.200 HD
ATOM     23  H2  GLY A   1      10.122  -1.077  20.391  0.00  0.00    +0.200 HD
ATOM     24  H3  GLY A   1       9.862   0.293  21.248  0.00  0.00    +0.200 HD
ENDBRANCH  20  21
ENDBRANCH  18  20
ENDBRANCH  15  16
BRANCH  15  25
ATOM     25  C   UNK A   2       6.066  -2.087  23.758  0.00  0.00    +0.062 C 
ATOM     26  O   UNK A   2       6.392  -0.853  23.630  0.00  0.00    -0.548 OA
ATOM     27  O   UNK A   2       5.052  -2.617  24.267  0.00  0.00    -0.548 OA
ENDBRANCH  15  25
ENDBRANCH   1  15
TORSDOF 11
ENDMDL
MODEL 3
REMARK VINA RESULT:      -5.4      2.971      4.687
REMARK  Name = 
REMARK  12 active torsions:
REMARK  status: ('A' for Active; 'I' for Inactive)
REMARK    1  A    between atoms: C_1  and  C_2
REMARK    2  A    between atoms: C_2  and  N_4
REMARK    3  A    between atoms: C_2  and  P_24
REMARK    4  A    between atoms: C_5  and  C_7
REMARK    5  A    between atoms: C_7  and  C_8
REMARK    6  A    between atoms: C_8  and  C_9
REMARK    7  A    between atoms: C_9  and  C_10
REMARK    8  A    between atoms: C_10  and  C_11
REMARK    9  A    between atoms: C_11  and  N_13
REMARK   10  A    between atoms: C_11  and  C_21
REMARK   11  A    between atoms: C_14  and  CA_16
REMARK   12  A    between atoms: CA_16  and  N_17
REMARK                            x       y       z     vdW  Elec       q    Type
REMARK                         _______ _______ _______ _____ _____    ______ ____
ROOT
ATOM      1  C   UNK A   2      10.146   1.856  22.040  0.00  0.00    +0.028 C 
ENDROOT
BRANCH   1   2
ATOM      2  C   UNK A   2       8.933   0.990  21.716  0.00  0.00    +0.003 C 
BRANCH   2   3
ATOM      3  C   UNK A   2       9.341  -0.348  21.084  0.00  0.00    +0.009 C 
BRANCH   3   4
ATOM      4  C   UNK A   2       9.911  -1.277  22.150  0.00  0.00    +0.096 C 
BRANCH   4   7
ATOM      5  N   UNK A   2       9.239  -2.151  24.331  0.00  0.00    -0.307 N 
ATOM      6  H   UNK A   2      10.215  -2.267  24.588  0.00  0.00    +0.149 HD
ATOM      7  C   UNK A   2       8.911  -2.040  23.003  0.00  0.00    +0.214 C 
ATOM      8  O   UNK A   2       7.812  -2.347  22.543  0.00  0.00    -0.276 OA
BRANCH   5  10
ATOM      9  C   UNK A   2       8.195  -1.884  26.520  0.00  0.00    +0.034 C 
ATOM     10  C   UNK A   2       8.350  -2.784  25.301  0.00  0.00    +0.115 C 
BRANCH  10  11
ATOM     11  P   UNK A   2       9.169  -4.399  25.845  0.00  0.00    +0.023 P 
ATOM     12  H   UNK A   2      10.452  -3.960  26.237  0.00  0.00    +0.085 HD
ATOM     13  O   UNK A   2       8.370  -4.932  27.022  0.00  0.00    -0.338 OA
ATOM     14  O   UNK A   2       9.198  -5.245  24.575  0.00  0.00    -0.803 OA
ENDBRANCH  10  11
ENDBRANCH   5  10
ENDBRANCH   4   7
ENDBRANCH   3   4
ENDBRANCH   2   3
ENDBRANCH   1   2
BRANCH   1  15
ATOM     15  C   UNK A   2      10.055   2.577  23.390  0.00  0.00    +0.119 C 
BRANCH  15  16
ATOM     16  N   UNK A   2       9.028   3.645  23.305  0.00  0.00    -0.303 N 
ATOM     17  H   UNK A   2       8.117   3.183  23.194  0.00  0.00    +0.150 HD
ATOM     18  C   GLY A   1       9.168   4.973  23.573  0.00  0.00    +0.259 C 
ATOM     19  O   GLY A   1      10.173   5.522  23.995  0.00  0.00    -0.270 OA
BRANCH  18  20
ATOM     20  CA  GLY A   1       7.946   5.759  23.126  0.00  0.00    +0.225 C 
BRANCH  20  21
ATOM     21  N   GLY A   1       7.496   5.276  21.785  0.00  0.00    +0.225 N 
ATOM     22  H1  GLY A   1       7.253   6.028  21.137  0.00  0.00    +0.200 HD
ATOM     23  H2  GLY A   1       6.691   4.636  21.895  0.00  0.00    +0.200 HD
ATOM     24  H3  GLY A   1       8.239   4.692  21.367  0.00  0.00    +0.200 HD
ENDBRANCH  20  21
ENDBRANCH  18  20
ENDBRANCH  15  16
BRANCH  15  25
ATOM     25  C   UNK A   2       9.598   1.624  24.561  0.00  0.00    +0.062 C 
ATOM     26  O   UNK A   2       8.457   1.978  25.026  0.00  0.00    -0.548 OA
ATOM     27  O   UNK A   2      10.398   0.738  24.941  0.00  0.00    -0.548 OA
ENDBRANCH  15  25
ENDBRANCH   1  15
TORSDOF 11
ENDMDL
MODEL 4
REMARK VINA RESULT:      -5.3      2.690      3.980
REMARK  Name = 
REMARK  12 active torsions:
REMARK  status: ('A' for Active; 'I' for Inactive)
REMARK    1  A    between atoms: C_1  and  C_2
REMARK    2  A    between atoms: C_2  and  N_4
REMARK    3  A    between atoms: C_2  and  P_24
REMARK    4  A    between atoms: C_5  and  C_7
REMARK    5  A    between atoms: C_7  and  C_8
REMARK    6  A    between atoms: C_8  and  C_9
REMARK    7  A    between atoms: C_9  and  C_10
REMARK    8  A    between atoms: C_10  and  C_11
REMARK    9  A    between atoms: C_11  and  N_13
REMARK   10  A    between atoms: C_11  and  C_21
REMARK   11  A    between atoms: C_14  and  CA_16
REMARK   12  A    between atoms: CA_16  and  N_17
REMARK                            x       y       z     vdW  Elec       q    Type
REMARK                         _______ _______ _______ _____ _____    ______ ____
ROOT
ATOM      1  C   UNK A   2      10.115   1.570  21.936  0.00  0.00    +0.028 C 
ENDROOT
BRANCH   1   2
ATOM      2  C   UNK A   2       8.940   0.644  21.636  0.00  0.00    +0.003 C 
BRANCH   2   3
ATOM      3  C   UNK A   2       9.410  -0.770  21.265  0.00  0.00    +0.009 C 
BRANCH   3   4
ATOM      4  C   UNK A   2      10.064  -1.435  22.471  0.00  0.00    +0.096 C 
BRANCH   4   7
ATOM      5  N   UNK A   2       8.092  -2.873  22.583  0.00  0.00    -0.307 N 
ATOM      6  H   UNK A   2       7.562  -2.192  22.046  0.00  0.00    +0.149 HD
ATOM      7  C   UNK A   2       9.239  -2.470  23.218  0.00  0.00    +0.214 C 
ATOM      8  O   UNK A   2       9.697  -3.024  24.217  0.00  0.00    -0.276 OA
BRANCH   5  10
ATOM      9  C   UNK A   2       7.393  -5.196  22.313  0.00  0.00    +0.034 C 
ATOM     10  C   UNK A   2       7.228  -3.918  23.126  0.00  0.00    +0.115 C 
BRANCH  10  11
ATOM     11  P   UNK A   2       5.443  -3.320  22.952  0.00  0.00    +0.023 P 
ATOM     12  H   UNK A   2       5.560  -2.336  21.945  0.00  0.00    +0.085 HD
ATOM     13  O   UNK A   2       4.617  -4.507  22.489  0.00  0.00    -0.338 OA
ATOM     14  O   UNK A   2       5.116  -2.727  24.319  0.00  0.00    -0.803 OA
ENDBRANCH  10  11
ENDBRANCH   5  10
ENDBRANCH   4   7
ENDBRANCH   3   4
ENDBRANCH   2   3
ENDBRANCH   1   2
BRANCH   1  15
ATOM     15  C   UNK A   2       9.870   2.529  23.107  0.00  0.00    +0.119 C 
BRANCH  15  16
ATOM     16  N   UNK A   2       8.652   3.331  22.836  0.00  0.00    -0.303 N 
ATOM     17  H   UNK A   2       7.934   2.686  22.483  0.00  0.00    +0.150 HD
ATOM     18  C   GLY A   1       8.390   4.617  23.201  0.00  0.00    +0.259 C 
ATOM     19  O   GLY A   1       9.106   5.333  23.882  0.00  0.00    -0.270 OA
BRANCH  18  20
ATOM     20  CA  GLY A   1       7.140   5.143  22.516  0.00  0.00    +0.225 C 
BRANCH  20  21
ATOM     21  N   GLY A   1       7.515   6.154  21.481  0.00  0.00    +0.225 N 
ATOM     22  H1  GLY A   1       8.497   6.436  21.518  0.00  0.00    +0.200 HD
ATOM     23  H2  GLY A   1       6.909   6.988  21.571  0.00  0.00    +0.200 HD
ATOM     24  H3  GLY A   1       7.302   5.776  20.544  0.00  0.00    +0.200 HD
ENDBRANCH  20  21
ENDBRANCH  18  20
ENDBRANCH  15  16
BRANCH  15  25
ATOM     25  C   UNK A   2       9.602   1.775  24.466  0.00  0.00    +0.062 C 
ATOM     26  O   UNK A   2      10.613   1.065  24.809  0.00  0.00    -0.548 OA
ATOM     27  O   UNK A   2       8.464   1.877  24.979  0.00  0.00    -0.548 OA
ENDBRANCH  15  25
ENDBRANCH   1  15
TORSDOF 11
ENDMDL
MODEL 5
REMARK VINA RESULT:      -5.3      2.861      7.070
REMARK  Name = 
REMARK  12 active torsions:
REMARK  status: ('A' for Active; 'I' for Inactive)
REMARK    1  A    between atoms: C_1  and  C_2
REMARK    2  A    between atoms: C_2  and  N_4
REMARK    3  A    between atoms: C_2  and  P_24
REMARK    4  A    between atoms: C_5  and  C_7
REMARK    5  A    between atoms: C_7  and  C_8
REMARK    6  A    between atoms: C_8  and  C_9
REMARK    7  A    between atoms: C_9  and  C_10
REMARK    8  A    between atoms: C_10  and  C_11
REMARK    9  A    between atoms: C_11  and  N_13
REMARK   10  A    between atoms: C_11  and  C_21
REMARK   11  A    between atoms: C_14  and  CA_16
REMARK   12  A    between atoms: CA_16  and  N_17
REMARK                            x       y       z     vdW  Elec       q    Type
REMARK                         _______ _______ _______ _____ _____    ______ ____
ROOT
ATOM      1  C   UNK A   2       6.035  -5.906  22.690  0.00  0.00    +0.028 C 
ENDROOT
BRANCH   1   2
ATOM      2  C   UNK A   2       7.411  -5.327  23.001  0.00  0.00    +0.003 C 
BRANCH   2   3
ATOM      3  C   UNK A   2       7.512  -3.850  22.595  0.00  0.00    +0.009 C 
BRANCH   3   4
ATOM      4  C   UNK A   2       8.111  -3.034  23.736  0.00  0.00    +0.096 C 
BRANCH   4   7
ATOM      5  N   UNK A   2       9.242  -0.878  23.534  0.00  0.00    -0.307 N 
ATOM      6  H   UNK A   2       8.368  -0.442  23.256  0.00  0.00    +0.149 HD
ATOM      7  C   UNK A   2       9.369  -2.239  23.428  0.00  0.00    +0.214 C 
ATOM      8  O   UNK A   2      10.447  -2.816  23.289  0.00  0.00    -0.276 OA
BRANCH   5  10
ATOM      9  C   UNK A   2      10.785   0.618  24.692  0.00  0.00    +0.034 C 
ATOM     10  C   UNK A   2      10.375   0.026  23.349  0.00  0.00    +0.115 C 
BRANCH  10  11
ATOM     11  P   UNK A   2       9.796   1.430  22.223  0.00  0.00    +0.023 P 
ATOM     12  H   UNK A   2      11.013   1.885  21.672  0.00  0.00    +0.085 HD
ATOM     13  O   UNK A   2       8.893   0.813  21.168  0.00  0.00    -0.338 OA
ATOM     14  O   UNK A   2       9.169   2.438  23.182  0.00  0.00    -0.803 OA
ENDBRANCH  10  11
ENDBRANCH   5  10
ENDBRANCH   4   7
ENDBRANCH   3   4
ENDBRANCH   2   3
ENDBRANCH   1   2
BRANCH   1  15
ATOM     15  C   UNK A   2       5.070  -5.894  23.881  0.00  0.00    +0.119 C 
BRANCH  15  16
ATOM     16  N   UNK A   2       5.792  -5.433  25.092  0.00  0.00    -0.303 N 
ATOM     17  H   UNK A   2       6.136  -4.484  24.899  0.00  0.00    +0.150 HD
ATOM     18  C   GLY A   1       5.809  -6.000  26.331  0.00  0.00    +0.259 C 
ATOM     19  O   GLY A   1       5.172  -6.978  26.685  0.00  0.00    -0.270 OA
BRANCH  18  20
ATOM     20  CA  GLY A   1       6.864  -5.359  27.217  0.00  0.00    +0.225 C 
BRANCH  20  21
ATOM     21  N   GLY A   1       8.228  -5.751  26.747  0.00  0.00    +0.225 N 
ATOM     22  H1  GLY A   1       8.972  -5.136  27.081  0.00  0.00    +0.200 HD
ATOM     23  H2  GLY A   1       8.245  -5.789  25.713  0.00  0.00    +0.200 HD
ATOM     24  H3  GLY A   1       8.425  -6.720  27.047  0.00  0.00    +0.200 HD
ENDBRANCH  20  21
ENDBRANCH  18  20
ENDBRANCH  15  16
BRANCH  15  25
ATOM     25  C   UNK A   2       3.868  -4.892  23.682  0.00  0.00    +0.062 C 
ATOM     26  O   UNK A   2       4.019  -3.840  24.399  0.00  0.00    -0.548 OA
ATOM     27  O   UNK A   2       2.914  -5.258  22.957  0.00  0.00    -0.548 OA
ENDBRANCH  15  25
ENDBRANCH   1  15
TORSDOF 11
ENDMDL
MODEL 6
REMARK VINA RESULT:      -5.2      2.270      3.050
REMARK  Name = 
REMARK  12 active torsions:
REMARK  status: ('A' for Active; 'I' for Inactive)
REMARK    1  A    between atoms: C_1  and  C_2
REMARK    2  A    between atoms: C_2  and  N_4
REMARK    3  A    between atoms: C_2  and  P_24
REMARK    4  A    between atoms: C_5  and  C_7
REMARK    5  A    between atoms: C_7  and  C_8
REMARK    6  A    between atoms: C_8  and  C_9
REMARK    7  A    between atoms: C_9  and  C_10
REMARK    8  A    between atoms: C_10  and  C_11
REMARK    9  A    between atoms: C_11  and  N_13
REMARK   10  A    between atoms: C_11  and  C_21
REMARK   11  A    between atoms: C_14  and  CA_16
REMARK   12  A    between atoms: CA_16  and  N_17
REMARK                            x       y       z     vdW  Elec       q    Type
REMARK                         _______ _______ _______ _____ _____    ______ ____
ROOT
ATOM      1  C   UNK A   2       9.501   1.520  24.546  0.00  0.00    +0.028 C 
ENDROOT
BRANCH   1   2
ATOM      2  C   UNK A   2      10.291   0.215  24.583  0.00  0.00    +0.003 C 
BRANCH   2   3
ATOM      3  C   UNK A   2       9.376  -0.997  24.811  0.00  0.00    +0.009 C 
BRANCH   3   4
ATOM      4  C   UNK A   2       9.647  -2.061  23.753  0.00  0.00    +0.096 C 
BRANCH   4   7
ATOM      5  N   UNK A   2       7.843  -3.608  23.185  0.00  0.00    -0.307 N 
ATOM      6  H   UNK A   2       7.221  -2.824  23.011  0.00  0.00    +0.149 HD
ATOM      7  C   UNK A   2       8.968  -3.408  23.943  0.00  0.00    +0.214 C 
ATOM      8  O   UNK A   2       9.526  -4.297  24.587  0.00  0.00    -0.276 OA
BRANCH   5  10
ATOM      9  C   UNK A   2       7.235  -5.540  21.823  0.00  0.00    +0.034 C 
ATOM     10  C   UNK A   2       7.118  -4.877  23.190  0.00  0.00    +0.115 C 
BRANCH  10  11
ATOM     11  P   UNK A   2       5.298  -4.483  23.514  0.00  0.00    +0.023 P 
ATOM     12  H   UNK A   2       5.102  -5.038  24.798  0.00  0.00    +0.085 HD
ATOM     13  O   UNK A   2       5.163  -2.970  23.526  0.00  0.00    -0.338 OA
ATOM     14  O   UNK A   2       4.554  -5.246  22.422  0.00  0.00    -0.803 OA
ENDBRANCH  10  11
ENDBRANCH   5  10
ENDBRANCH   4   7
ENDBRANCH   3   4
ENDBRANCH   2   3
ENDBRANCH   1   2
BRANCH   1  15
ATOM     15  C   UNK A   2       8.739   1.750  23.236  0.00  0.00    +0.119 C 
BRANCH  15  16
ATOM     16  N   UNK A   2       8.417   3.192  23.104  0.00  0.00    -0.303 N 
ATOM     17  H   UNK A   2       9.235   3.719  23.434  0.00  0.00    +0.150 HD
ATOM     18  C   GLY A   1       7.371   3.766  22.446  0.00  0.00    +0.259 C 
ATOM     19  O   GLY A   1       6.527   3.183  21.785  0.00  0.00    -0.270 OA
BRANCH  18  20
ATOM     20  CA  GLY A   1       7.268   5.249  22.760  0.00  0.00    +0.225 C 
BRANCH  20  21
ATOM     21  N   GLY A   1       7.600   6.051  21.542  0.00  0.00    +0.225 N 
ATOM     22  H1  GLY A   1       7.054   5.792  20.718  0.00  0.00    +0.200 HD
ATOM     23  H2  GLY A   1       8.610   5.967  21.333  0.00  0.00    +0.200 HD
ATOM     24  H3  GLY A   1       7.458   7.053  21.746  0.00  0.00    +0.200 HD
ENDBRANCH  20  21
ENDBRANCH  18  20
ENDBRANCH  15  16
BRANCH  15  25
ATOM     25  C   UNK A   2       9.590   1.375  21.962  0.00  0.00    +0.062 C 
ATOM     26  O   UNK A   2      10.533   2.223  21.769  0.00  0.00    -0.548 OA
ATOM     27  O   UNK A   2       9.214   0.400  21.272  0.00  0.00    -0.548 OA
ENDBRANCH  15  25
ENDBRANCH   1  15
TORSDOF 11
ENDMDL
MODEL 7
REMARK VINA RESULT:      -5.2      4.102      7.937
REMARK  Name = 
REMARK  12 active torsions:
REMARK  status: ('A' for Active; 'I' for Inactive)
REMARK    1  A    between atoms: C_1  and  C_2
REMARK    2  A    between atoms: C_2  and  N_4
REMARK    3  A    between atoms: C_2  and  P_24
REMARK    4  A    between atoms: C_5  and  C_7
REMARK    5  A    between atoms: C_7  and  C_8
REMARK    6  A    between atoms: C_8  and  C_9
REMARK    7  A    between atoms: C_9  and  C_10
REMARK    8  A    between atoms: C_10  and  C_11
REMARK    9  A    between atoms: C_11  and  N_13
REMARK   10  A    between atoms: C_11  and  C_21
REMARK   11  A    between atoms: C_14  and  CA_16
REMARK   12  A    between atoms: CA_16  and  N_17
REMARK                            x       y       z     vdW  Elec       q    Type
REMARK                         _______ _______ _______ _____ _____    ______ ____
ROOT
ATOM      1  C   UNK A   2       8.954  -0.705  24.845  0.00  0.00    +0.028 C 
ENDROOT
BRANCH   1   2
ATOM      2  C   UNK A   2      10.055   0.180  25.422  0.00  0.00    +0.003 C 
BRANCH   2   3
ATOM      3  C   UNK A   2      10.689   1.073  24.346  0.00  0.00    +0.009 C 
BRANCH   3   4
ATOM      4  C   UNK A   2       9.600   1.717  23.495  0.00  0.00    +0.096 C 
BRANCH   4   7
ATOM      5  N   UNK A   2       8.816   4.000  23.112  0.00  0.00    -0.307 N 
ATOM      6  H   UNK A   2       9.525   4.126  22.396  0.00  0.00    +0.149 HD
ATOM      7  C   UNK A   2       8.973   2.994  24.031  0.00  0.00    +0.214 C 
ATOM      8  O   UNK A   2       8.478   3.014  25.158  0.00  0.00    -0.276 OA
BRANCH   5  10
ATOM      9  C   UNK A   2       7.529   5.858  22.192  0.00  0.00    +0.034 C 
ATOM     10  C   UNK A   2       8.159   5.261  23.444  0.00  0.00    +0.115 C 
BRANCH  10  11
ATOM     11  P   UNK A   2       9.494   6.444  24.069  0.00  0.00    +0.023 P 
ATOM     12  H   UNK A   2       9.050   7.684  23.561  0.00  0.00    +0.085 HD
ATOM     13  O   UNK A   2       9.450   6.406  25.587  0.00  0.00    -0.338 OA
ATOM     14  O   UNK A   2      10.771   5.953  23.392  0.00  0.00    -0.803 OA
ENDBRANCH  10  11
ENDBRANCH   5  10
ENDBRANCH   4   7
ENDBRANCH   3   4
ENDBRANCH   2   3
ENDBRANCH   1   2
BRANCH   1  15
ATOM     15  C   UNK A   2       9.463  -2.014  24.231  0.00  0.00    +0.119 C 
BRANCH  15  16
ATOM     16  N   UNK A   2       8.594  -3.132  24.673  0.00  0.00    -0.303 N 
ATOM     17  H   UNK A   2       7.620  -2.825  24.559  0.00  0.00    +0.150 HD
ATOM     18  C   GLY A   1       8.948  -4.420  24.941  0.00  0.00    +0.259 C 
ATOM     19  O   GLY A   1      10.059  -4.906  24.805  0.00  0.00    -0.270 OA
BRANCH  18  20
ATOM     20  CA  GLY A   1       7.809  -5.180  25.600  0.00  0.00    +0.225 C 
BRANCH  20  21
ATOM     21  N   GLY A   1       8.282  -5.792  26.880  0.00  0.00    +0.225 N 
ATOM     22  H1  GLY A   1       8.596  -6.760  26.782  0.00  0.00    +0.200 HD
ATOM     23  H2  GLY A   1       7.534  -5.738  27.592  0.00  0.00    +0.200 HD
ATOM     24  H3  GLY A   1       9.052  -5.221  27.266  0.00  0.00    +0.200 HD
ENDBRANCH  20  21
ENDBRANCH  18  20
ENDBRANCH  15  16
BRANCH  15  25
ATOM     25  C   UNK A   2       9.403  -2.011  22.655  0.00  0.00    +0.062 C 
ATOM     26  O   UNK A   2      10.556  -1.770  22.148  0.00  0.00    -0.548 OA
ATOM     27  O   UNK A   2       8.282  -2.146  22.111  0.00  0.00    -0.548 OA
ENDBRANCH  15  25
ENDBRANCH   1  15
TORSDOF 11
ENDMDL
MODEL 8
REMARK VINA RESULT:      -5.2      2.963      4.436
REMARK  Name = 
REMARK  12 active torsions:
REMARK  status: ('A' for Active; 'I' for Inactive)
REMARK    1  A    between atoms: C_1  and  C_2
REMARK    2  A    between atoms: C_2  and  N_4
REMARK    3  A    between atoms: C_2  and  P_24
REMARK    4  A    between atoms: C_5  and  C_7
REMARK    5  A    between atoms: C_7  and  C_8
REMARK    6  A    between atoms: C_8  and  C_9
REMARK    7  A    between atoms: C_9  and  C_10
REMARK    8  A    between atoms: C_10  and  C_11
REMARK    9  A    between atoms: C_11  and  N_13
REMARK   10  A    between atoms: C_11  and  C_21
REMARK   11  A    between atoms: C_14  and  CA_16
REMARK   12  A    between atoms: CA_16  and  N_17
REMARK                            x       y       z     vdW  Elec       q    Type
REMARK                         _______ _______ _______ _____ _____    ______ ____
ROOT
ATOM      1  C   UNK A   2       9.086   1.833  24.462  0.00  0.00    +0.028 C 
ENDROOT
BRANCH   1   2
ATOM      2  C   UNK A   2      10.476   1.205  24.444  0.00  0.00    +0.003 C 
BRANCH   2   3
ATOM      3  C   UNK A   2      10.474  -0.157  23.734  0.00  0.00    +0.009 C 
BRANCH   3   4
ATOM      4  C   UNK A   2       9.209  -0.930  24.090  0.00  0.00    +0.096 C 
BRANCH   4   7
ATOM      5  N   UNK A   2       8.165  -3.104  24.478  0.00  0.00    -0.307 N 
ATOM      6  H   UNK A   2       7.523  -2.681  25.142  0.00  0.00    +0.149 HD
ATOM      7  C   UNK A   2       9.324  -2.443  24.161  0.00  0.00    +0.214 C 
ATOM      8  O   UNK A   2      10.345  -3.006  23.765  0.00  0.00    -0.276 OA
BRANCH   5  10
ATOM      9  C   UNK A   2       6.847  -5.026  23.750  0.00  0.00    +0.034 C 
ATOM     10  C   UNK A   2       8.085  -4.563  24.509  0.00  0.00    +0.115 C 
BRANCH  10  11
ATOM     11  P   UNK A   2       7.908  -5.077  26.320  0.00  0.00    +0.023 P 
ATOM     12  H   UNK A   2       9.140  -5.724  26.563  0.00  0.00    +0.085 HD
ATOM     13  O   UNK A   2       7.768  -3.803  27.135  0.00  0.00    -0.338 OA
ATOM     14  O   UNK A   2       6.726  -6.043  26.317  0.00  0.00    -0.803 OA
ENDBRANCH  10  11
ENDBRANCH   5  10
ENDBRANCH   4   7
ENDBRANCH   3   4
ENDBRANCH   2   3
ENDBRANCH   1   2
BRANCH   1  15
ATOM     15  C   UNK A   2       8.982   3.141  23.669  0.00  0.00    +0.119 C 
BRANCH  15  16
ATOM     16  N   UNK A   2      10.346   3.629  23.350  0.00  0.00    -0.303 N 
ATOM     17  H   UNK A   2      10.788   2.927  22.744  0.00  0.00    +0.150 HD
ATOM     18  C   GLY A   1      10.872   4.867  23.571  0.00  0.00    +0.259 C 
ATOM     19  O   GLY A   1      10.279   5.831  24.029  0.00  0.00    -0.270 OA
BRANCH  18  20
ATOM     20  CA  GLY A   1      12.371   4.881  23.327  0.00  0.00    +0.225 C 
BRANCH  20  21
ATOM     21  N   GLY A   1      12.652   5.307  21.921  0.00  0.00    +0.225 N 
ATOM     22  H1  GLY A   1      13.545   4.966  21.559  0.00  0.00    +0.200 HD
ATOM     23  H2  GLY A   1      12.620   6.339  21.855  0.00  0.00    +0.200 HD
ATOM     24  H3  GLY A   1      11.887   4.981  21.308  0.00  0.00    +0.200 HD
ENDBRANCH  20  21
ENDBRANCH  18  20
ENDBRANCH  15  16
BRANCH  15  25
ATOM     25  C   UNK A   2       8.250   2.956  22.283  0.00  0.00    +0.062 C 
ATOM     26  O   UNK A   2       7.447   3.928  22.051  0.00  0.00    -0.548 OA
ATOM     27  O   UNK A   2       8.457   1.897  21.648  0.00  0.00    -0.548 OA
ENDBRANCH  15  25
ENDBRANCH   1  15
TORSDOF 11
ENDMDL
MODEL 9
REMARK VINA RESULT:      -5.2      1.826      2.089
REMARK  Name = 
REMARK  12 active torsions:
REMARK  status: ('A' for Active; 'I' for Inactive)
REMARK    1  A    between atoms: C_1  and  C_2
REMARK    2  A    between atoms: C_2  and  N_4
REMARK    3  A    between atoms: C_2  and  P_24
REMARK    4  A    between atoms: C_5  and  C_7
REMARK    5  A    between atoms: C_7  and  C_8
REMARK    6  A    between atoms: C_8  and  C_9
REMARK    7  A    between atoms: C_9  and  C_10
REMARK    8  A    between atoms: C_10  and  C_11
REMARK    9  A    between atoms: C_11  and  N_13
REMARK   10  A    between atoms: C_11  and  C_21
REMARK   11  A    between atoms: C_14  and  CA_16
REMARK   12  A    between atoms: CA_16  and  N_17
REMARK                            x       y       z     vdW  Elec       q    Type
REMARK                         _______ _______ _______ _____ _____    ______ ____
ROOT
ATOM      1  C   UNK A   2       9.469  -0.468  25.244  0.00  0.00    +0.028 C 
ENDROOT
BRANCH   1   2
ATOM      2  C   UNK A   2       8.500  -0.732  26.392  0.00  0.00    +0.003 C 
BRANCH   2   3
ATOM      3  C   UNK A   2       8.086  -2.209  26.459  0.00  0.00    +0.009 C 
BRANCH   3   4
ATOM      4  C   UNK A   2       6.573  -2.321  26.609  0.00  0.00    +0.096 C 
BRANCH   4   7
ATOM      5  N   UNK A   2       5.806  -3.464  24.590  0.00  0.00    -0.307 N 
ATOM      6  H   UNK A   2       6.680  -3.981  24.547  0.00  0.00    +0.149 HD
ATOM      7  C   UNK A   2       5.753  -2.310  25.329  0.00  0.00    +0.214 C 
ATOM      8  O   UNK A   2       4.961  -1.394  25.109  0.00  0.00    -0.276 OA
BRANCH   5  10
ATOM      9  C   UNK A   2       3.765  -4.458  23.694  0.00  0.00    +0.034 C 
ATOM     10  C   UNK A   2       5.015  -3.648  23.375  0.00  0.00    +0.115 C 
BRANCH  10  11
ATOM     11  P   UNK A   2       6.075  -4.630  22.157  0.00  0.00    +0.023 P 
ATOM     12  H   UNK A   2       5.632  -5.952  22.381  0.00  0.00    +0.085 HD
ATOM     13  O   UNK A   2       5.720  -4.144  20.762  0.00  0.00    -0.338 OA
ATOM     14  O   UNK A   2       7.504  -4.398  22.638  0.00  0.00    -0.803 OA
ENDBRANCH  10  11
ENDBRANCH   5  10
ENDBRANCH   4   7
ENDBRANCH   3   4
ENDBRANCH   2   3
ENDBRANCH   1   2
BRANCH   1  15
ATOM     15  C   UNK A   2       9.004  -1.028  23.894  0.00  0.00    +0.119 C 
BRANCH  15  16
ATOM     16  N   UNK A   2       8.892   0.082  22.916  0.00  0.00    -0.303 N 
ATOM     17  H   UNK A   2       9.740   0.065  22.336  0.00  0.00    +0.150 HD
ATOM     18  C   GLY A   1       7.800   0.844  22.626  0.00  0.00    +0.259 C 
ATOM     19  O   GLY A   1       6.680   0.704  23.089  0.00  0.00    -0.270 OA
BRANCH  18  20
ATOM     20  CA  GLY A   1       8.171   2.030  21.751  0.00  0.00    +0.225 C 
BRANCH  20  21
ATOM     21  N   GLY A   1       9.637   2.007  21.460  0.00  0.00    +0.225 N 
ATOM     22  H1  GLY A   1      10.166   1.370  22.060  0.00  0.00    +0.200 HD
ATOM     23  H2  GLY A   1      10.025   2.963  21.537  0.00  0.00    +0.200 HD
ATOM     24  H3  GLY A   1       9.783   1.745  20.471  0.00  0.00    +0.200 HD
ENDBRANCH  20  21
ENDBRANCH  18  20
ENDBRANCH  15  16
BRANCH  15  25
ATOM     25  C   UNK A   2      10.029  -2.053  23.274  0.00  0.00    +0.062 C 
ATOM     26  O   UNK A   2      10.399  -1.687  22.102  0.00  0.00    -0.548 OA
ATOM     27  O   UNK A   2      10.281  -3.095  23.922  0.00  0.00    -0.548 OA
ENDBRANCH  15  25
ENDBRANCH   1  15
TORSDOF 11
ENDMDL
