MODEL 1
REMARK VINA RESULT:      -6.9      0.000      0.000
REMARK  Name = 
REMARK  33 active torsions:
REMARK  status: ('A' for Active; 'I' for Inactive)
REMARK    1  A    between atoms: C_1  and  C_2
REMARK    2  A    between atoms: C_5  and  O_7
REMARK    3  A    between atoms: O_7  and  C_8
REMARK    4  A    between atoms: C_10  and  C_12
REMARK    5  A    between atoms: C_12  and  O_13
REMARK    6  A    between atoms: C_15  and  O_17
REMARK    7  A    between atoms: O_17  and  C_18
REMARK    8  A    between atoms: C_20  and  O_22
REMARK    9  A    between atoms: C_23  and  O_25
REMARK   10  A    between atoms: C_26  and  N_28
REMARK   11  A    between atoms: N_28  and  C_29
REMARK   12  A    between atoms: C_31  and  C_33
REMARK   13  A    between atoms: C_35  and  O_37
REMARK   14  A    between atoms: O_37  and  C_38
REMARK   15  A    between atoms: C_40  and  C_42
REMARK   16  A    between atoms: C_42  and  O_43
REMARK   17  A    between atoms: C_45  and  O_47
REMARK   18  A    between atoms: O_47  and  C_48
REMARK   19  A    between atoms: C_50  and  C_52
REMARK   20  A    between atoms: C_54  and  O_56
REMARK   21  A    between atoms: C_57  and  O_59
REMARK   22  A    between atoms: C_60  and  O_62
REMARK   23  A    between atoms: C_63  and  O_65
REMARK   24  A    between atoms: C_66  and  O_68
REMARK   25  A    between atoms: C_69  and  O_71
REMARK   26  A    between atoms: C_72  and  O_74
REMARK   27  A    between atoms: C_76  and  C_77
REMARK   28  A    between atoms: C_77  and  O_78
REMARK   29  A    between atoms: C_79  and  O_81
REMARK   30  A    between atoms: C_82  and  O_84
REMARK   31  A    between atoms: C_85  and  O_87
REMARK   32  A    between atoms: C_88  and  O_90
REMARK   33  A    between atoms: C_91  and  O_93
REMARK                            x       y       z     vdW  Elec       q    Type
REMARK                         _______ _______ _______ _____ _____    ______ ____
ROOT
ATOM      1  C   UNL     1       6.222   5.869  25.054  0.00  0.00    +0.180 C 
ATOM      2  C   UNL     1       7.515   5.477  25.718  0.00  0.00    -0.016 C 
ATOM      3  C   UNL     1       8.583   5.068  25.009  0.00  0.00    -0.002 C 
ATOM      4  C   UNL     1       8.649   4.925  23.510  0.00  0.00    +0.109 C 
ATOM      5  C   UNL     1       7.294   5.139  22.787  0.00  0.00    +0.166 C 
ATOM      6  C   UNL     1       6.339   6.097  23.523  0.00  0.00    +0.178 C 
ENDROOT
BRANCH   6   7
ATOM      7  O   UNL     1       5.064   6.081  22.851  0.00  0.00    -0.386 OA
ATOM      8  H   UNL     1       4.974   5.212  22.419  0.00  0.00    +0.210 HD
ENDBRANCH   6   7
BRANCH   5   9
ATOM      9  O   UNL     1       7.551   5.703  21.476  0.00  0.00    -0.387 OA
ATOM     10  H   UNL     1       8.521   5.805  21.419  0.00  0.00    +0.210 HD
ENDBRANCH   5   9
BRANCH   4  11
ATOM     11  N   UNL     1       9.251   3.599  23.246  0.00  0.00    -0.300 NA
ATOM     12  H   UNL     1       8.647   3.146  22.549  0.00  0.00    +0.123 HD
BRANCH  11  13
ATOM     13  C   UNL     1       9.304   2.657  24.406  0.00  0.00    +0.114 C 
ATOM     14  C   UNL     1      10.332   1.549  24.044  0.00  0.00    +0.167 C 
ATOM     15  C   UNL     1       9.818   0.684  22.874  0.00  0.00    +0.200 C 
ATOM     16  C   UNL     1       8.359   0.212  23.112  0.00  0.00    +0.282 C 
ATOM     17  O   UNL     1       7.485   1.238  23.574  0.00  0.00    -0.344 OA
ATOM     18  C   UNL     1       7.938   1.995  24.706  0.00  0.00    +0.138 C 
ATOM     19  C   UNL     1       7.890   1.221  26.027  0.00  0.00    +0.039 C 
BRANCH  15  20
ATOM     20  O   UNL     1       9.877   1.425  21.635  0.00  0.00    -0.384 OA
ATOM     21  H   UNL     1       8.987   1.771  21.441  0.00  0.00    +0.210 HD
ENDBRANCH  15  20
BRANCH  14  22
ATOM     22  O   UNL     1      10.660   0.744  25.179  0.00  0.00    -0.387 OA
ATOM     23  H   UNL     1      11.619   0.570  25.164  0.00  0.00    +0.210 HD
ENDBRANCH  14  22
BRANCH  16  24
ATOM     24  O   UNL     1       8.322  -0.932  23.957  0.00  0.00    -0.340 OA
BRANCH  24  25
ATOM     25  C   UNL     1       8.342  -2.207  23.275  0.00  0.00    +0.183 C 
ATOM     26  C   UNL     1       6.971  -2.293  22.567  0.00  0.00    +0.179 C 
ATOM     27  C   UNL     1       5.839  -2.292  23.628  0.00  0.00    +0.201 C 
ATOM     28  C   UNL     1       6.141  -3.235  24.843  0.00  0.00    +0.282 C 
ATOM     29  O   UNL     1       7.510  -3.180  25.271  0.00  0.00    -0.341 OA
ATOM     30  C   UNL     1       8.418  -3.432  24.193  0.00  0.00    +0.178 C 
BRANCH  27  31
ATOM     31  O   UNL     1       5.609  -0.943  24.076  0.00  0.00    -0.384 OA
ATOM     32  H   UNL     1       5.252  -0.456  23.306  0.00  0.00    +0.210 HD
ENDBRANCH  27  31
BRANCH  26  33
ATOM     33  O   UNL     1       6.945  -3.442  21.720  0.00  0.00    -0.386 OA
ATOM     34  H   UNL     1       7.454  -3.237  20.926  0.00  0.00    +0.210 HD
ENDBRANCH  26  33
BRANCH  28  35
ATOM     35  O   UNL     1       5.801  -4.549  24.449  0.00  0.00    -0.340 OA
BRANCH  35  36
ATOM     36  C   UNL     1       4.645  -5.214  24.990  0.00  0.00    +0.181 C 
ATOM     37  C   UNL     1       3.937  -5.675  23.685  0.00  0.00    +0.179 C 
ATOM     38  C   UNL     1       2.908  -6.785  23.882  0.00  0.00    +0.201 C 
ATOM     39  C   UNL     1       3.546  -7.890  24.720  0.00  0.00    +0.279 C 
ATOM     40  O   UNL     1       3.859  -7.368  25.994  0.00  0.00    -0.343 OA
ATOM     41  C   UNL     1       4.931  -6.419  25.931  0.00  0.00    +0.150 C 
ATOM     42  C   UNL     1       5.175  -6.040  27.394  0.00  0.00    +0.041 C 
BRANCH  39  43
ATOM     43  O   UNL     1       2.614  -8.941  24.900  0.00  0.00    -0.365 OA
ATOM     44  H   UNL     1       3.075  -9.718  24.538  0.00  0.00    +0.213 HD
ENDBRANCH  39  43
BRANCH  38  45
ATOM     45  O   UNL     1       2.482  -7.317  22.622  0.00  0.00    -0.384 OA
ATOM     46  H   UNL     1       3.274  -7.730  22.226  0.00  0.00    +0.210 HD
ENDBRANCH  38  45
BRANCH  37  47
ATOM     47  O   UNL     1       3.357  -4.540  23.003  0.00  0.00    -0.386 OA
ATOM     48  H   UNL     1       2.708  -4.127  23.596  0.00  0.00    +0.210 HD
ENDBRANCH  37  47
ENDBRANCH  35  36
ENDBRANCH  28  35
BRANCH  30  49
ATOM     49  C   UNL     1       9.817  -3.851  24.683  0.00  0.00    +0.190 C 
BRANCH  49  50
ATOM     50  O   UNL     1       9.952  -5.257  24.859  0.00  0.00    -0.392 OA
ATOM     51  H   UNL     1      10.101  -5.687  24.001  0.00  0.00    +0.210 HD
ENDBRANCH  49  50
ENDBRANCH  30  49
ENDBRANCH  24  25
ENDBRANCH  16  24
ENDBRANCH  11  13
ENDBRANCH   4  11
BRANCH   2  52
ATOM     52  C   UNL     1       7.591   5.637  27.211  0.00  0.00    +0.189 C 
BRANCH  52  53
ATOM     53  O   UNL     1       7.499   4.360  27.823  0.00  0.00    -0.391 OA
ATOM     54  H   UNL     1       6.554   4.172  27.947  0.00  0.00    +0.210 HD
ENDBRANCH  52  53
ENDBRANCH   2  52
BRANCH   1  55
ATOM     55  O   UNL     1       5.113   5.101  25.536  0.00  0.00    -0.338 OA
BRANCH  55  59
ATOM     56  C   UNL     1       2.778   2.376  26.657  0.00  0.00    +0.183 C 
ATOM     57  C   UNL     1       2.649   3.108  25.282  0.00  0.00    +0.179 C 
ATOM     58  C   UNL     1       4.041   3.161  24.596  0.00  0.00    +0.201 C 
ATOM     59  C   UNL     1       5.167   3.680  25.537  0.00  0.00    +0.282 C 
ATOM     60  O   UNL     1       5.117   3.108  26.843  0.00  0.00    -0.341 OA
ATOM     61  C   UNL     1       3.831   3.167  27.471  0.00  0.00    +0.178 C 
BRANCH  58  62
ATOM     62  O   UNL     1       4.391   1.869  24.059  0.00  0.00    -0.384 OA
ATOM     63  H   UNL     1       3.729   1.652  23.368  0.00  0.00    +0.210 HD
ENDBRANCH  58  62
BRANCH  57  64
ATOM     64  O   UNL     1       2.071   4.395  25.433  0.00  0.00    -0.386 OA
ATOM     65  H   UNL     1       2.538   5.004  24.828  0.00  0.00    +0.210 HD
ENDBRANCH  57  64
BRANCH  56  66
ATOM     66  O   UNL     1       3.118   1.029  26.294  0.00  0.00    -0.340 OA
BRANCH  66  72
ATOM     67  C   UNL     1       0.443  -2.858  27.190  0.00  0.00    +0.041 C 
ATOM     68  C   UNL     1       1.635  -2.023  27.651  0.00  0.00    +0.149 C 
ATOM     69  C   UNL     1       2.897  -2.895  27.783  0.00  0.00    +0.174 C 
ATOM     70  C   UNL     1       4.084  -2.018  28.196  0.00  0.00    +0.179 C 
ATOM     71  C   UNL     1       4.216  -0.803  27.296  0.00  0.00    +0.201 C 
ATOM     72  C   UNL     1       2.869  -0.049  27.186  0.00  0.00    +0.282 C 
ATOM     73  O   UNL     1       1.828  -0.918  26.743  0.00  0.00    -0.343 OA
BRANCH  71  74
ATOM     74  O   UNL     1       5.262   0.028  27.839  0.00  0.00    -0.384 OA
ATOM     75  H   UNL     1       5.550  -0.345  28.692  0.00  0.00    +0.210 HD
ENDBRANCH  71  74
BRANCH  70  76
ATOM     76  O   UNL     1       5.292  -2.789  28.178  0.00  0.00    -0.386 OA
ATOM     77  H   UNL     1       5.557  -2.862  27.239  0.00  0.00    +0.210 HD
ENDBRANCH  70  76
BRANCH  69  78
ATOM     78  O   UNL     1       2.670  -3.895  28.788  0.00  0.00    -0.387 OA
ATOM     79  H   UNL     1       2.618  -3.440  29.650  0.00  0.00    +0.210 HD
ENDBRANCH  69  78
ENDBRANCH  66  72
ENDBRANCH  56  66
BRANCH  61  80
ATOM     80  C   UNL     1       4.031   2.757  28.934  0.00  0.00    +0.190 C 
BRANCH  80  81
ATOM     81  O   UNL     1       5.390   2.609  29.309  0.00  0.00    -0.392 OA
ATOM     82  H   UNL     1       5.779   1.878  28.794  0.00  0.00    +0.210 HD
ENDBRANCH  80  81
ENDBRANCH  61  80
ENDBRANCH  55  59
ENDBRANCH   1  55
TORSDOF 30
ENDMDL
MODEL 2
REMARK VINA RESULT:      -6.8      1.430      2.371
REMARK  Name = 
REMARK  33 active torsions:
REMARK  status: ('A' for Active; 'I' for Inactive)
REMARK    1  A    between atoms: C_1  and  C_2
REMARK    2  A    between atoms: C_5  and  O_7
REMARK    3  A    between atoms: O_7  and  C_8
REMARK    4  A    between atoms: C_10  and  C_12
REMARK    5  A    between atoms: C_12  and  O_13
REMARK    6  A    between atoms: C_15  and  O_17
REMARK    7  A    between atoms: O_17  and  C_18
REMARK    8  A    between atoms: C_20  and  O_22
REMARK    9  A    between atoms: C_23  and  O_25
REMARK   10  A    between atoms: C_26  and  N_28
REMARK   11  A    between atoms: N_28  and  C_29
REMARK   12  A    between atoms: C_31  and  C_33
REMARK   13  A    between atoms: C_35  and  O_37
REMARK   14  A    between atoms: O_37  and  C_38
REMARK   15  A    between atoms: C_40  and  C_42
REMARK   16  A    between atoms: C_42  and  O_43
REMARK   17  A    between atoms: C_45  and  O_47
REMARK   18  A    between atoms: O_47  and  C_48
REMARK   19  A    between atoms: C_50  and  C_52
REMARK   20  A    between atoms: C_54  and  O_56
REMARK   21  A    between atoms: C_57  and  O_59
REMARK   22  A    between atoms: C_60  and  O_62
REMARK   23  A    between atoms: C_63  and  O_65
REMARK   24  A    between atoms: C_66  and  O_68
REMARK   25  A    between atoms: C_69  and  O_71
REMARK   26  A    between atoms: C_72  and  O_74
REMARK   27  A    between atoms: C_76  and  C_77
REMARK   28  A    between atoms: C_77  and  O_78
REMARK   29  A    between atoms: C_79  and  O_81
REMARK   30  A    between atoms: C_82  and  O_84
REMARK   31  A    between atoms: C_85  and  O_87
REMARK   32  A    between atoms: C_88  and  O_90
REMARK   33  A    between atoms: C_91  and  O_93
REMARK                            x       y       z     vdW  Elec       q    Type
REMARK                         _______ _______ _______ _____ _____    ______ ____
ROOT
ATOM      1  C   UNL     1       5.753   6.650  24.421  0.00  0.00    +0.180 C 
ATOM      2  C   UNL     1       6.961   6.493  25.305  0.00  0.00    -0.016 C 
ATOM      3  C   UNL     1       8.146   6.077  24.822  0.00  0.00    -0.002 C 
ATOM      4  C   UNL     1       8.437   5.699  23.393  0.00  0.00    +0.109 C 
ATOM      5  C   UNL     1       7.189   5.665  22.474  0.00  0.00    +0.166 C 
ATOM      6  C   UNL     1       6.072   6.636  22.902  0.00  0.00    +0.178 C 
ENDROOT
BRANCH   6   7
ATOM      7  O   UNL     1       4.912   6.392  22.083  0.00  0.00    -0.386 OA
ATOM      8  H   UNL     1       4.146   6.310  22.681  0.00  0.00    +0.210 HD
ENDBRANCH   6   7
BRANCH   5   9
ATOM      9  O   UNL     1       7.591   6.031  21.129  0.00  0.00    -0.387 OA
ATOM     10  H   UNL     1       6.783   5.957  20.584  0.00  0.00    +0.210 HD
ENDBRANCH   5   9
BRANCH   4  11
ATOM     11  N   UNL     1       9.163   4.410  23.444  0.00  0.00    -0.300 NA
ATOM     12  H   UNL     1      10.081   4.583  23.016  0.00  0.00    +0.123 HD
BRANCH  11  13
ATOM     13  C   UNL     1       8.561   3.285  22.665  0.00  0.00    +0.114 C 
ATOM     14  C   UNL     1       7.502   2.613  23.584  0.00  0.00    +0.167 C 
ATOM     15  C   UNL     1       8.177   1.926  24.789  0.00  0.00    +0.200 C 
ATOM     16  C   UNL     1       9.362   1.028  24.344  0.00  0.00    +0.282 C 
ATOM     17  O   UNL     1      10.231   1.643  23.396  0.00  0.00    -0.344 OA
ATOM     18  C   UNL     1       9.604   2.222  22.242  0.00  0.00    +0.138 C 
ATOM     19  C   UNL     1       9.078   1.189  21.240  0.00  0.00    +0.039 C 
BRANCH  15  20
ATOM     20  O   UNL     1       8.660   2.912  25.727  0.00  0.00    -0.384 OA
ATOM     21  H   UNL     1       8.096   2.883  26.522  0.00  0.00    +0.210 HD
ENDBRANCH  15  20
BRANCH  14  22
ATOM     22  O   UNL     1       6.680   1.697  22.856  0.00  0.00    -0.387 OA
ATOM     23  H   UNL     1       6.953   0.791  23.087  0.00  0.00    +0.210 HD
ENDBRANCH  14  22
BRANCH  16  24
ATOM     24  O   UNL     1       8.903  -0.241  23.893  0.00  0.00    -0.340 OA
BRANCH  24  25
ATOM     25  C   UNL     1       9.415  -1.379  24.622  0.00  0.00    +0.183 C 
ATOM     26  C   UNL     1       9.401  -2.538  23.601  0.00  0.00    +0.179 C 
ATOM     27  C   UNL     1       7.941  -2.822  23.159  0.00  0.00    +0.201 C 
ATOM     28  C   UNL     1       6.933  -2.838  24.358  0.00  0.00    +0.282 C 
ATOM     29  O   UNL     1       7.191  -1.808  25.324  0.00  0.00    -0.341 OA
ATOM     30  C   UNL     1       8.543  -1.842  25.795  0.00  0.00    +0.178 C 
BRANCH  27  31
ATOM     31  O   UNL     1       7.545  -1.847  22.175  0.00  0.00    -0.384 OA
ATOM     32  H   UNL     1       6.771  -1.379  22.550  0.00  0.00    +0.210 HD
ENDBRANCH  27  31
BRANCH  26  33
ATOM     33  O   UNL     1      10.048  -3.678  24.168  0.00  0.00    -0.386 OA
ATOM     34  H   UNL     1       9.719  -3.788  25.068  0.00  0.00    +0.210 HD
ENDBRANCH  26  33
BRANCH  28  35
ATOM     35  O   UNL     1       7.021  -4.113  24.963  0.00  0.00    -0.340 OA
BRANCH  35  36
ATOM     36  C   UNL     1       6.098  -5.163  24.625  0.00  0.00    +0.181 C 
ATOM     37  C   UNL     1       4.817  -4.672  25.358  0.00  0.00    +0.179 C 
ATOM     38  C   UNL     1       3.523  -5.312  24.864  0.00  0.00    +0.201 C 
ATOM     39  C   UNL     1       3.493  -5.223  23.341  0.00  0.00    +0.279 C 
ATOM     40  O   UNL     1       4.565  -5.980  22.823  0.00  0.00    -0.343 OA
ATOM     41  C   UNL     1       5.832  -5.372  23.107  0.00  0.00    +0.150 C 
ATOM     42  C   UNL     1       6.844  -6.280  22.403  0.00  0.00    +0.041 C 
BRANCH  39  43
ATOM     43  O   UNL     1       2.289  -5.793  22.860  0.00  0.00    -0.365 OA
ATOM     44  H   UNL     1       1.649  -5.063  22.926  0.00  0.00    +0.213 HD
ENDBRANCH  39  43
BRANCH  38  45
ATOM     45  O   UNL     1       2.380  -4.641  25.411  0.00  0.00    -0.384 OA
ATOM     46  H   UNL     1       2.044  -5.222  26.121  0.00  0.00    +0.210 HD
ENDBRANCH  38  45
BRANCH  37  47
ATOM     47  O   UNL     1       4.968  -4.833  26.787  0.00  0.00    -0.386 OA
ATOM     48  H   UNL     1       4.129  -5.167  27.146  0.00  0.00    +0.210 HD
ENDBRANCH  37  47
ENDBRANCH  35  36
ENDBRANCH  28  35
BRANCH  30  49
ATOM     49  C   UNL     1       8.722  -1.101  27.133  0.00  0.00    +0.190 C 
BRANCH  49  50
ATOM     50  O   UNL     1       7.680  -0.171  27.405  0.00  0.00    -0.392 OA
ATOM     51  H   UNL     1       6.965  -0.271  26.753  0.00  0.00    +0.210 HD
ENDBRANCH  49  50
ENDBRANCH  30  49
ENDBRANCH  24  25
ENDBRANCH  16  24
ENDBRANCH  11  13
ENDBRANCH   4  11
BRANCH   2  52
ATOM     52  C   UNL     1       6.810   6.900  26.744  0.00  0.00    +0.189 C 
BRANCH  52  53
ATOM     53  O   UNL     1       6.614   5.741  27.539  0.00  0.00    -0.391 OA
ATOM     54  H   UNL     1       6.003   5.987  28.254  0.00  0.00    +0.210 HD
ENDBRANCH  52  53
ENDBRANCH   2  52
BRANCH   1  55
ATOM     55  O   UNL     1       4.643   5.869  24.880  0.00  0.00    -0.338 OA
BRANCH  55  59
ATOM     56  C   UNL     1       2.469   3.136  26.272  0.00  0.00    +0.183 C 
ATOM     57  C   UNL     1       2.205   3.829  24.897  0.00  0.00    +0.179 C 
ATOM     58  C   UNL     1       3.529   3.887  24.088  0.00  0.00    +0.201 C 
ATOM     59  C   UNL     1       4.724   4.450  24.912  0.00  0.00    +0.282 C 
ATOM     60  O   UNL     1       4.800   3.912  26.231  0.00  0.00    -0.341 OA
ATOM     61  C   UNL     1       3.575   3.966  26.969  0.00  0.00    +0.178 C 
BRANCH  58  62
ATOM     62  O   UNL     1       3.854   2.588  23.554  0.00  0.00    -0.384 OA
ATOM     63  H   UNL     1       3.137   2.341  22.932  0.00  0.00    +0.210 HD
ENDBRANCH  58  62
BRANCH  57  64
ATOM     64  O   UNL     1       1.618   5.110  25.067  0.00  0.00    -0.386 OA
ATOM     65  H   UNL     1       1.284   5.402  24.196  0.00  0.00    +0.210 HD
ENDBRANCH  57  64
BRANCH  56  66
ATOM     66  O   UNL     1       2.801   1.786  25.914  0.00  0.00    -0.340 OA
BRANCH  66  72
ATOM     67  C   UNL     1       0.456  -2.085  27.521  0.00  0.00    +0.041 C 
ATOM     68  C   UNL     1       1.701  -1.217  27.682  0.00  0.00    +0.149 C 
ATOM     69  C   UNL     1       2.979  -2.068  27.582  0.00  0.00    +0.174 C 
ATOM     70  C   UNL     1       4.208  -1.160  27.697  0.00  0.00    +0.179 C 
ATOM     71  C   UNL     1       4.123   0.014  26.738  0.00  0.00    +0.201 C 
ATOM     72  C   UNL     1       2.768   0.747  26.883  0.00  0.00    +0.282 C 
ATOM     73  O   UNL     1       1.675  -0.153  26.708  0.00  0.00    -0.343 OA
BRANCH  71  74
ATOM     74  O   UNL     1       5.243   0.880  27.011  0.00  0.00    -0.384 OA
ATOM     75  H   UNL     1       5.561   0.709  27.916  0.00  0.00    +0.210 HD
ENDBRANCH  71  74
BRANCH  70  76
ATOM     76  O   UNL     1       5.401  -1.917  27.457  0.00  0.00    -0.386 OA
ATOM     77  H   UNL     1       5.702  -2.239  28.330  0.00  0.00    +0.210 HD
ENDBRANCH  70  76
BRANCH  69  78
ATOM     78  O   UNL     1       2.990  -3.023  28.653  0.00  0.00    -0.387 OA
ATOM     79  H   UNL     1       3.903  -3.072  28.995  0.00  0.00    +0.210 HD
ENDBRANCH  69  78
ENDBRANCH  66  72
ENDBRANCH  56  66
BRANCH  61  80
ATOM     80  C   UNL     1       3.912   3.598  28.419  0.00  0.00    +0.190 C 
BRANCH  80  81
ATOM     81  O   UNL     1       5.285   3.327  28.638  0.00  0.00    -0.392 OA
ATOM     82  H   UNL     1       5.567   3.777  29.456  0.00  0.00    +0.210 HD
ENDBRANCH  80  81
ENDBRANCH  61  80
ENDBRANCH  55  59
ENDBRANCH   1  55
TORSDOF 30
ENDMDL
MODEL 3
REMARK VINA RESULT:      -6.2      2.312      9.891
REMARK  Name = 
REMARK  33 active torsions:
REMARK  status: ('A' for Active; 'I' for Inactive)
REMARK    1  A    between atoms: C_1  and  C_2
REMARK    2  A    between atoms: C_5  and  O_7
REMARK    3  A    between atoms: O_7  and  C_8
REMARK    4  A    between atoms: C_10  and  C_12
REMARK    5  A    between atoms: C_12  and  O_13
REMARK    6  A    between atoms: C_15  and  O_17
REMARK    7  A    between atoms: O_17  and  C_18
REMARK    8  A    between atoms: C_20  and  O_22
REMARK    9  A    between atoms: C_23  and  O_25
REMARK   10  A    between atoms: C_26  and  N_28
REMARK   11  A    between atoms: N_28  and  C_29
REMARK   12  A    between atoms: C_31  and  C_33
REMARK   13  A    between atoms: C_35  and  O_37
REMARK   14  A    between atoms: O_37  and  C_38
REMARK   15  A    between atoms: C_40  and  C_42
REMARK   16  A    between atoms: C_42  and  O_43
REMARK   17  A    between atoms: C_45  and  O_47
REMARK   18  A    between atoms: O_47  and  C_48
REMARK   19  A    between atoms: C_50  and  C_52
REMARK   20  A    between atoms: C_54  and  O_56
REMARK   21  A    between atoms: C_57  and  O_59
REMARK   22  A    between atoms: C_60  and  O_62
REMARK   23  A    between atoms: C_63  and  O_65
REMARK   24  A    between atoms: C_66  and  O_68
REMARK   25  A    between atoms: C_69  and  O_71
REMARK   26  A    between atoms: C_72  and  O_74
REMARK   27  A    between atoms: C_76  and  C_77
REMARK   28  A    between atoms: C_77  and  O_78
REMARK   29  A    between atoms: C_79  and  O_81
REMARK   30  A    between atoms: C_82  and  O_84
REMARK   31  A    between atoms: C_85  and  O_87
REMARK   32  A    between atoms: C_88  and  O_90
REMARK   33  A    between atoms: C_91  and  O_93
REMARK                            x       y       z     vdW  Elec       q    Type
REMARK                         _______ _______ _______ _____ _____    ______ ____
ROOT
ATOM      1  C   UNL     1       4.413  -7.048  26.508  0.00  0.00    +0.180 C 
ATOM      2  C   UNL     1       4.707  -6.636  27.926  0.00  0.00    -0.016 C 
ATOM      3  C   UNL     1       3.800  -5.989  28.681  0.00  0.00    -0.002 C 
ATOM      4  C   UNL     1       2.418  -5.577  28.247  0.00  0.00    +0.109 C 
ATOM      5  C   UNL     1       2.124  -5.811  26.743  0.00  0.00    +0.166 C 
ATOM      6  C   UNL     1       2.908  -6.986  26.129  0.00  0.00    +0.178 C 
ENDROOT
BRANCH   6   7
ATOM      7  O   UNL     1       2.684  -6.995  24.706  0.00  0.00    -0.386 OA
ATOM      8  H   UNL     1       2.729  -6.070  24.398  0.00  0.00    +0.210 HD
ENDBRANCH   6   7
BRANCH   5   9
ATOM      9  O   UNL     1       0.712  -6.101  26.584  0.00  0.00    -0.387 OA
ATOM     10  H   UNL     1       0.667  -6.859  25.969  0.00  0.00    +0.210 HD
ENDBRANCH   5   9
BRANCH   4  11
ATOM     11  N   UNL     1       2.256  -4.165  28.663  0.00  0.00    -0.300 NA
ATOM     12  H   UNL     1       1.356  -4.115  29.156  0.00  0.00    +0.123 HD
BRANCH  11  13
ATOM     13  C   UNL     1       2.170  -3.160  27.561  0.00  0.00    +0.114 C 
ATOM     14  C   UNL     1       3.614  -2.648  27.299  0.00  0.00    +0.167 C 
ATOM     15  C   UNL     1       4.140  -1.846  28.507  0.00  0.00    +0.200 C 
ATOM     16  C   UNL     1       3.114  -0.781  28.976  0.00  0.00    +0.282 C 
ATOM     17  O   UNL     1       1.777  -1.266  29.070  0.00  0.00    -0.344 OA
ATOM     18  C   UNL     1       1.268  -1.953  27.918  0.00  0.00    +0.138 C 
ATOM     19  C   UNL     1       0.955  -1.030  26.735  0.00  0.00    +0.039 C 
BRANCH  15  20
ATOM     20  O   UNL     1       4.438  -2.731  29.609  0.00  0.00    -0.384 OA
ATOM     21  H   UNL     1       5.396  -2.694  29.784  0.00  0.00    +0.210 HD
ENDBRANCH  15  20
BRANCH  14  22
ATOM     22  O   UNL     1       3.690  -1.883  26.093  0.00  0.00    -0.387 OA
ATOM     23  H   UNL     1       4.581  -1.494  26.034  0.00  0.00    +0.210 HD
ENDBRANCH  14  22
BRANCH  16  24
ATOM     24  O   UNL     1       3.192   0.394  28.177  0.00  0.00    -0.340 OA
BRANCH  24  25
ATOM     25  C   UNL     1       3.710   1.565  28.848  0.00  0.00    +0.183 C 
ATOM     26  C   UNL     1       2.923   2.746  28.238  0.00  0.00    +0.179 C 
ATOM     27  C   UNL     1       3.228   2.843  26.719  0.00  0.00    +0.201 C 
ATOM     28  C   UNL     1       4.752   2.680  26.392  0.00  0.00    +0.282 C 
ATOM     29  O   UNL     1       5.390   1.662  27.177  0.00  0.00    -0.341 OA
ATOM     30  C   UNL     1       5.190   1.863  28.580  0.00  0.00    +0.178 C 
BRANCH  27  31
ATOM     31  O   UNL     1       2.449   1.859  26.014  0.00  0.00    -0.384 OA
ATOM     32  H   UNL     1       1.678   1.660  26.585  0.00  0.00    +0.210 HD
ENDBRANCH  27  31
BRANCH  26  33
ATOM     33  O   UNL     1       3.235   3.943  28.951  0.00  0.00    -0.386 OA
ATOM     34  H   UNL     1       3.819   4.475  28.397  0.00  0.00    +0.210 HD
ENDBRANCH  26  33
BRANCH  28  35
ATOM     35  O   UNL     1       5.367   3.933  26.619  0.00  0.00    -0.340 OA
BRANCH  35  36
ATOM     36  C   UNL     1       5.811   4.754  25.524  0.00  0.00    +0.181 C 
ATOM     37  C   UNL     1       7.337   4.456  25.536  0.00  0.00    +0.179 C 
ATOM     38  C   UNL     1       8.061   4.816  24.243  0.00  0.00    +0.201 C 
ATOM     39  C   UNL     1       7.278   4.226  23.072  0.00  0.00    +0.279 C 
ATOM     40  O   UNL     1       6.005   4.833  23.029  0.00  0.00    -0.343 OA
ATOM     41  C   UNL     1       5.186   4.432  24.136  0.00  0.00    +0.150 C 
ATOM     42  C   UNL     1       3.843   5.116  23.869  0.00  0.00    +0.041 C 
BRANCH  39  43
ATOM     43  O   UNL     1       7.943   4.530  21.860  0.00  0.00    -0.365 OA
ATOM     44  H   UNL     1       7.564   5.388  21.601  0.00  0.00    +0.213 HD
ENDBRANCH  39  43
BRANCH  38  45
ATOM     45  O   UNL     1       9.396   4.295  24.242  0.00  0.00    -0.384 OA
ATOM     46  H   UNL     1       9.819   4.645  25.051  0.00  0.00    +0.210 HD
ENDBRANCH  38  45
BRANCH  37  47
ATOM     47  O   UNL     1       7.959   5.090  26.678  0.00  0.00    -0.386 OA
ATOM     48  H   UNL     1       8.690   4.525  26.978  0.00  0.00    +0.210 HD
ENDBRANCH  37  47
ENDBRANCH  35  36
ENDBRANCH  28  35
BRANCH  30  49
ATOM     49  C   UNL     1       6.220   1.108  29.440  0.00  0.00    +0.190 C 
BRANCH  49  50
ATOM     50  O   UNL     1       7.568   1.428  29.112  0.00  0.00    -0.392 OA
ATOM     51  H   UNL     1       7.837   2.245  29.566  0.00  0.00    +0.210 HD
ENDBRANCH  49  50
ENDBRANCH  30  49
ENDBRANCH  24  25
ENDBRANCH  16  24
ENDBRANCH  11  13
ENDBRANCH   4  11
BRANCH   2  52
ATOM     52  C   UNL     1       6.036  -7.048  28.493  0.00  0.00    +0.189 C 
BRANCH  52  53
ATOM     53  O   UNL     1       6.991  -6.030  28.234  0.00  0.00    -0.391 OA
ATOM     54  H   UNL     1       7.270  -5.676  29.096  0.00  0.00    +0.210 HD
ENDBRANCH  52  53
ENDBRANCH   2  52
BRANCH   1  55
ATOM     55  O   UNL     1       5.361  -6.506  25.581  0.00  0.00    -0.338 OA
BRANCH  55  59
ATOM     56  C   UNL     1       7.508  -4.284  23.440  0.00  0.00    +0.183 C 
ATOM     57  C   UNL     1       6.169  -4.922  22.946  0.00  0.00    +0.179 C 
ATOM     58  C   UNL     1       5.068  -4.699  24.018  0.00  0.00    +0.201 C 
ATOM     59  C   UNL     1       5.522  -5.099  25.452  0.00  0.00    +0.282 C 
ATOM     60  O   UNL     1       6.834  -4.643  25.775  0.00  0.00    -0.341 OA
ATOM     61  C   UNL     1       7.832  -4.955  24.797  0.00  0.00    +0.178 C 
BRANCH  58  62
ATOM     62  O   UNL     1       4.613  -3.331  23.999  0.00  0.00    -0.384 OA
ATOM     63  H   UNL     1       3.942  -3.256  23.287  0.00  0.00    +0.210 HD
ENDBRANCH  58  62
BRANCH  57  64
ATOM     64  O   UNL     1       6.338  -6.292  22.621  0.00  0.00    -0.386 OA
ATOM     65  H   UNL     1       7.253  -6.412  22.300  0.00  0.00    +0.210 HD
ENDBRANCH  57  64
BRANCH  56  66
ATOM     66  O   UNL     1       7.226  -2.876  23.463  0.00  0.00    -0.340 OA
BRANCH  66  72
ATOM     67  C   UNL     1      10.072   0.644  21.860  0.00  0.00    +0.041 C 
ATOM     68  C   UNL     1       9.619  -0.140  23.089  0.00  0.00    +0.149 C 
ATOM     69  C   UNL     1       9.111   0.810  24.188  0.00  0.00    +0.174 C 
ATOM     70  C   UNL     1       8.616  -0.011  25.384  0.00  0.00    +0.179 C 
ATOM     71  C   UNL     1       7.646  -1.095  24.952  0.00  0.00    +0.201 C 
ATOM     72  C   UNL     1       8.238  -1.937  23.797  0.00  0.00    +0.282 C 
ATOM     73  O   UNL     1       8.622  -1.109  22.700  0.00  0.00    -0.343 OA
BRANCH  71  74
ATOM     74  O   UNL     1       7.343  -1.896  26.111  0.00  0.00    -0.384 OA
ATOM     75  H   UNL     1       6.441  -1.687  26.413  0.00  0.00    +0.210 HD
ENDBRANCH  71  74
BRANCH  70  76
ATOM     76  O   UNL     1       8.005   0.852  26.352  0.00  0.00    -0.386 OA
ATOM     77  H   UNL     1       7.227   1.249  25.911  0.00  0.00    +0.210 HD
ENDBRANCH  70  76
BRANCH  69  78
ATOM     78  O   UNL     1      10.189   1.660  24.605  0.00  0.00    -0.387 OA
ATOM     79  H   UNL     1      10.248   1.605  25.579  0.00  0.00    +0.210 HD
ENDBRANCH  69  78
ENDBRANCH  66  72
ENDBRANCH  56  66
BRANCH  61  80
ATOM     80  C   UNL     1       9.191  -4.630  25.428  0.00  0.00    +0.190 C 
BRANCH  80  81
ATOM     81  O   UNL     1      10.169  -5.636  25.235  0.00  0.00    -0.392 OA
ATOM     82  H   UNL     1      10.365  -6.052  26.095  0.00  0.00    +0.210 HD
ENDBRANCH  80  81
ENDBRANCH  61  80
ENDBRANCH  55  59
ENDBRANCH   1  55
TORSDOF 30
ENDMDL
MODEL 4
REMARK VINA RESULT:      -5.7      1.711      5.872
REMARK  Name = 
REMARK  33 active torsions:
REMARK  status: ('A' for Active; 'I' for Inactive)
REMARK    1  A    between atoms: C_1  and  C_2
REMARK    2  A    between atoms: C_5  and  O_7
REMARK    3  A    between atoms: O_7  and  C_8
REMARK    4  A    between atoms: C_10  and  C_12
REMARK    5  A    between atoms: C_12  and  O_13
REMARK    6  A    between atoms: C_15  and  O_17
REMARK    7  A    between atoms: O_17  and  C_18
REMARK    8  A    between atoms: C_20  and  O_22
REMARK    9  A    between atoms: C_23  and  O_25
REMARK   10  A    between atoms: C_26  and  N_28
REMARK   11  A    between atoms: N_28  and  C_29
REMARK   12  A    between atoms: C_31  and  C_33
REMARK   13  A    between atoms: C_35  and  O_37
REMARK   14  A    between atoms: O_37  and  C_38
REMARK   15  A    between atoms: C_40  and  C_42
REMARK   16  A    between atoms: C_42  and  O_43
REMARK   17  A    between atoms: C_45  and  O_47
REMARK   18  A    between atoms: O_47  and  C_48
REMARK   19  A    between atoms: C_50  and  C_52
REMARK   20  A    between atoms: C_54  and  O_56
REMARK   21  A    between atoms: C_57  and  O_59
REMARK   22  A    between atoms: C_60  and  O_62
REMARK   23  A    between atoms: C_63  and  O_65
REMARK   24  A    between atoms: C_66  and  O_68
REMARK   25  A    between atoms: C_69  and  O_71
REMARK   26  A    between atoms: C_72  and  O_74
REMARK   27  A    between atoms: C_76  and  C_77
REMARK   28  A    between atoms: C_77  and  O_78
REMARK   29  A    between atoms: C_79  and  O_81
REMARK   30  A    between atoms: C_82  and  O_84
REMARK   31  A    between atoms: C_85  and  O_87
REMARK   32  A    between atoms: C_88  and  O_90
REMARK   33  A    between atoms: C_91  and  O_93
REMARK                            x       y       z     vdW  Elec       q    Type
REMARK                         _______ _______ _______ _____ _____    ______ ____
ROOT
ATOM      1  C   UNL     1       8.284   5.236  24.122  0.00  0.00    +0.180 C 
ATOM      2  C   UNL     1       6.811   5.056  23.871  0.00  0.00    -0.016 C 
ATOM      3  C   UNL     1       5.909   5.095  24.869  0.00  0.00    -0.002 C 
ATOM      4  C   UNL     1       6.214   5.296  26.331  0.00  0.00    +0.109 C 
ATOM      5  C   UNL     1       7.726   5.304  26.673  0.00  0.00    +0.166 C 
ATOM      6  C   UNL     1       8.623   5.807  25.526  0.00  0.00    +0.178 C 
ENDROOT
BRANCH   6   7
ATOM      7  O   UNL     1      10.001   5.608  25.898  0.00  0.00    -0.386 OA
ATOM      8  H   UNL     1      10.023   4.889  26.557  0.00  0.00    +0.210 HD
ENDBRANCH   6   7
BRANCH   5   9
ATOM      9  O   UNL     1       7.941   6.181  27.808  0.00  0.00    -0.387 OA
ATOM     10  H   UNL     1       7.069   6.577  28.003  0.00  0.00    +0.210 HD
ENDBRANCH   5   9
BRANCH   4  11
ATOM     11  N   UNL     1       5.454   4.256  27.060  0.00  0.00    -0.300 NA
ATOM     12  H   UNL     1       5.918   4.150  27.970  0.00  0.00    +0.123 HD
BRANCH  11  13
ATOM     13  C   UNL     1       5.451   2.892  26.448  0.00  0.00    +0.114 C 
ATOM     14  C   UNL     1       3.972   2.414  26.412  0.00  0.00    +0.167 C 
ATOM     15  C   UNL     1       3.432   2.192  27.840  0.00  0.00    +0.200 C 
ATOM     16  C   UNL     1       4.406   1.336  28.692  0.00  0.00    +0.282 C 
ATOM     17  O   UNL     1       5.771   1.731  28.585  0.00  0.00    -0.344 OA
ATOM     18  C   UNL     1       6.289   1.870  27.253  0.00  0.00    +0.138 C 
ATOM     19  C   UNL     1       6.514   0.535  26.535  0.00  0.00    +0.039 C 
BRANCH  15  20
ATOM     20  O   UNL     1       3.217   3.459  28.500  0.00  0.00    -0.384 OA
ATOM     21  H   UNL     1       2.312   3.761  28.301  0.00  0.00    +0.210 HD
ENDBRANCH  15  20
BRANCH  14  22
ATOM     22  O   UNL     1       3.818   1.240  25.610  0.00  0.00    -0.387 OA
ATOM     23  H   UNL     1       3.026   1.352  25.053  0.00  0.00    +0.210 HD
ENDBRANCH  14  22
BRANCH  16  24
ATOM     24  O   UNL     1       4.236  -0.051  28.426  0.00  0.00    -0.340 OA
BRANCH  24  25
ATOM     25  C   UNL     1       3.034  -0.643  28.970  0.00  0.00    +0.183 C 
ATOM     26  C   UNL     1       3.476  -2.035  29.474  0.00  0.00    +0.179 C 
ATOM     27  C   UNL     1       3.975  -2.886  28.277  0.00  0.00    +0.201 C 
ATOM     28  C   UNL     1       3.041  -2.780  27.023  0.00  0.00    +0.282 C 
ATOM     29  O   UNL     1       2.559  -1.448  26.791  0.00  0.00    -0.341 OA
ATOM     30  C   UNL     1       1.920  -0.900  27.949  0.00  0.00    +0.178 C 
BRANCH  27  31
ATOM     31  O   UNL     1       5.320  -2.494  27.943  0.00  0.00    -0.384 OA
ATOM     32  H   UNL     1       5.912  -3.099  28.436  0.00  0.00    +0.210 HD
ENDBRANCH  27  31
BRANCH  26  33
ATOM     33  O   UNL     1       2.401  -2.645  30.187  0.00  0.00    -0.386 OA
ATOM     34  H   UNL     1       2.141  -3.442  29.708  0.00  0.00    +0.210 HD
ENDBRANCH  26  33
BRANCH  28  35
ATOM     35  O   UNL     1       1.958  -3.666  27.230  0.00  0.00    -0.340 OA
BRANCH  35  36
ATOM     36  C   UNL     1       1.875  -4.918  26.527  0.00  0.00    +0.181 C 
ATOM     37  C   UNL     1       2.292  -4.477  25.096  0.00  0.00    +0.179 C 
ATOM     38  C   UNL     1       2.735  -5.619  24.186  0.00  0.00    +0.201 C 
ATOM     39  C   UNL     1       3.752  -6.470  24.943  0.00  0.00    +0.279 C 
ATOM     40  O   UNL     1       3.116  -7.043  26.066  0.00  0.00    -0.343 OA
ATOM     41  C   UNL     1       2.795  -6.056  27.055  0.00  0.00    +0.150 C 
ATOM     42  C   UNL     1       2.203  -6.870  28.209  0.00  0.00    +0.041 C 
BRANCH  39  43
ATOM     43  O   UNL     1       4.193  -7.527  24.110  0.00  0.00    -0.365 OA
ATOM     44  H   UNL     1       4.085  -8.317  24.668  0.00  0.00    +0.213 HD
ENDBRANCH  39  43
BRANCH  38  45
ATOM     45  O   UNL     1       3.326  -5.115  22.982  0.00  0.00    -0.384 OA
ATOM     46  H   UNL     1       4.245  -5.447  22.977  0.00  0.00    +0.210 HD
ENDBRANCH  38  45
BRANCH  37  47
ATOM     47  O   UNL     1       1.234  -3.702  24.485  0.00  0.00    -0.386 OA
ATOM     48  H   UNL     1       0.462  -3.724  25.074  0.00  0.00    +0.210 HD
ENDBRANCH  37  47
ENDBRANCH  35  36
ENDBRANCH  28  35
BRANCH  30  49
ATOM     49  C   UNL     1       0.996   0.284  27.611  0.00  0.00    +0.190 C 
BRANCH  49  50
ATOM     50  O   UNL     1       0.855   0.505  26.212  0.00  0.00    -0.392 OA
ATOM     51  H   UNL     1       0.386   1.341  26.052  0.00  0.00    +0.210 HD
ENDBRANCH  49  50
ENDBRANCH  30  49
ENDBRANCH  24  25
ENDBRANCH  16  24
ENDBRANCH  11  13
ENDBRANCH   4  11
BRANCH   2  52
ATOM     52  C   UNL     1       6.377   4.909  22.439  0.00  0.00    +0.189 C 
BRANCH  52  53
ATOM     53  O   UNL     1       7.427   5.337  21.586  0.00  0.00    -0.391 OA
ATOM     54  H   UNL     1       7.331   4.848  20.751  0.00  0.00    +0.210 HD
ENDBRANCH  52  53
ENDBRANCH   2  52
BRANCH   1  55
ATOM     55  O   UNL     1       9.052   4.125  23.646  0.00  0.00    -0.338 OA
BRANCH  55  59
ATOM     56  C   UNL     1       8.861   0.538  22.539  0.00  0.00    +0.183 C 
ATOM     57  C   UNL     1      10.193   1.353  22.586  0.00  0.00    +0.179 C 
ATOM     58  C   UNL     1      10.298   2.087  23.951  0.00  0.00    +0.201 C 
ATOM     59  C   UNL     1       9.007   2.874  24.321  0.00  0.00    +0.282 C 
ATOM     60  O   UNL     1       7.810   2.139  24.079  0.00  0.00    -0.341 OA
ATOM     61  C   UNL     1       7.720   1.558  22.773  0.00  0.00    +0.178 C 
BRANCH  58  62
ATOM     62  O   UNL     1      10.639   1.159  25.000  0.00  0.00    -0.384 OA
ATOM     63  H   UNL     1      10.647   0.261  24.604  0.00  0.00    +0.210 HD
ENDBRANCH  58  62
BRANCH  57  64
ATOM     64  O   UNL     1      10.295   2.242  21.485  0.00  0.00    -0.386 OA
ATOM     65  H   UNL     1      11.074   1.975  20.959  0.00  0.00    +0.210 HD
ENDBRANCH  57  64
BRANCH  56  66
ATOM     66  O   UNL     1       9.044  -0.472  23.544  0.00  0.00    -0.340 OA
BRANCH  66  72
ATOM     67  C   UNL     1       6.339  -3.777  21.349  0.00  0.00    +0.041 C 
ATOM     68  C   UNL     1       6.788  -3.218  22.696  0.00  0.00    +0.149 C 
ATOM     69  C   UNL     1       7.379  -4.330  23.582  0.00  0.00    +0.174 C 
ATOM     70  C   UNL     1       7.866  -3.727  24.904  0.00  0.00    +0.179 C 
ATOM     71  C   UNL     1       8.764  -2.527  24.669  0.00  0.00    +0.201 C 
ATOM     72  C   UNL     1       8.093  -1.514  23.710  0.00  0.00    +0.282 C 
ATOM     73  O   UNL     1       7.720  -2.137  22.483  0.00  0.00    -0.343 OA
BRANCH  71  74
ATOM     74  O   UNL     1       9.059  -1.946  25.955  0.00  0.00    -0.384 OA
ATOM     75  H   UNL     1       9.767  -2.464  26.380  0.00  0.00    +0.210 HD
ENDBRANCH  71  74
BRANCH  70  76
ATOM     76  O   UNL     1       8.551  -4.723  25.674  0.00  0.00    -0.386 OA
ATOM     77  H   UNL     1       7.871  -5.153  26.232  0.00  0.00    +0.210 HD
ENDBRANCH  70  76
BRANCH  69  78
ATOM     78  O   UNL     1       6.360  -5.305  23.849  0.00  0.00    -0.387 OA
ATOM     79  H   UNL     1       5.791  -4.950  24.559  0.00  0.00    +0.210 HD
ENDBRANCH  69  78
ENDBRANCH  66  72
ENDBRANCH  56  66
BRANCH  61  80
ATOM     80  C   UNL     1       6.284   1.047  22.610  0.00  0.00    +0.190 C 
BRANCH  80  81
ATOM     81  O   UNL     1       5.308   1.870  23.224  0.00  0.00    -0.392 OA
ATOM     82  H   UNL     1       4.669   1.302  23.693  0.00  0.00    +0.210 HD
ENDBRANCH  80  81
ENDBRANCH  61  80
ENDBRANCH  55  59
ENDBRANCH   1  55
TORSDOF 30
ENDMDL
MODEL 5
REMARK VINA RESULT:      -5.7      2.328      9.232
REMARK  Name = 
REMARK  33 active torsions:
REMARK  status: ('A' for Active; 'I' for Inactive)
REMARK    1  A    between atoms: C_1  and  C_2
REMARK    2  A    between atoms: C_5  and  O_7
REMARK    3  A    between atoms: O_7  and  C_8
REMARK    4  A    between atoms: C_10  and  C_12
REMARK    5  A    between atoms: C_12  and  O_13
REMARK    6  A    between atoms: C_15  and  O_17
REMARK    7  A    between atoms: O_17  and  C_18
REMARK    8  A    between atoms: C_20  and  O_22
REMARK    9  A    between atoms: C_23  and  O_25
REMARK   10  A    between atoms: C_26  and  N_28
REMARK   11  A    between atoms: N_28  and  C_29
REMARK   12  A    between atoms: C_31  and  C_33
REMARK   13  A    between atoms: C_35  and  O_37
REMARK   14  A    between atoms: O_37  and  C_38
REMARK   15  A    between atoms: C_40  and  C_42
REMARK   16  A    between atoms: C_42  and  O_43
REMARK   17  A    between atoms: C_45  and  O_47
REMARK   18  A    between atoms: O_47  and  C_48
REMARK   19  A    between atoms: C_50  and  C_52
REMARK   20  A    between atoms: C_54  and  O_56
REMARK   21  A    between atoms: C_57  and  O_59
REMARK   22  A    between atoms: C_60  and  O_62
REMARK   23  A    between atoms: C_63  and  O_65
REMARK   24  A    between atoms: C_66  and  O_68
REMARK   25  A    between atoms: C_69  and  O_71
REMARK   26  A    between atoms: C_72  and  O_74
REMARK   27  A    between atoms: C_76  and  C_77
REMARK   28  A    between atoms: C_77  and  O_78
REMARK   29  A    between atoms: C_79  and  O_81
REMARK   30  A    between atoms: C_82  and  O_84
REMARK   31  A    between atoms: C_85  and  O_87
REMARK   32  A    between atoms: C_88  and  O_90
REMARK   33  A    between atoms: C_91  and  O_93
REMARK                            x       y       z     vdW  Elec       q    Type
REMARK                         _______ _______ _______ _____ _____    ______ ____
ROOT
ATOM      1  C   UNL     1       8.003  -5.154  23.771  0.00  0.00    +0.180 C 
ATOM      2  C   UNL     1       7.600  -5.333  25.210  0.00  0.00    -0.016 C 
ATOM      3  C   UNL     1       6.360  -5.722  25.558  0.00  0.00    -0.002 C 
ATOM      4  C   UNL     1       5.224  -6.009  24.612  0.00  0.00    +0.109 C 
ATOM      5  C   UNL     1       5.523  -5.666  23.130  0.00  0.00    +0.166 C 
ATOM      6  C   UNL     1       7.013  -5.780  22.752  0.00  0.00    +0.178 C 
ENDROOT
BRANCH   6   7
ATOM      7  O   UNL     1       7.187  -5.277  21.413  0.00  0.00    -0.386 OA
ATOM      8  H   UNL     1       8.077  -4.880  21.365  0.00  0.00    +0.210 HD
ENDBRANCH   6   7
BRANCH   5   9
ATOM      9  O   UNL     1       4.789  -6.586  22.282  0.00  0.00    -0.387 OA
ATOM     10  H   UNL     1       4.068  -6.059  21.886  0.00  0.00    +0.210 HD
ENDBRANCH   5   9
BRANCH   4  11
ATOM     11  N   UNL     1       4.044  -5.295  25.152  0.00  0.00    -0.300 NA
ATOM     12  H   UNL     1       4.069  -4.354  24.740  0.00  0.00    +0.123 HD
BRANCH  11  13
ATOM     13  C   UNL     1       4.020  -5.088  26.632  0.00  0.00    +0.114 C 
ATOM     14  C   UNL     1       2.645  -4.452  26.978  0.00  0.00    +0.167 C 
ATOM     15  C   UNL     1       2.533  -3.030  26.392  0.00  0.00    +0.200 C 
ATOM     16  C   UNL     1       3.784  -2.175  26.726  0.00  0.00    +0.282 C 
ATOM     17  O   UNL     1       5.022  -2.851  26.519  0.00  0.00    -0.344 OA
ATOM     18  C   UNL     1       5.146  -4.146  27.124  0.00  0.00    +0.138 C 
ATOM     19  C   UNL     1       5.309  -4.104  28.647  0.00  0.00    +0.039 C 
BRANCH  15  20
ATOM     20  O   UNL     1       2.372  -3.087  24.957  0.00  0.00    -0.384 OA
ATOM     21  H   UNL     1       2.368  -2.176  24.611  0.00  0.00    +0.210 HD
ENDBRANCH  15  20
BRANCH  14  22
ATOM     22  O   UNL     1       2.406  -4.453  28.388  0.00  0.00    -0.387 OA
ATOM     23  H   UNL     1       2.744  -5.289  28.755  0.00  0.00    +0.210 HD
ENDBRANCH  14  22
BRANCH  16  24
ATOM     24  O   UNL     1       3.696  -1.627  28.037  0.00  0.00    -0.340 OA
BRANCH  24  25
ATOM     25  C   UNL     1       4.608  -0.541  28.316  0.00  0.00    +0.183 C 
ATOM     26  C   UNL     1       3.917   0.274  29.432  0.00  0.00    +0.179 C 
ATOM     27  C   UNL     1       2.577   0.847  28.902  0.00  0.00    +0.201 C 
ATOM     28  C   UNL     1       2.702   1.460  27.465  0.00  0.00    +0.282 C 
ATOM     29  O   UNL     1       3.532   0.679  26.591  0.00  0.00    -0.341 OA
ATOM     30  C   UNL     1       4.825   0.437  27.155  0.00  0.00    +0.178 C 
BRANCH  27  31
ATOM     31  O   UNL     1       1.574  -0.186  28.928  0.00  0.00    -0.384 OA
ATOM     32  H   UNL     1       1.659  -0.627  29.798  0.00  0.00    +0.210 HD
ENDBRANCH  27  31
BRANCH  26  33
ATOM     33  O   UNL     1       4.810   1.281  29.907  0.00  0.00    -0.386 OA
ATOM     34  H   UNL     1       4.484   2.136  29.600  0.00  0.00    +0.210 HD
ENDBRANCH  26  33
BRANCH  28  35
ATOM     35  O   UNL     1       3.229   2.764  27.608  0.00  0.00    -0.340 OA
BRANCH  35  36
ATOM     36  C   UNL     1       2.705   3.867  26.848  0.00  0.00    +0.181 C 
ATOM     37  C   UNL     1       3.379   3.618  25.469  0.00  0.00    +0.179 C 
ATOM     38  C   UNL     1       2.714   4.340  24.301  0.00  0.00    +0.201 C 
ATOM     39  C   UNL     1       1.211   4.077  24.365  0.00  0.00    +0.279 C 
ATOM     40  O   UNL     1       0.704   4.639  25.556  0.00  0.00    -0.343 OA
ATOM     41  C   UNL     1       1.156   3.926  26.715  0.00  0.00    +0.150 C 
ATOM     42  C   UNL     1       0.443   4.621  27.878  0.00  0.00    +0.041 C 
BRANCH  39  43
ATOM     43  O   UNL     1       0.574   4.723  23.277  0.00  0.00    -0.365 OA
ATOM     44  H   UNL     1       0.938   5.625  23.303  0.00  0.00    +0.213 HD
ENDBRANCH  39  43
BRANCH  38  45
ATOM     45  O   UNL     1       3.234   3.875  23.049  0.00  0.00    -0.384 OA
ATOM     46  H   UNL     1       3.783   4.604  22.701  0.00  0.00    +0.210 HD
ENDBRANCH  38  45
BRANCH  37  47
ATOM     47  O   UNL     1       4.790   3.926  25.541  0.00  0.00    -0.386 OA
ATOM     48  H   UNL     1       5.040   4.396  24.728  0.00  0.00    +0.210 HD
ENDBRANCH  37  47
ENDBRANCH  35  36
ENDBRANCH  28  35
BRANCH  30  49
ATOM     49  C   UNL     1       5.869   0.041  26.095  0.00  0.00    +0.190 C 
BRANCH  49  50
ATOM     50  O   UNL     1       5.313  -0.137  24.797  0.00  0.00    -0.392 OA
ATOM     51  H   UNL     1       4.347  -0.030  24.831  0.00  0.00    +0.210 HD
ENDBRANCH  49  50
ENDBRANCH  30  49
ENDBRANCH  24  25
ENDBRANCH  16  24
ENDBRANCH  11  13
ENDBRANCH   4  11
BRANCH   2  52
ATOM     52  C   UNL     1       8.670  -5.134  26.248  0.00  0.00    +0.189 C 
BRANCH  52  53
ATOM     53  O   UNL     1       9.904  -5.624  25.746  0.00  0.00    -0.391 OA
ATOM     54  H   UNL     1      10.291  -4.916  25.204  0.00  0.00    +0.210 HD
ENDBRANCH  52  53
ENDBRANCH   2  52
BRANCH   1  55
ATOM     55  O   UNL     1       8.492  -3.833  23.508  0.00  0.00    -0.338 OA
BRANCH  55  59
ATOM     56  C   UNL     1       8.921  -0.126  23.059  0.00  0.00    +0.183 C 
ATOM     57  C   UNL     1       8.591  -1.102  21.884  0.00  0.00    +0.179 C 
ATOM     58  C   UNL     1       7.427  -2.039  22.306  0.00  0.00    +0.201 C 
ATOM     59  C   UNL     1       7.651  -2.702  23.696  0.00  0.00    +0.282 C 
ATOM     60  O   UNL     1       8.132  -1.792  24.684  0.00  0.00    -0.341 OA
ATOM     61  C   UNL     1       9.265  -1.016  24.278  0.00  0.00    +0.178 C 
BRANCH  58  62
ATOM     62  O   UNL     1       6.172  -1.329  22.284  0.00  0.00    -0.384 OA
ATOM     63  H   UNL     1       5.460  -1.999  22.200  0.00  0.00    +0.210 HD
ENDBRANCH  58  62
BRANCH  57  64
ATOM     64  O   UNL     1       9.742  -1.821  21.470  0.00  0.00    -0.386 OA
ATOM     65  H   UNL     1      10.106  -1.372  20.683  0.00  0.00    +0.210 HD
ENDBRANCH  57  64
BRANCH  56  66
ATOM     66  O   UNL     1       7.744   0.690  23.164  0.00  0.00    -0.340 OA
BRANCH  66  72
ATOM     67  C   UNL     1      10.603   4.515  23.671  0.00  0.00    +0.041 C 
ATOM     68  C   UNL     1       9.172   3.996  23.782  0.00  0.00    +0.149 C 
ATOM     69  C   UNL     1       8.209   4.862  22.950  0.00  0.00    +0.174 C 
ATOM     70  C   UNL     1       6.792   4.284  23.043  0.00  0.00    +0.179 C 
ATOM     71  C   UNL     1       6.777   2.798  22.732  0.00  0.00    +0.201 C 
ATOM     72  C   UNL     1       7.833   2.047  23.577  0.00  0.00    +0.282 C 
ATOM     73  O   UNL     1       9.132   2.607  23.394  0.00  0.00    -0.343 OA
BRANCH  71  74
ATOM     74  O   UNL     1       5.441   2.316  22.976  0.00  0.00    -0.384 OA
ATOM     75  H   UNL     1       4.988   2.934  23.579  0.00  0.00    +0.210 HD
ENDBRANCH  71  74
BRANCH  70  76
ATOM     76  O   UNL     1       5.916   4.990  22.156  0.00  0.00    -0.386 OA
ATOM     77  H   UNL     1       6.491   5.504  21.553  0.00  0.00    +0.210 HD
ENDBRANCH  70  76
BRANCH  69  78
ATOM     78  O   UNL     1       8.214   6.199  23.471  0.00  0.00    -0.387 OA
ATOM     79  H   UNL     1       7.474   6.271  24.105  0.00  0.00    +0.210 HD
ENDBRANCH  69  78
ENDBRANCH  66  72
ENDBRANCH  56  66
BRANCH  61  80
ATOM     80  C   UNL     1       9.792  -0.308  25.531  0.00  0.00    +0.190 C 
BRANCH  80  81
ATOM     81  O   UNL     1      10.644   0.790  25.256  0.00  0.00    -0.392 OA
ATOM     82  H   UNL     1      10.121   1.495  24.832  0.00  0.00    +0.210 HD
ENDBRANCH  80  81
ENDBRANCH  61  80
ENDBRANCH  55  59
ENDBRANCH   1  55
TORSDOF 30
ENDMDL
MODEL 6
REMARK VINA RESULT:      -5.6      1.766      6.068
REMARK  Name = 
REMARK  33 active torsions:
REMARK  status: ('A' for Active; 'I' for Inactive)
REMARK    1  A    between atoms: C_1  and  C_2
REMARK    2  A    between atoms: C_5  and  O_7
REMARK    3  A    between atoms: O_7  and  C_8
REMARK    4  A    between atoms: C_10  and  C_12
REMARK    5  A    between atoms: C_12  and  O_13
REMARK    6  A    between atoms: C_15  and  O_17
REMARK    7  A    between atoms: O_17  and  C_18
REMARK    8  A    between atoms: C_20  and  O_22
REMARK    9  A    between atoms: C_23  and  O_25
REMARK   10  A    between atoms: C_26  and  N_28
REMARK   11  A    between atoms: N_28  and  C_29
REMARK   12  A    between atoms: C_31  and  C_33
REMARK   13  A    between atoms: C_35  and  O_37
REMARK   14  A    between atoms: O_37  and  C_38
REMARK   15  A    between atoms: C_40  and  C_42
REMARK   16  A    between atoms: C_42  and  O_43
REMARK   17  A    between atoms: C_45  and  O_47
REMARK   18  A    between atoms: O_47  and  C_48
REMARK   19  A    between atoms: C_50  and  C_52
REMARK   20  A    between atoms: C_54  and  O_56
REMARK   21  A    between atoms: C_57  and  O_59
REMARK   22  A    between atoms: C_60  and  O_62
REMARK   23  A    between atoms: C_63  and  O_65
REMARK   24  A    between atoms: C_66  and  O_68
REMARK   25  A    between atoms: C_69  and  O_71
REMARK   26  A    between atoms: C_72  and  O_74
REMARK   27  A    between atoms: C_76  and  C_77
REMARK   28  A    between atoms: C_77  and  O_78
REMARK   29  A    between atoms: C_79  and  O_81
REMARK   30  A    between atoms: C_82  and  O_84
REMARK   31  A    between atoms: C_85  and  O_87
REMARK   32  A    between atoms: C_88  and  O_90
REMARK   33  A    between atoms: C_91  and  O_93
REMARK                            x       y       z     vdW  Elec       q    Type
REMARK                         _______ _______ _______ _____ _____    ______ ____
ROOT
ATOM      1  C   UNL     1       8.243   5.719  23.666  0.00  0.00    +0.180 C 
ATOM      2  C   UNL     1       6.780   5.892  23.356  0.00  0.00    -0.016 C 
ATOM      3  C   UNL     1       5.876   6.158  24.316  0.00  0.00    -0.002 C 
ATOM      4  C   UNL     1       6.163   6.301  25.788  0.00  0.00    +0.109 C 
ATOM      5  C   UNL     1       7.619   5.954  26.192  0.00  0.00    +0.166 C 
ATOM      6  C   UNL     1       8.654   6.212  25.080  0.00  0.00    +0.178 C 
ENDROOT
BRANCH   6   7
ATOM      7  O   UNL     1       9.929   5.697  25.509  0.00  0.00    -0.386 OA
ATOM      8  H   UNL     1      10.614   6.317  25.197  0.00  0.00    +0.210 HD
ENDBRANCH   6   7
BRANCH   5   9
ATOM      9  O   UNL     1       7.993   6.771  27.331  0.00  0.00    -0.387 OA
ATOM     10  H   UNL     1       7.417   7.559  27.290  0.00  0.00    +0.210 HD
ENDBRANCH   5   9
BRANCH   4  11
ATOM     11  N   UNL     1       5.149   5.482  26.491  0.00  0.00    -0.300 NA
ATOM     12  H   UNL     1       5.659   4.952  27.207  0.00  0.00    +0.123 HD
BRANCH  11  13
ATOM     13  C   UNL     1       4.439   4.461  25.662  0.00  0.00    +0.114 C 
ATOM     14  C   UNL     1       3.152   4.063  26.438  0.00  0.00    +0.167 C 
ATOM     15  C   UNL     1       3.505   3.318  27.742  0.00  0.00    +0.200 C 
ATOM     16  C   UNL     1       4.530   2.180  27.490  0.00  0.00    +0.282 C 
ATOM     17  O   UNL     1       5.625   2.559  26.659  0.00  0.00    -0.344 OA
ATOM     18  C   UNL     1       5.289   3.191  25.415  0.00  0.00    +0.138 C 
ATOM     19  C   UNL     1       4.700   2.233  24.374  0.00  0.00    +0.039 C 
BRANCH  15  20
ATOM     20  O   UNL     1       4.050   4.235  28.715  0.00  0.00    -0.384 OA
ATOM     21  H   UNL     1       4.998   4.360  28.524  0.00  0.00    +0.210 HD
ENDBRANCH  15  20
BRANCH  14  22
ATOM     22  O   UNL     1       2.264   3.293  25.623  0.00  0.00    -0.387 OA
ATOM     23  H   UNL     1       1.524   2.990  26.180  0.00  0.00    +0.210 HD
ENDBRANCH  14  22
BRANCH  16  24
ATOM     24  O   UNL     1       3.885   1.007  27.008  0.00  0.00    -0.340 OA
BRANCH  24  25
ATOM     25  C   UNL     1       3.215   0.212  28.014  0.00  0.00    +0.183 C 
ATOM     26  C   UNL     1       4.349  -0.567  28.717  0.00  0.00    +0.179 C 
ATOM     27  C   UNL     1       5.044  -1.505  27.696  0.00  0.00    +0.201 C 
ATOM     28  C   UNL     1       4.028  -2.276  26.786  0.00  0.00    +0.282 C 
ATOM     29  O   UNL     1       2.925  -1.462  26.360  0.00  0.00    -0.341 OA
ATOM     30  C   UNL     1       2.254  -0.848  27.466  0.00  0.00    +0.178 C 
BRANCH  27  31
ATOM     31  O   UNL     1       5.963  -0.738  26.895  0.00  0.00    -0.384 OA
ATOM     32  H   UNL     1       5.518   0.115  26.710  0.00  0.00    +0.210 HD
ENDBRANCH  27  31
BRANCH  26  33
ATOM     33  O   UNL     1       3.818  -1.261  29.846  0.00  0.00    -0.386 OA
ATOM     34  H   UNL     1       4.100  -0.793  30.642  0.00  0.00    +0.210 HD
ENDBRANCH  26  33
BRANCH  28  35
ATOM     35  O   UNL     1       3.562  -3.388  27.524  0.00  0.00    -0.340 OA
BRANCH  35  36
ATOM     36  C   UNL     1       3.922  -4.731  27.155  0.00  0.00    +0.181 C 
ATOM     37  C   UNL     1       2.767  -5.083  26.175  0.00  0.00    +0.179 C 
ATOM     38  C   UNL     1       3.055  -6.267  25.257  0.00  0.00    +0.201 C 
ATOM     39  C   UNL     1       4.427  -6.059  24.621  0.00  0.00    +0.279 C 
ATOM     40  O   UNL     1       5.404  -6.064  25.640  0.00  0.00    -0.343 OA
ATOM     41  C   UNL     1       5.309  -4.900  26.472  0.00  0.00    +0.150 C 
ATOM     42  C   UNL     1       6.484  -5.044  27.443  0.00  0.00    +0.041 C 
BRANCH  39  43
ATOM     43  O   UNL     1       4.709  -7.138  23.747  0.00  0.00    -0.365 OA
ATOM     44  H   UNL     1       5.637  -6.989  23.494  0.00  0.00    +0.213 HD
ENDBRANCH  39  43
BRANCH  38  45
ATOM     45  O   UNL     1       2.058  -6.375  24.234  0.00  0.00    -0.384 OA
ATOM     46  H   UNL     1       1.491  -5.586  24.329  0.00  0.00    +0.210 HD
ENDBRANCH  38  45
BRANCH  37  47
ATOM     47  O   UNL     1       1.535  -5.277  26.907  0.00  0.00    -0.386 OA
ATOM     48  H   UNL     1       0.948  -4.525  26.721  0.00  0.00    +0.210 HD
ENDBRANCH  37  47
ENDBRANCH  35  36
ENDBRANCH  28  35
BRANCH  30  49
ATOM     49  C   UNL     1       0.829  -0.383  27.110  0.00  0.00    +0.190 C 
BRANCH  49  50
ATOM     50  O   UNL     1       0.805   0.825  26.357  0.00  0.00    -0.392 OA
ATOM     51  H   UNL     1       0.054   1.376  26.634  0.00  0.00    +0.210 HD
ENDBRANCH  49  50
ENDBRANCH  30  49
ENDBRANCH  24  25
ENDBRANCH  16  24
ENDBRANCH  11  13
ENDBRANCH   4  11
BRANCH   2  52
ATOM     52  C   UNL     1       6.378   5.831  21.909  0.00  0.00    +0.189 C 
BRANCH  52  53
ATOM     53  O   UNL     1       7.429   6.355  21.110  0.00  0.00    -0.391 OA
ATOM     54  H   UNL     1       7.770   7.140  21.570  0.00  0.00    +0.210 HD
ENDBRANCH  52  53
ENDBRANCH   2  52
BRANCH   1  55
ATOM     55  O   UNL     1       8.742   4.450  23.227  0.00  0.00    -0.338 OA
BRANCH  55  59
ATOM     56  C   UNL     1       9.837   0.855  23.304  0.00  0.00    +0.183 C 
ATOM     57  C   UNL     1      10.303   1.918  24.350  0.00  0.00    +0.179 C 
ATOM     58  C   UNL     1       9.069   2.711  24.860  0.00  0.00    +0.201 C 
ATOM     59  C   UNL     1       8.166   3.243  23.709  0.00  0.00    +0.282 C 
ATOM     60  O   UNL     1       7.930   2.276  22.687  0.00  0.00    -0.341 OA
ATOM     61  C   UNL     1       9.110   1.639  22.184  0.00  0.00    +0.178 C 
BRANCH  58  62
ATOM     62  O   UNL     1       8.295   1.910  25.776  0.00  0.00    -0.384 OA
ATOM     63  H   UNL     1       8.080   1.070  25.318  0.00  0.00    +0.210 HD
ENDBRANCH  58  62
BRANCH  57  64
ATOM     64  O   UNL     1      11.307   2.766  23.815  0.00  0.00    -0.386 OA
ATOM     65  H   UNL     1      11.277   3.610  24.307  0.00  0.00    +0.210 HD
ENDBRANCH  57  64
BRANCH  56  66
ATOM     66  O   UNL     1       9.043  -0.058  24.077  0.00  0.00    -0.340 OA
BRANCH  66  72
ATOM     67  C   UNL     1       9.818  -4.724  24.907  0.00  0.00    +0.041 C 
ATOM     68  C   UNL     1       9.099  -3.711  24.020  0.00  0.00    +0.149 C 
ATOM     69  C   UNL     1       7.588  -4.000  23.972  0.00  0.00    +0.174 C 
ATOM     70  C   UNL     1       6.891  -2.936  23.117  0.00  0.00    +0.179 C 
ATOM     71  C   UNL     1       7.280  -1.534  23.549  0.00  0.00    +0.201 C 
ATOM     72  C   UNL     1       8.818  -1.387  23.628  0.00  0.00    +0.282 C 
ATOM     73  O   UNL     1       9.386  -2.376  24.485  0.00  0.00    -0.343 OA
BRANCH  71  74
ATOM     74  O   UNL     1       6.692  -0.611  22.610  0.00  0.00    -0.384 OA
ATOM     75  H   UNL     1       7.308  -0.482  21.866  0.00  0.00    +0.210 HD
ENDBRANCH  71  74
BRANCH  70  76
ATOM     76  O   UNL     1       5.470  -3.105  23.186  0.00  0.00    -0.386 OA
ATOM     77  H   UNL     1       5.159  -3.193  22.262  0.00  0.00    +0.210 HD
ENDBRANCH  70  76
BRANCH  69  78
ATOM     78  O   UNL     1       7.378  -5.294  23.389  0.00  0.00    -0.387 OA
ATOM     79  H   UNL     1       8.139  -5.482  22.808  0.00  0.00    +0.210 HD
ENDBRANCH  69  78
ENDBRANCH  66  72
ENDBRANCH  56  66
BRANCH  61  80
ATOM     80  C   UNL     1       8.693   0.849  20.939  0.00  0.00    +0.190 C 
BRANCH  80  81
ATOM     81  O   UNL     1       9.362  -0.392  20.795  0.00  0.00    -0.392 OA
ATOM     82  H   UNL     1      10.322  -0.228  20.755  0.00  0.00    +0.210 HD
ENDBRANCH  80  81
ENDBRANCH  61  80
ENDBRANCH  55  59
ENDBRANCH   1  55
TORSDOF 30
ENDMDL
MODEL 7
REMARK VINA RESULT:      -5.4      2.101      5.029
REMARK  Name = 
REMARK  33 active torsions:
REMARK  status: ('A' for Active; 'I' for Inactive)
REMARK    1  A    between atoms: C_1  and  C_2
REMARK    2  A    between atoms: C_5  and  O_7
REMARK    3  A    between atoms: O_7  and  C_8
REMARK    4  A    between atoms: C_10  and  C_12
REMARK    5  A    between atoms: C_12  and  O_13
REMARK    6  A    between atoms: C_15  and  O_17
REMARK    7  A    between atoms: O_17  and  C_18
REMARK    8  A    between atoms: C_20  and  O_22
REMARK    9  A    between atoms: C_23  and  O_25
REMARK   10  A    between atoms: C_26  and  N_28
REMARK   11  A    between atoms: N_28  and  C_29
REMARK   12  A    between atoms: C_31  and  C_33
REMARK   13  A    between atoms: C_35  and  O_37
REMARK   14  A    between atoms: O_37  and  C_38
REMARK   15  A    between atoms: C_40  and  C_42
REMARK   16  A    between atoms: C_42  and  O_43
REMARK   17  A    between atoms: C_45  and  O_47
REMARK   18  A    between atoms: O_47  and  C_48
REMARK   19  A    between atoms: C_50  and  C_52
REMARK   20  A    between atoms: C_54  and  O_56
REMARK   21  A    between atoms: C_57  and  O_59
REMARK   22  A    between atoms: C_60  and  O_62
REMARK   23  A    between atoms: C_63  and  O_65
REMARK   24  A    between atoms: C_66  and  O_68
REMARK   25  A    between atoms: C_69  and  O_71
REMARK   26  A    between atoms: C_72  and  O_74
REMARK   27  A    between atoms: C_76  and  C_77
REMARK   28  A    between atoms: C_77  and  O_78
REMARK   29  A    between atoms: C_79  and  O_81
REMARK   30  A    between atoms: C_82  and  O_84
REMARK   31  A    between atoms: C_85  and  O_87
REMARK   32  A    between atoms: C_88  and  O_90
REMARK   33  A    between atoms: C_91  and  O_93
REMARK                            x       y       z     vdW  Elec       q    Type
REMARK                         _______ _______ _______ _____ _____    ______ ____
ROOT
ATOM      1  C   UNL     1       9.594   2.137  22.210  0.00  0.00    +0.180 C 
ATOM      2  C   UNL     1      10.405   1.967  23.467  0.00  0.00    -0.016 C 
ATOM      3  C   UNL     1      10.670   0.753  23.983  0.00  0.00    -0.002 C 
ATOM      4  C   UNL     1      10.207  -0.568  23.425  0.00  0.00    +0.109 C 
ATOM      5  C   UNL     1       9.218  -0.448  22.237  0.00  0.00    +0.166 C 
ATOM      6  C   UNL     1       9.405   0.828  21.395  0.00  0.00    +0.178 C 
ENDROOT
BRANCH   6   7
ATOM      7  O   UNL     1       8.331   0.910  20.438  0.00  0.00    -0.386 OA
ATOM      8  H   UNL     1       8.691   0.637  19.573  0.00  0.00    +0.210 HD
ENDBRANCH   6   7
BRANCH   5   9
ATOM      9  O   UNL     1       9.411  -1.583  21.354  0.00  0.00    -0.387 OA
ATOM     10  H   UNL     1      10.140  -1.328  20.754  0.00  0.00    +0.210 HD
ENDBRANCH   5   9
BRANCH   4  11
ATOM     11  N   UNL     1       9.660  -1.332  24.568  0.00  0.00    -0.300 NA
ATOM     12  H   UNL     1       9.598  -2.309  24.254  0.00  0.00    +0.123 HD
BRANCH  11  13
ATOM     13  C   UNL     1       8.280  -0.962  25.008  0.00  0.00    +0.114 C 
ATOM     14  C   UNL     1       8.126  -1.449  26.476  0.00  0.00    +0.167 C 
ATOM     15  C   UNL     1       8.149  -2.989  26.550  0.00  0.00    +0.200 C 
ATOM     16  C   UNL     1       7.183  -3.625  25.515  0.00  0.00    +0.282 C 
ATOM     17  O   UNL     1       7.267  -3.050  24.214  0.00  0.00    -0.344 OA
ATOM     18  C   UNL     1       7.177  -1.620  24.144  0.00  0.00    +0.138 C 
ATOM     19  C   UNL     1       5.768  -1.076  24.401  0.00  0.00    +0.039 C 
BRANCH  15  20
ATOM     20  O   UNL     1       9.485  -3.486  26.313  0.00  0.00    -0.384 OA
ATOM     21  H   UNL     1       9.458  -4.460  26.321  0.00  0.00    +0.210 HD
ENDBRANCH  15  20
BRANCH  14  22
ATOM     22  O   UNL     1       6.947  -0.917  27.086  0.00  0.00    -0.387 OA
ATOM     23  H   UNL     1       7.040  -0.995  28.052  0.00  0.00    +0.210 HD
ENDBRANCH  14  22
BRANCH  16  24
ATOM     24  O   UNL     1       5.846  -3.634  26.001  0.00  0.00    -0.340 OA
BRANCH  24  25
ATOM     25  C   UNL     1       5.496  -4.766  26.829  0.00  0.00    +0.183 C 
ATOM     26  C   UNL     1       5.556  -5.981  25.876  0.00  0.00    +0.179 C 
ATOM     27  C   UNL     1       4.496  -5.814  24.755  0.00  0.00    +0.201 C 
ATOM     28  C   UNL     1       3.109  -5.325  25.295  0.00  0.00    +0.282 C 
ATOM     29  O   UNL     1       3.225  -4.320  26.314  0.00  0.00    -0.341 OA
ATOM     30  C   UNL     1       4.070  -4.742  27.390  0.00  0.00    +0.178 C 
BRANCH  27  31
ATOM     31  O   UNL     1       5.001  -4.907  23.756  0.00  0.00    -0.384 OA
ATOM     32  H   UNL     1       4.262  -4.746  23.135  0.00  0.00    +0.210 HD
ENDBRANCH  27  31
BRANCH  26  33
ATOM     33  O   UNL     1       5.391  -7.183  26.629  0.00  0.00    -0.386 OA
ATOM     34  H   UNL     1       6.084  -7.211  27.300  0.00  0.00    +0.210 HD
ENDBRANCH  26  33
BRANCH  28  35
ATOM     35  O   UNL     1       2.430  -6.458  25.798  0.00  0.00    -0.340 OA
BRANCH  35  36
ATOM     36  C   UNL     1       1.415  -7.122  25.025  0.00  0.00    +0.181 C 
ATOM     37  C   UNL     1       1.155  -6.063  23.916  0.00  0.00    +0.179 C 
ATOM     38  C   UNL     1       0.453  -6.607  22.675  0.00  0.00    +0.201 C 
ATOM     39  C   UNL     1       1.178  -7.874  22.228  0.00  0.00    +0.279 C 
ATOM     40  O   UNL     1       1.058  -8.846  23.245  0.00  0.00    -0.343 OA
ATOM     41  C   UNL     1       1.815  -8.493  24.409  0.00  0.00    +0.150 C 
ATOM     42  C   UNL     1       1.630  -9.689  25.346  0.00  0.00    +0.041 C 
BRANCH  39  43
ATOM     43  O   UNL     1       0.555  -8.386  21.064  0.00  0.00    -0.365 OA
ATOM     44  H   UNL     1       0.147  -7.601  20.660  0.00  0.00    +0.213 HD
ENDBRANCH  39  43
BRANCH  38  45
ATOM     45  O   UNL     1       0.467  -5.642  21.615  0.00  0.00    -0.384 OA
ATOM     46  H   UNL     1      -0.362  -5.782  21.116  0.00  0.00    +0.210 HD
ENDBRANCH  38  45
BRANCH  37  47
ATOM     47  O   UNL     1       0.443  -4.930  24.465  0.00  0.00    -0.386 OA
ATOM     48  H   UNL     1       1.091  -4.333  24.874  0.00  0.00    +0.210 HD
ENDBRANCH  37  47
ENDBRANCH  35  36
ENDBRANCH  28  35
BRANCH  30  49
ATOM     49  C   UNL     1       3.840  -3.930  28.678  0.00  0.00    +0.190 C 
BRANCH  49  50
ATOM     50  O   UNL     1       2.462  -3.746  28.987  0.00  0.00    -0.392 OA
ATOM     51  H   UNL     1       2.201  -2.826  28.811  0.00  0.00    +0.210 HD
ENDBRANCH  49  50
ENDBRANCH  30  49
ENDBRANCH  24  25
ENDBRANCH  16  24
ENDBRANCH  11  13
ENDBRANCH   4  11
BRANCH   2  52
ATOM     52  C   UNL     1      10.976   3.213  24.083  0.00  0.00    +0.189 C 
BRANCH  52  53
ATOM     53  O   UNL     1      10.993   4.249  23.113  0.00  0.00    -0.391 OA
ATOM     54  H   UNL     1      10.786   5.077  23.579  0.00  0.00    +0.210 HD
ENDBRANCH  52  53
ENDBRANCH   2  52
BRANCH   1  55
ATOM     55  O   UNL     1       8.448   2.971  22.415  0.00  0.00    -0.338 OA
BRANCH  55  59
ATOM     56  C   UNL     1       5.759   4.849  24.252  0.00  0.00    +0.183 C 
ATOM     57  C   UNL     1       5.595   4.322  22.790  0.00  0.00    +0.179 C 
ATOM     58  C   UNL     1       6.063   2.844  22.721  0.00  0.00    +0.201 C 
ATOM     59  C   UNL     1       7.458   2.614  23.372  0.00  0.00    +0.282 C 
ATOM     60  O   UNL     1       7.611   3.277  24.625  0.00  0.00    -0.341 OA
ATOM     61  C   UNL     1       7.253   4.664  24.614  0.00  0.00    +0.178 C 
BRANCH  58  62
ATOM     62  O   UNL     1       5.081   1.973  23.319  0.00  0.00    -0.384 OA
ATOM     63  H   UNL     1       4.979   2.247  24.255  0.00  0.00    +0.210 HD
ENDBRANCH  58  62
BRANCH  57  64
ATOM     64  O   UNL     1       6.278   5.150  21.862  0.00  0.00    -0.386 OA
ATOM     65  H   UNL     1       7.098   5.463  22.291  0.00  0.00    +0.210 HD
ENDBRANCH  57  64
BRANCH  56  66
ATOM     66  O   UNL     1       4.810   4.074  25.002  0.00  0.00    -0.340 OA
BRANCH  66  72
ATOM     67  C   UNL     1       2.936   5.369  29.229  0.00  0.00    +0.041 C 
ATOM     68  C   UNL     1       3.989   4.510  28.536  0.00  0.00    +0.149 C 
ATOM     69  C   UNL     1       3.863   3.036  28.963  0.00  0.00    +0.174 C 
ATOM     70  C   UNL     1       4.901   2.195  28.210  0.00  0.00    +0.179 C 
ATOM     71  C   UNL     1       4.846   2.453  26.716  0.00  0.00    +0.201 C 
ATOM     72  C   UNL     1       4.910   3.970  26.415  0.00  0.00    +0.282 C 
ATOM     73  O   UNL     1       3.880   4.675  27.106  0.00  0.00    -0.343 OA
BRANCH  71  74
ATOM     74  O   UNL     1       5.937   1.732  26.110  0.00  0.00    -0.384 OA
ATOM     75  H   UNL     1       6.777   2.152  26.371  0.00  0.00    +0.210 HD
ENDBRANCH  71  74
BRANCH  70  76
ATOM     76  O   UNL     1       4.696   0.804  28.486  0.00  0.00    -0.386 OA
ATOM     77  H   UNL     1       4.017   0.496  27.852  0.00  0.00    +0.210 HD
ENDBRANCH  70  76
BRANCH  69  78
ATOM     78  O   UNL     1       4.102   2.938  30.375  0.00  0.00    -0.387 OA
ATOM     79  H   UNL     1       4.261   3.841  30.710  0.00  0.00    +0.210 HD
ENDBRANCH  69  78
ENDBRANCH  66  72
ENDBRANCH  56  66
BRANCH  61  80
ATOM     80  C   UNL     1       7.726   5.257  25.946  0.00  0.00    +0.190 C 
BRANCH  80  81
ATOM     81  O   UNL     1       9.101   5.597  25.968  0.00  0.00    -0.392 OA
ATOM     82  H   UNL     1       9.360   5.797  26.886  0.00  0.00    +0.210 HD
ENDBRANCH  80  81
ENDBRANCH  61  80
ENDBRANCH  55  59
ENDBRANCH   1  55
TORSDOF 30
ENDMDL
MODEL 8
REMARK VINA RESULT:      -5.4      1.827      5.971
REMARK  Name = 
REMARK  33 active torsions:
REMARK  status: ('A' for Active; 'I' for Inactive)
REMARK    1  A    between atoms: C_1  and  C_2
REMARK    2  A    between atoms: C_5  and  O_7
REMARK    3  A    between atoms: O_7  and  C_8
REMARK    4  A    between atoms: C_10  and  C_12
REMARK    5  A    between atoms: C_12  and  O_13
REMARK    6  A    between atoms: C_15  and  O_17
REMARK    7  A    between atoms: O_17  and  C_18
REMARK    8  A    between atoms: C_20  and  O_22
REMARK    9  A    between atoms: C_23  and  O_25
REMARK   10  A    between atoms: C_26  and  N_28
REMARK   11  A    between atoms: N_28  and  C_29
REMARK   12  A    between atoms: C_31  and  C_33
REMARK   13  A    between atoms: C_35  and  O_37
REMARK   14  A    between atoms: O_37  and  C_38
REMARK   15  A    between atoms: C_40  and  C_42
REMARK   16  A    between atoms: C_42  and  O_43
REMARK   17  A    between atoms: C_45  and  O_47
REMARK   18  A    between atoms: O_47  and  C_48
REMARK   19  A    between atoms: C_50  and  C_52
REMARK   20  A    between atoms: C_54  and  O_56
REMARK   21  A    between atoms: C_57  and  O_59
REMARK   22  A    between atoms: C_60  and  O_62
REMARK   23  A    between atoms: C_63  and  O_65
REMARK   24  A    between atoms: C_66  and  O_68
REMARK   25  A    between atoms: C_69  and  O_71
REMARK   26  A    between atoms: C_72  and  O_74
REMARK   27  A    between atoms: C_76  and  C_77
REMARK   28  A    between atoms: C_77  and  O_78
REMARK   29  A    between atoms: C_79  and  O_81
REMARK   30  A    between atoms: C_82  and  O_84
REMARK   31  A    between atoms: C_85  and  O_87
REMARK   32  A    between atoms: C_88  and  O_90
REMARK   33  A    between atoms: C_91  and  O_93
REMARK                            x       y       z     vdW  Elec       q    Type
REMARK                         _______ _______ _______ _____ _____    ______ ____
ROOT
ATOM      1  C   UNL     1       7.635   5.017  24.260  0.00  0.00    +0.180 C 
ATOM      2  C   UNL     1       6.256   4.419  24.176  0.00  0.00    -0.016 C 
ATOM      3  C   UNL     1       5.534   4.141  25.277  0.00  0.00    -0.002 C 
ATOM      4  C   UNL     1       5.972   4.355  26.702  0.00  0.00    +0.109 C 
ATOM      5  C   UNL     1       7.451   4.797  26.856  0.00  0.00    +0.166 C 
ATOM      6  C   UNL     1       7.991   5.596  25.655  0.00  0.00    +0.178 C 
ENDROOT
BRANCH   6   7
ATOM      7  O   UNL     1       9.406   5.800  25.838  0.00  0.00    -0.386 OA
ATOM      8  H   UNL     1       9.850   4.955  25.636  0.00  0.00    +0.210 HD
ENDBRANCH   6   7
BRANCH   5   9
ATOM      9  O   UNL     1       7.563   5.644  28.028  0.00  0.00    -0.387 OA
ATOM     10  H   UNL     1       7.991   5.091  28.711  0.00  0.00    +0.210 HD
ENDBRANCH   5   9
BRANCH   4  11
ATOM     11  N   UNL     1       5.657   3.102  27.426  0.00  0.00    -0.300 NA
ATOM     12  H   UNL     1       5.946   2.335  26.806  0.00  0.00    +0.123 HD
BRANCH  11  13
ATOM     13  C   UNL     1       4.212   2.859  27.721  0.00  0.00    +0.114 C 
ATOM     14  C   UNL     1       4.148   2.082  29.066  0.00  0.00    +0.167 C 
ATOM     15  C   UNL     1       4.750   0.670  28.914  0.00  0.00    +0.200 C 
ATOM     16  C   UNL     1       4.176  -0.065  27.674  0.00  0.00    +0.282 C 
ATOM     17  O   UNL     1       4.130   0.735  26.495  0.00  0.00    -0.344 OA
ATOM     18  C   UNL     1       3.508   2.022  26.625  0.00  0.00    +0.138 C 
ATOM     19  C   UNL     1       1.983   1.960  26.763  0.00  0.00    +0.039 C 
BRANCH  15  20
ATOM     20  O   UNL     1       6.188   0.745  28.794  0.00  0.00    -0.384 OA
ATOM     21  H   UNL     1       6.458   1.676  28.895  0.00  0.00    +0.210 HD
ENDBRANCH  15  20
BRANCH  14  22
ATOM     22  O   UNL     1       2.814   2.027  29.578  0.00  0.00    -0.387 OA
ATOM     23  H   UNL     1       2.254   1.574  28.923  0.00  0.00    +0.210 HD
ENDBRANCH  14  22
BRANCH  16  24
ATOM     24  O   UNL     1       2.911  -0.649  27.964  0.00  0.00    -0.340 OA
BRANCH  24  25
ATOM     25  C   UNL     1       2.947  -1.797  28.842  0.00  0.00    +0.183 C 
ATOM     26  C   UNL     1       4.073  -2.689  28.275  0.00  0.00    +0.179 C 
ATOM     27  C   UNL     1       3.699  -3.147  26.840  0.00  0.00    +0.201 C 
ATOM     28  C   UNL     1       2.209  -3.615  26.718  0.00  0.00    +0.282 C 
ATOM     29  O   UNL     1       1.297  -2.787  27.456  0.00  0.00    -0.341 OA
ATOM     30  C   UNL     1       1.680  -2.660  28.829  0.00  0.00    +0.178 C 
BRANCH  27  31
ATOM     31  O   UNL     1       3.974  -2.078  25.914  0.00  0.00    -0.384 OA
ATOM     32  H   UNL     1       4.938  -1.914  25.964  0.00  0.00    +0.210 HD
ENDBRANCH  27  31
BRANCH  26  33
ATOM     33  O   UNL     1       4.311  -3.778  29.167  0.00  0.00    -0.386 OA
ATOM     34  H   UNL     1       5.234  -3.739  29.444  0.00  0.00    +0.210 HD
ENDBRANCH  26  33
BRANCH  28  35
ATOM     35  O   UNL     1       2.148  -4.949  27.183  0.00  0.00    -0.340 OA
BRANCH  35  36
ATOM     36  C   UNL     1       2.738  -6.026  26.434  0.00  0.00    +0.181 C 
ATOM     37  C   UNL     1       2.147  -5.756  25.021  0.00  0.00    +0.179 C 
ATOM     38  C   UNL     1       2.895  -6.441  23.882  0.00  0.00    +0.201 C 
ATOM     39  C   UNL     1       4.386  -6.157  24.045  0.00  0.00    +0.279 C 
ATOM     40  O   UNL     1       4.827  -6.738  25.253  0.00  0.00    -0.343 OA
ATOM     41  C   UNL     1       4.292  -6.058  26.397  0.00  0.00    +0.150 C 
ATOM     42  C   UNL     1       4.943  -6.768  27.587  0.00  0.00    +0.041 C 
BRANCH  39  43
ATOM     43  O   UNL     1       5.101  -6.767  22.986  0.00  0.00    -0.365 OA
ATOM     44  H   UNL     1       4.750  -6.328  22.192  0.00  0.00    +0.213 HD
ENDBRANCH  39  43
BRANCH  38  45
ATOM     45  O   UNL     1       2.447  -5.956  22.610  0.00  0.00    -0.384 OA
ATOM     46  H   UNL     1       1.488  -5.792  22.711  0.00  0.00    +0.210 HD
ENDBRANCH  38  45
BRANCH  37  47
ATOM     47  O   UNL     1       0.740  -6.088  24.997  0.00  0.00    -0.386 OA
ATOM     48  H   UNL     1       0.234  -5.264  24.903  0.00  0.00    +0.210 HD
ENDBRANCH  37  47
ENDBRANCH  35  36
ENDBRANCH  28  35
BRANCH  30  49
ATOM     49  C   UNL     1       0.516  -2.205  29.729  0.00  0.00    +0.190 C 
BRANCH  49  50
ATOM     50  O   UNL     1       0.473  -0.796  29.922  0.00  0.00    -0.392 OA
ATOM     51  H   UNL     1      -0.229  -0.405  29.376  0.00  0.00    +0.210 HD
ENDBRANCH  49  50
ENDBRANCH  30  49
ENDBRANCH  24  25
ENDBRANCH  16  24
ENDBRANCH  11  13
ENDBRANCH   4  11
BRANCH   2  52
ATOM     52  C   UNL     1       5.683   4.216  22.801  0.00  0.00    +0.189 C 
BRANCH  52  53
ATOM     53  O   UNL     1       6.743   4.143  21.859  0.00  0.00    -0.391 OA
ATOM     54  H   UNL     1       7.446   4.734  22.177  0.00  0.00    +0.210 HD
ENDBRANCH  52  53
ENDBRANCH   2  52
BRANCH   1  55
ATOM     55  O   UNL     1       8.615   4.209  23.599  0.00  0.00    -0.338 OA
BRANCH  55  59
ATOM     56  C   UNL     1       8.767   0.508  22.954  0.00  0.00    +0.183 C 
ATOM     57  C   UNL     1       9.709   1.542  22.258  0.00  0.00    +0.179 C 
ATOM     58  C   UNL     1      10.294   2.505  23.326  0.00  0.00    +0.201 C 
ATOM     59  C   UNL     1       9.209   3.104  24.268  0.00  0.00    +0.282 C 
ATOM     60  O   UNL     1       8.264   2.138  24.723  0.00  0.00    -0.341 OA
ATOM     61  C   UNL     1       7.684   1.336  23.688  0.00  0.00    +0.178 C 
BRANCH  58  62
ATOM     62  O   UNL     1      11.319   1.845  24.096  0.00  0.00    -0.384 OA
ATOM     63  H   UNL     1      11.987   1.506  23.463  0.00  0.00    +0.210 HD
ENDBRANCH  58  62
BRANCH  57  64
ATOM     64  O   UNL     1       9.039   2.233  21.215  0.00  0.00    -0.386 OA
ATOM     65  H   UNL     1       9.428   1.942  20.368  0.00  0.00    +0.210 HD
ENDBRANCH  57  64
BRANCH  56  66
ATOM     66  O   UNL     1       9.657  -0.266  23.773  0.00  0.00    -0.340 OA
BRANCH  66  72
ATOM     67  C   UNL     1       7.654  -3.471  26.735  0.00  0.00    +0.041 C 
ATOM     68  C   UNL     1       8.372  -3.273  25.403  0.00  0.00    +0.149 C 
ATOM     69  C   UNL     1       7.555  -3.875  24.245  0.00  0.00    +0.174 C 
ATOM     70  C   UNL     1       8.278  -3.613  22.919  0.00  0.00    +0.179 C 
ATOM     71  C   UNL     1       8.652  -2.150  22.770  0.00  0.00    +0.201 C 
ATOM     72  C   UNL     1       9.405  -1.642  24.022  0.00  0.00    +0.282 C 
ATOM     73  O   UNL     1       8.645  -1.870  25.207  0.00  0.00    -0.343 OA
BRANCH  71  74
ATOM     74  O   UNL     1       9.442  -2.023  21.570  0.00  0.00    -0.384 OA
ATOM     75  H   UNL     1       9.041  -1.343  20.999  0.00  0.00    +0.210 HD
ENDBRANCH  71  74
BRANCH  70  76
ATOM     76  O   UNL     1       7.458  -4.036  21.822  0.00  0.00    -0.386 OA
ATOM     77  H   UNL     1       7.607  -3.388  21.104  0.00  0.00    +0.210 HD
ENDBRANCH  70  76
BRANCH  69  78
ATOM     78  O   UNL     1       7.428  -5.290  24.449  0.00  0.00    -0.387 OA
ATOM     79  H   UNL     1       6.953  -5.424  25.291  0.00  0.00    +0.210 HD
ENDBRANCH  69  78
ENDBRANCH  66  72
ENDBRANCH  56  66
BRANCH  61  80
ATOM     80  C   UNL     1       6.525   0.559  24.323  0.00  0.00    +0.190 C 
BRANCH  80  81
ATOM     81  O   UNL     1       6.768   0.156  25.660  0.00  0.00    -0.392 OA
ATOM     82  H   UNL     1       7.558   0.622  25.990  0.00  0.00    +0.210 HD
ENDBRANCH  80  81
ENDBRANCH  61  80
ENDBRANCH  55  59
ENDBRANCH   1  55
TORSDOF 30
ENDMDL
MODEL 9
REMARK VINA RESULT:      -5.1      2.036      3.861
REMARK  Name = 
REMARK  33 active torsions:
REMARK  status: ('A' for Active; 'I' for Inactive)
REMARK    1  A    between atoms: C_1  and  C_2
REMARK    2  A    between atoms: C_5  and  O_7
REMARK    3  A    between atoms: O_7  and  C_8
REMARK    4  A    between atoms: C_10  and  C_12
REMARK    5  A    between atoms: C_12  and  O_13
REMARK    6  A    between atoms: C_15  and  O_17
REMARK    7  A    between atoms: O_17  and  C_18
REMARK    8  A    between atoms: C_20  and  O_22
REMARK    9  A    between atoms: C_23  and  O_25
REMARK   10  A    between atoms: C_26  and  N_28
REMARK   11  A    between atoms: N_28  and  C_29
REMARK   12  A    between atoms: C_31  and  C_33
REMARK   13  A    between atoms: C_35  and  O_37
REMARK   14  A    between atoms: O_37  and  C_38
REMARK   15  A    between atoms: C_40  and  C_42
REMARK   16  A    between atoms: C_42  and  O_43
REMARK   17  A    between atoms: C_45  and  O_47
REMARK   18  A    between atoms: O_47  and  C_48
REMARK   19  A    between atoms: C_50  and  C_52
REMARK   20  A    between atoms: C_54  and  O_56
REMARK   21  A    between atoms: C_57  and  O_59
REMARK   22  A    between atoms: C_60  and  O_62
REMARK   23  A    between atoms: C_63  and  O_65
REMARK   24  A    between atoms: C_66  and  O_68
REMARK   25  A    between atoms: C_69  and  O_71
REMARK   26  A    between atoms: C_72  and  O_74
REMARK   27  A    between atoms: C_76  and  C_77
REMARK   28  A    between atoms: C_77  and  O_78
REMARK   29  A    between atoms: C_79  and  O_81
REMARK   30  A    between atoms: C_82  and  O_84
REMARK   31  A    between atoms: C_85  and  O_87
REMARK   32  A    between atoms: C_88  and  O_90
REMARK   33  A    between atoms: C_91  and  O_93
REMARK                            x       y       z     vdW  Elec       q    Type
REMARK                         _______ _______ _______ _____ _____    ______ ____
ROOT
ATOM      1  C   UNL     1       2.367   4.931  26.827  0.00  0.00    +0.180 C 
ATOM      2  C   UNL     1       3.728   5.550  27.000  0.00  0.00    -0.016 C 
ATOM      3  C   UNL     1       4.501   5.873  25.948  0.00  0.00    -0.002 C 
ATOM      4  C   UNL     1       4.156   5.663  24.497  0.00  0.00    +0.109 C 
ATOM      5  C   UNL     1       2.848   4.864  24.260  0.00  0.00    +0.166 C 
ATOM      6  C   UNL     1       1.806   5.028  25.382  0.00  0.00    +0.178 C 
ENDROOT
BRANCH   6   7
ATOM      7  O   UNL     1       0.718   4.114  25.136  0.00  0.00    -0.386 OA
ATOM      8  H   UNL     1       0.841   3.350  25.729  0.00  0.00    +0.210 HD
ENDBRANCH   6   7
BRANCH   5   9
ATOM      9  O   UNL     1       2.237   5.326  23.028  0.00  0.00    -0.387 OA
ATOM     10  H   UNL     1       2.819   6.038  22.698  0.00  0.00    +0.210 HD
ENDBRANCH   5   9
BRANCH   4  11
ATOM     11  N   UNL     1       5.345   5.038  23.874  0.00  0.00    -0.300 NA
ATOM     12  H   UNL     1       4.997   4.230  23.343  0.00  0.00    +0.123 HD
BRANCH  11  13
ATOM     13  C   UNL     1       6.370   4.491  24.814  0.00  0.00    +0.114 C 
ATOM     14  C   UNL     1       7.666   4.258  23.988  0.00  0.00    +0.167 C 
ATOM     15  C   UNL     1       7.461   3.134  22.950  0.00  0.00    +0.200 C 
ATOM     16  C   UNL     1       6.825   1.873  23.593  0.00  0.00    +0.282 C 
ATOM     17  O   UNL     1       5.722   2.153  24.451  0.00  0.00    -0.344 OA
ATOM     18  C   UNL     1       5.939   3.151  25.459  0.00  0.00    +0.138 C 
ATOM     19  C   UNL     1       6.842   2.686  26.606  0.00  0.00    +0.039 C 
BRANCH  15  20
ATOM     20  O   UNL     1       6.615   3.591  21.872  0.00  0.00    -0.384 OA
ATOM     21  H   UNL     1       5.919   2.925  21.724  0.00  0.00    +0.210 HD
ENDBRANCH  15  20
BRANCH  14  22
ATOM     22  O   UNL     1       8.787   3.987  24.833  0.00  0.00    -0.387 OA
ATOM     23  H   UNL     1       9.064   4.823  25.250  0.00  0.00    +0.210 HD
ENDBRANCH  14  22
BRANCH  16  24
ATOM     24  O   UNL     1       7.810   1.077  24.243  0.00  0.00    -0.340 OA
BRANCH  24  25
ATOM     25  C   UNL     1       8.635   0.276  23.366  0.00  0.00    +0.183 C 
ATOM     26  C   UNL     1       7.708  -0.864  22.889  0.00  0.00    +0.179 C 
ATOM     27  C   UNL     1       7.267  -1.718  24.107  0.00  0.00    +0.201 C 
ATOM     28  C   UNL     1       8.448  -2.042  25.083  0.00  0.00    +0.282 C 
ATOM     29  O   UNL     1       9.334  -0.931  25.284  0.00  0.00    -0.341 OA
ATOM     30  C   UNL     1       9.826  -0.408  24.046  0.00  0.00    +0.178 C 
BRANCH  27  31
ATOM     31  O   UNL     1       6.203  -1.040  24.802  0.00  0.00    -0.384 OA
ATOM     32  H   UNL     1       6.008  -0.233  24.283  0.00  0.00    +0.210 HD
ENDBRANCH  27  31
BRANCH  26  33
ATOM     33  O   UNL     1       8.372  -1.625  21.880  0.00  0.00    -0.386 OA
ATOM     34  H   UNL     1       7.742  -2.266  21.528  0.00  0.00    +0.210 HD
ENDBRANCH  26  33
BRANCH  28  35
ATOM     35  O   UNL     1       9.153  -3.141  24.540  0.00  0.00    -0.340 OA
BRANCH  35  36
ATOM     36  C   UNL     1       8.621  -4.476  24.610  0.00  0.00    +0.181 C 
ATOM     37  C   UNL     1       8.563  -4.686  26.149  0.00  0.00    +0.179 C 
ATOM     38  C   UNL     1       7.646  -5.820  26.598  0.00  0.00    +0.201 C 
ATOM     39  C   UNL     1       6.300  -5.657  25.897  0.00  0.00    +0.279 C 
ATOM     40  O   UNL     1       6.495  -5.793  24.506  0.00  0.00    -0.343 OA
ATOM     41  C   UNL     1       7.223  -4.685  23.961  0.00  0.00    +0.150 C 
ATOM     42  C   UNL     1       7.256  -4.969  22.457  0.00  0.00    +0.041 C 
BRANCH  39  43
ATOM     43  O   UNL     1       5.424  -6.689  26.314  0.00  0.00    -0.365 OA
ATOM     44  H   UNL     1       4.831  -6.244  26.944  0.00  0.00    +0.213 HD
ENDBRANCH  39  43
BRANCH  38  45
ATOM     45  O   UNL     1       7.459  -5.795  28.018  0.00  0.00    -0.384 OA
ATOM     46  H   UNL     1       6.509  -5.612  28.159  0.00  0.00    +0.210 HD
ENDBRANCH  38  45
BRANCH  37  47
ATOM     47  O   UNL     1       9.897  -4.851  26.681  0.00  0.00    -0.386 OA
ATOM     48  H   UNL     1      10.182  -4.002  27.058  0.00  0.00    +0.210 HD
ENDBRANCH  37  47
ENDBRANCH  35  36
ENDBRANCH  28  35
BRANCH  30  49
ATOM     49  C   UNL     1      11.105   0.432  24.224  0.00  0.00    +0.190 C 
BRANCH  49  50
ATOM     50  O   UNL     1      10.871   1.834  24.144  0.00  0.00    -0.392 OA
ATOM     51  H   UNL     1      10.842   2.115  23.214  0.00  0.00    +0.210 HD
ENDBRANCH  49  50
ENDBRANCH  30  49
ENDBRANCH  24  25
ENDBRANCH  16  24
ENDBRANCH  11  13
ENDBRANCH   4  11
BRANCH   2  52
ATOM     52  C   UNL     1       4.159   5.866  28.405  0.00  0.00    +0.189 C 
BRANCH  52  53
ATOM     53  O   UNL     1       4.715   4.702  28.997  0.00  0.00    -0.391 OA
ATOM     54  H   UNL     1       4.199   3.945  28.674  0.00  0.00    +0.210 HD
ENDBRANCH  52  53
ENDBRANCH   2  52
BRANCH   1  55
ATOM     55  O   UNL     1       2.253   3.676  27.508  0.00  0.00    -0.338 OA
BRANCH  55  59
ATOM     56  C   UNL     1       2.188   0.039  28.457  0.00  0.00    +0.183 C 
ATOM     57  C   UNL     1       0.905   0.927  28.364  0.00  0.00    +0.179 C 
ATOM     58  C   UNL     1       0.928   1.723  27.031  0.00  0.00    +0.201 C 
ATOM     59  C   UNL     1       2.279   2.455  26.780  0.00  0.00    +0.282 C 
ATOM     60  O   UNL     1       3.418   1.646  27.063  0.00  0.00    -0.341 OA
ATOM     61  C   UNL     1       3.392   1.006  28.344  0.00  0.00    +0.178 C 
BRANCH  58  62
ATOM     62  O   UNL     1       0.609   0.861  25.920  0.00  0.00    -0.384 OA
ATOM     63  H   UNL     1      -0.213   0.379  26.152  0.00  0.00    +0.210 HD
ENDBRANCH  58  62
BRANCH  57  64
ATOM     64  O   UNL     1       0.777   1.772  29.497  0.00  0.00    -0.386 OA
ATOM     65  H   UNL     1      -0.068   2.255  29.413  0.00  0.00    +0.210 HD
ENDBRANCH  57  64
BRANCH  56  66
ATOM     66  O   UNL     1       2.020  -0.914  27.397  0.00  0.00    -0.340 OA
BRANCH  66  72
ATOM     67  C   UNL     1       0.593  -5.171  29.103  0.00  0.00    +0.041 C 
ATOM     68  C   UNL     1       1.687  -4.429  28.340  0.00  0.00    +0.149 C 
ATOM     69  C   UNL     1       1.956  -5.096  26.979  0.00  0.00    +0.174 C 
ATOM     70  C   UNL     1       3.021  -4.297  26.219  0.00  0.00    +0.179 C 
ATOM     71  C   UNL     1       2.678  -2.820  26.171  0.00  0.00    +0.201 C 
ATOM     72  C   UNL     1       2.360  -2.281  27.587  0.00  0.00    +0.282 C 
ATOM     73  O   UNL     1       1.322  -3.039  28.205  0.00  0.00    -0.343 OA
BRANCH  71  74
ATOM     74  O   UNL     1       3.792  -2.134  25.565  0.00  0.00    -0.384 OA
ATOM     75  H   UNL     1       4.575  -2.713  25.600  0.00  0.00    +0.210 HD
ENDBRANCH  71  74
BRANCH  70  76
ATOM     76  O   UNL     1       3.172  -4.820  24.894  0.00  0.00    -0.386 OA
ATOM     77  H   UNL     1       4.070  -5.209  24.853  0.00  0.00    +0.210 HD
ENDBRANCH  70  76
BRANCH  69  78
ATOM     78  O   UNL     1       2.428  -6.433  27.199  0.00  0.00    -0.387 OA
ATOM     79  H   UNL     1       1.860  -7.035  26.682  0.00  0.00    +0.210 HD
ENDBRANCH  69  78
ENDBRANCH  66  72
ENDBRANCH  56  66
BRANCH  61  80
ATOM     80  C   UNL     1       4.786   0.411  28.573  0.00  0.00    +0.190 C 
BRANCH  80  81
ATOM     81  O   UNL     1       5.228  -0.437  27.527  0.00  0.00    -0.392 OA
ATOM     82  H   UNL     1       5.829   0.067  26.948  0.00  0.00    +0.210 HD
ENDBRANCH  80  81
ENDBRANCH  61  80
ENDBRANCH  55  59
ENDBRANCH   1  55
TORSDOF 30
ENDMDL
