MODEL 1
REMARK VINA RESULT:      -4.6      0.000      0.000
REMARK  Name = 
REMARK  6 active torsions:
REMARK  status: ('A' for Active; 'I' for Inactive)
REMARK    1  A    between atoms: C_1  and  C_2
REMARK    2  A    between atoms: C_3  and  O_4
REMARK    3  A    between atoms: C_5  and  C_6
REMARK    4  A    between atoms: C_6  and  O_7
REMARK    5  A    between atoms: C_8  and  C_9
REMARK    6  A    between atoms: C_9  and  O_10
REMARK                            x       y       z     vdW  Elec       q    Type
REMARK                         _______ _______ _______ _____ _____    ______ ____
ROOT
ATOM      1  C   UNL     1       5.113  -6.580  27.478  0.00  0.00    +0.069 C 
ATOM      2  C   UNL     1       5.834  -5.956  26.323  0.00  0.00    +0.080 A 
ATOM      3  N   UNL     1       5.071  -5.805  25.212  0.00  0.00    -0.256 NA
ATOM      4  C   UNL     1       5.659  -5.285  24.116  0.00  0.00    +0.117 A 
ATOM      5  C   UNL     1       6.989  -4.884  24.049  0.00  0.00    +0.005 A 
ATOM      6  C   UNL     1       7.783  -5.048  25.203  0.00  0.00    +0.028 A 
ATOM      7  C   UNL     1       7.183  -5.592  26.351  0.00  0.00    +0.143 A 
ENDROOT
BRANCH   7   8
ATOM      8  O   UNL     1       7.973  -5.765  27.453  0.00  0.00    -0.505 OA
ATOM      9  H   UNL     1       8.479  -4.956  27.627  0.00  0.00    +0.292 HD
ENDBRANCH   7   8
BRANCH   5  10
ATOM     10  C   UNL     1       7.524  -4.326  22.760  0.00  0.00    +0.193 C 
BRANCH  10  11
ATOM     11  O   UNL     1       7.175  -5.185  21.681  0.00  0.00    -0.390 OA
ATOM     12  H   UNL     1       6.201  -5.185  21.636  0.00  0.00    +0.210 HD
ENDBRANCH  10  11
ENDBRANCH   5  10
BRANCH   6  13
ATOM     13  C   UNL     1       9.230  -4.616  25.232  0.00  0.00    +0.195 C 
BRANCH  13  14
ATOM     14  O   UNL     1      10.080  -5.754  25.287  0.00  0.00    -0.390 OA
ATOM     15  H   UNL     1      10.905  -5.481  24.841  0.00  0.00    +0.210 HD
ENDBRANCH  13  14
ENDBRANCH   6  13
TORSDOF 5
ENDMDL
MODEL 2
REMARK VINA RESULT:      -4.5      1.822      2.911
REMARK  Name = 
REMARK  6 active torsions:
REMARK  status: ('A' for Active; 'I' for Inactive)
REMARK    1  A    between atoms: C_1  and  C_2
REMARK    2  A    between atoms: C_3  and  O_4
REMARK    3  A    between atoms: C_5  and  C_6
REMARK    4  A    between atoms: C_6  and  O_7
REMARK    5  A    between atoms: C_8  and  C_9
REMARK    6  A    between atoms: C_9  and  O_10
REMARK                            x       y       z     vdW  Elec       q    Type
REMARK                         _______ _______ _______ _____ _____    ______ ____
ROOT
ATOM      1  C   UNL     1       4.112  -6.176  23.490  0.00  0.00    +0.069 C 
ATOM      2  C   UNL     1       5.445  -5.721  23.997  0.00  0.00    +0.080 A 
ATOM      3  N   UNL     1       6.370  -5.526  23.024  0.00  0.00    -0.256 NA
ATOM      4  C   UNL     1       7.608  -5.153  23.404  0.00  0.00    +0.117 A 
ATOM      5  C   UNL     1       8.000  -4.944  24.722  0.00  0.00    +0.005 A 
ATOM      6  C   UNL     1       7.040  -5.154  25.733  0.00  0.00    +0.028 A 
ATOM      7  C   UNL     1       5.747  -5.547  25.351  0.00  0.00    +0.143 A 
ENDROOT
BRANCH   7   8
ATOM      8  O   UNL     1       4.835  -5.768  26.346  0.00  0.00    -0.505 OA
ATOM      9  H   UNL     1       4.220  -5.021  26.403  0.00  0.00    +0.292 HD
ENDBRANCH   7   8
BRANCH   5  10
ATOM     10  C   UNL     1       9.417  -4.536  25.011  0.00  0.00    +0.193 C 
BRANCH  10  11
ATOM     11  O   UNL     1      10.204  -5.689  25.288  0.00  0.00    -0.390 OA
ATOM     12  H   UNL     1      10.452  -6.065  24.424  0.00  0.00    +0.210 HD
ENDBRANCH  10  11
ENDBRANCH   5  10
BRANCH   6  13
ATOM     13  C   UNL     1       7.368  -4.927  27.190  0.00  0.00    +0.195 C 
BRANCH  13  14
ATOM     14  O   UNL     1       7.550  -6.172  27.852  0.00  0.00    -0.390 OA
ATOM     15  H   UNL     1       7.237  -6.847  27.220  0.00  0.00    +0.210 HD
ENDBRANCH  13  14
ENDBRANCH   6  13
TORSDOF 5
ENDMDL
MODEL 3
REMARK VINA RESULT:      -4.5      2.182      4.436
REMARK  Name = 
REMARK  6 active torsions:
REMARK  status: ('A' for Active; 'I' for Inactive)
REMARK    1  A    between atoms: C_1  and  C_2
REMARK    2  A    between atoms: C_3  and  O_4
REMARK    3  A    between atoms: C_5  and  C_6
REMARK    4  A    between atoms: C_6  and  O_7
REMARK    5  A    between atoms: C_8  and  C_9
REMARK    6  A    between atoms: C_9  and  O_10
REMARK                            x       y       z     vdW  Elec       q    Type
REMARK                         _______ _______ _______ _____ _____    ______ ____
ROOT
ATOM      1  C   UNL     1       6.438  -5.793  21.324  0.00  0.00    +0.069 C 
ATOM      2  C   UNL     1       6.484  -5.602  22.809  0.00  0.00    +0.080 A 
ATOM      3  N   UNL     1       7.643  -5.065  23.262  0.00  0.00    -0.256 NA
ATOM      4  C   UNL     1       7.777  -4.897  24.593  0.00  0.00    +0.117 A 
ATOM      5  C   UNL     1       6.805  -5.227  25.532  0.00  0.00    +0.005 A 
ATOM      6  C   UNL     1       5.602  -5.791  25.060  0.00  0.00    +0.028 A 
ATOM      7  C   UNL     1       5.452  -5.975  23.675  0.00  0.00    +0.143 A 
ENDROOT
BRANCH   7   8
ATOM      8  O   UNL     1       4.288  -6.545  23.237  0.00  0.00    -0.505 OA
ATOM      9  H   UNL     1       3.574  -6.363  23.868  0.00  0.00    +0.292 HD
ENDBRANCH   7   8
BRANCH   5  10
ATOM     10  C   UNL     1       7.084  -4.996  26.990  0.00  0.00    +0.193 C 
BRANCH  10  11
ATOM     11  O   UNL     1       7.943  -6.017  27.484  0.00  0.00    -0.390 OA
ATOM     12  H   UNL     1       8.152  -5.776  28.405  0.00  0.00    +0.210 HD
ENDBRANCH  10  11
ENDBRANCH   5  10
BRANCH   6  13
ATOM     13  C   UNL     1       4.480  -6.156  26.002  0.00  0.00    +0.195 C 
BRANCH  13  14
ATOM     14  O   UNL     1       4.195  -7.546  25.912  0.00  0.00    -0.390 OA
ATOM     15  H   UNL     1       3.411  -7.611  25.333  0.00  0.00    +0.210 HD
ENDBRANCH  13  14
ENDBRANCH   6  13
TORSDOF 5
ENDMDL
MODEL 4
REMARK VINA RESULT:      -4.4      1.914      3.381
REMARK  Name = 
REMARK  6 active torsions:
REMARK  status: ('A' for Active; 'I' for Inactive)
REMARK    1  A    between atoms: C_1  and  C_2
REMARK    2  A    between atoms: C_3  and  O_4
REMARK    3  A    between atoms: C_5  and  C_6
REMARK    4  A    between atoms: C_6  and  O_7
REMARK    5  A    between atoms: C_8  and  C_9
REMARK    6  A    between atoms: C_9  and  O_10
REMARK                            x       y       z     vdW  Elec       q    Type
REMARK                         _______ _______ _______ _____ _____    ______ ____
ROOT
ATOM      1  C   UNL     1       9.940  -4.959  25.557  0.00  0.00    +0.069 C 
ATOM      2  C   UNL     1       8.500  -5.235  25.250  0.00  0.00    +0.080 A 
ATOM      3  N   UNL     1       8.192  -5.161  23.931  0.00  0.00    -0.256 NA
ATOM      4  C   UNL     1       6.907  -5.360  23.577  0.00  0.00    +0.117 A 
ATOM      5  C   UNL     1       5.878  -5.645  24.469  0.00  0.00    +0.005 A 
ATOM      6  C   UNL     1       6.198  -5.716  25.839  0.00  0.00    +0.028 A 
ATOM      7  C   UNL     1       7.534  -5.507  26.222  0.00  0.00    +0.143 A 
ENDROOT
BRANCH   7   8
ATOM      8  O   UNL     1       7.822  -5.556  27.558  0.00  0.00    -0.505 OA
ATOM      9  H   UNL     1       8.293  -6.378  27.765  0.00  0.00    +0.292 HD
ENDBRANCH   7   8
BRANCH   5  10
ATOM     10  C   UNL     1       4.483  -5.838  23.942  0.00  0.00    +0.193 C 
BRANCH  10  11
ATOM     11  O   UNL     1       4.266  -7.212  23.644  0.00  0.00    -0.390 OA
ATOM     12  H   UNL     1       5.087  -7.678  23.890  0.00  0.00    +0.210 HD
ENDBRANCH  10  11
ENDBRANCH   5  10
BRANCH   6  13
ATOM     13  C   UNL     1       5.152  -6.046  26.877  0.00  0.00    +0.195 C 
BRANCH  13  14
ATOM     14  O   UNL     1       5.431  -7.308  27.472  0.00  0.00    -0.390 OA
ATOM     15  H   UNL     1       6.156  -7.688  26.939  0.00  0.00    +0.210 HD
ENDBRANCH  13  14
ENDBRANCH   6  13
TORSDOF 5
ENDMDL
MODEL 5
REMARK VINA RESULT:      -4.4      5.039      6.430
REMARK  Name = 
REMARK  6 active torsions:
REMARK  status: ('A' for Active; 'I' for Inactive)
REMARK    1  A    between atoms: C_1  and  C_2
REMARK    2  A    between atoms: C_3  and  O_4
REMARK    3  A    between atoms: C_5  and  C_6
REMARK    4  A    between atoms: C_6  and  O_7
REMARK    5  A    between atoms: C_8  and  C_9
REMARK    6  A    between atoms: C_9  and  O_10
REMARK                            x       y       z     vdW  Elec       q    Type
REMARK                         _______ _______ _______ _____ _____    ______ ____
ROOT
ATOM      1  C   UNL     1      10.197   1.827  22.519  0.00  0.00    +0.069 C 
ATOM      2  C   UNL     1       9.881   0.549  23.233  0.00  0.00    +0.080 A 
ATOM      3  N   UNL     1      10.158  -0.569  22.516  0.00  0.00    -0.256 NA
ATOM      4  C   UNL     1       9.865  -1.759  23.076  0.00  0.00    +0.117 A 
ATOM      5  C   UNL     1       9.309  -1.922  24.341  0.00  0.00    +0.005 A 
ATOM      6  C   UNL     1       9.016  -0.759  25.083  0.00  0.00    +0.028 A 
ATOM      7  C   UNL     1       9.313   0.488  24.509  0.00  0.00    +0.143 A 
ENDROOT
BRANCH   7   8
ATOM      8  O   UNL     1       9.001   1.606  25.233  0.00  0.00    -0.505 OA
ATOM      9  H   UNL     1       8.515   1.354  26.035  0.00  0.00    +0.292 HD
ENDBRANCH   7   8
BRANCH   5  10
ATOM     10  C   UNL     1       9.024  -3.308  24.845  0.00  0.00    +0.193 C 
BRANCH  10  11
ATOM     11  O   UNL     1      10.102  -4.174  24.509  0.00  0.00    -0.390 OA
ATOM     12  H   UNL     1      10.776  -4.054  25.203  0.00  0.00    +0.210 HD
ENDBRANCH  10  11
ENDBRANCH   5  10
BRANCH   6  13
ATOM     13  C   UNL     1       8.437  -0.838  26.475  0.00  0.00    +0.195 C 
BRANCH  13  14
ATOM     14  O   UNL     1       9.388  -0.385  27.430  0.00  0.00    -0.390 OA
ATOM     15  H   UNL     1       9.892  -1.181  27.689  0.00  0.00    +0.210 HD
ENDBRANCH  13  14
ENDBRANCH   6  13
TORSDOF 5
ENDMDL
MODEL 6
REMARK VINA RESULT:      -4.4      5.547      6.839
REMARK  Name = 
REMARK  6 active torsions:
REMARK  status: ('A' for Active; 'I' for Inactive)
REMARK    1  A    between atoms: C_1  and  C_2
REMARK    2  A    between atoms: C_3  and  O_4
REMARK    3  A    between atoms: C_5  and  C_6
REMARK    4  A    between atoms: C_6  and  O_7
REMARK    5  A    between atoms: C_8  and  C_9
REMARK    6  A    between atoms: C_9  and  O_10
REMARK                            x       y       z     vdW  Elec       q    Type
REMARK                         _______ _______ _______ _____ _____    ______ ____
ROOT
ATOM      1  C   UNL     1       9.665  -3.349  24.240  0.00  0.00    +0.069 C 
ATOM      2  C   UNL     1       9.559  -1.855  24.211  0.00  0.00    +0.080 A 
ATOM      3  N   UNL     1       9.118  -1.309  25.371  0.00  0.00    -0.256 NA
ATOM      4  C   UNL     1       8.958   0.028  25.412  0.00  0.00    +0.117 A 
ATOM      5  C   UNL     1       9.224   0.888  24.351  0.00  0.00    +0.005 A 
ATOM      6  C   UNL     1       9.677   0.319  23.143  0.00  0.00    +0.028 A 
ATOM      7  C   UNL     1       9.844  -1.075  23.086  0.00  0.00    +0.143 A 
ENDROOT
BRANCH   7   8
ATOM      8  O   UNL     1      10.261  -1.612  21.900  0.00  0.00    -0.505 OA
ATOM      9  H   UNL     1      10.838  -0.984  21.438  0.00  0.00    +0.292 HD
ENDBRANCH   7   8
BRANCH   5  10
ATOM     10  C   UNL     1       8.996   2.363  24.526  0.00  0.00    +0.193 C 
BRANCH  10  11
ATOM     11  O   UNL     1       8.230   2.596  25.703  0.00  0.00    -0.390 OA
ATOM     12  H   UNL     1       7.295   2.510  25.441  0.00  0.00    +0.210 HD
ENDBRANCH  10  11
ENDBRANCH   5  10
BRANCH   6  13
ATOM     13  C   UNL     1      10.016   1.176  21.947  0.00  0.00    +0.195 C 
BRANCH  13  14
ATOM     14  O   UNL     1       8.930   1.190  21.029  0.00  0.00    -0.390 OA
ATOM     15  H   UNL     1       8.224   0.670  21.459  0.00  0.00    +0.210 HD
ENDBRANCH  13  14
ENDBRANCH   6  13
TORSDOF 5
ENDMDL
MODEL 7
REMARK VINA RESULT:      -4.3      6.041      7.549
REMARK  Name = 
REMARK  6 active torsions:
REMARK  status: ('A' for Active; 'I' for Inactive)
REMARK    1  A    between atoms: C_1  and  C_2
REMARK    2  A    between atoms: C_3  and  O_4
REMARK    3  A    between atoms: C_5  and  C_6
REMARK    4  A    between atoms: C_6  and  O_7
REMARK    5  A    between atoms: C_8  and  C_9
REMARK    6  A    between atoms: C_9  and  O_10
REMARK                            x       y       z     vdW  Elec       q    Type
REMARK                         _______ _______ _______ _____ _____    ______ ____
ROOT
ATOM      1  C   UNL     1       9.784   3.904  23.780  0.00  0.00    +0.069 C 
ATOM      2  C   UNL     1       9.416   2.452  23.746  0.00  0.00    +0.080 A 
ATOM      3  N   UNL     1       8.957   1.971  24.928  0.00  0.00    -0.256 NA
ATOM      4  C   UNL     1       8.641   0.662  24.990  0.00  0.00    +0.117 A 
ATOM      5  C   UNL     1       8.743  -0.226  23.923  0.00  0.00    +0.005 A 
ATOM      6  C   UNL     1       9.225   0.275  22.697  0.00  0.00    +0.028 A 
ATOM      7  C   UNL     1       9.562   1.637  22.621  0.00  0.00    +0.143 A 
ENDROOT
BRANCH   7   8
ATOM      8  O   UNL     1      10.051   2.099  21.430  0.00  0.00    -0.505 OA
ATOM      9  H   UNL     1       9.369   2.616  20.972  0.00  0.00    +0.292 HD
ENDBRANCH   7   8
BRANCH   5  10
ATOM     10  C   UNL     1       8.364  -1.666  24.128  0.00  0.00    +0.193 C 
BRANCH  10  11
ATOM     11  O   UNL     1       9.531  -2.441  24.375  0.00  0.00    -0.390 OA
ATOM     12  H   UNL     1      10.178  -1.837  24.783  0.00  0.00    +0.210 HD
ENDBRANCH  10  11
ENDBRANCH   5  10
BRANCH   6  13
ATOM     13  C   UNL     1       9.344  -0.608  21.478  0.00  0.00    +0.195 C 
BRANCH  13  14
ATOM     14  O   UNL     1      10.440  -1.502  21.624  0.00  0.00    -0.390 OA
ATOM     15  H   UNL     1      11.069  -1.043  22.213  0.00  0.00    +0.210 HD
ENDBRANCH  13  14
ENDBRANCH   6  13
TORSDOF 5
ENDMDL
MODEL 8
REMARK VINA RESULT:      -4.3      1.518      3.558
REMARK  Name = 
REMARK  6 active torsions:
REMARK  status: ('A' for Active; 'I' for Inactive)
REMARK    1  A    between atoms: C_1  and  C_2
REMARK    2  A    between atoms: C_3  and  O_4
REMARK    3  A    between atoms: C_5  and  C_6
REMARK    4  A    between atoms: C_6  and  O_7
REMARK    5  A    between atoms: C_8  and  C_9
REMARK    6  A    between atoms: C_9  and  O_10
REMARK                            x       y       z     vdW  Elec       q    Type
REMARK                         _______ _______ _______ _____ _____    ______ ____
ROOT
ATOM      1  C   UNL     1       7.125  -5.162  21.836  0.00  0.00    +0.069 C 
ATOM      2  C   UNL     1       6.861  -5.337  23.300  0.00  0.00    +0.080 A 
ATOM      3  N   UNL     1       5.659  -5.898  23.583  0.00  0.00    -0.256 NA
ATOM      4  C   UNL     1       5.331  -6.054  24.880  0.00  0.00    +0.117 A 
ATOM      5  C   UNL     1       6.143  -5.687  25.950  0.00  0.00    +0.005 A 
ATOM      6  C   UNL     1       7.389  -5.098  25.655  0.00  0.00    +0.028 A 
ATOM      7  C   UNL     1       7.742  -4.927  24.305  0.00  0.00    +0.143 A 
ENDROOT
BRANCH   7   8
ATOM      8  O   UNL     1       8.944  -4.332  24.039  0.00  0.00    -0.505 OA
ATOM      9  H   UNL     1       9.617  -5.010  23.871  0.00  0.00    +0.292 HD
ENDBRANCH   7   8
BRANCH   5  10
ATOM     10  C   UNL     1       5.653  -5.909  27.353  0.00  0.00    +0.193 C 
BRANCH  10  11
ATOM     11  O   UNL     1       5.257  -7.266  27.516  0.00  0.00    -0.390 OA
ATOM     12  H   UNL     1       5.652  -7.566  28.355  0.00  0.00    +0.210 HD
ENDBRANCH  10  11
ENDBRANCH   5  10
BRANCH   6  13
ATOM     13  C   UNL     1       8.348  -4.694  26.749  0.00  0.00    +0.195 C 
BRANCH  13  14
ATOM     14  O   UNL     1       9.627  -5.271  26.520  0.00  0.00    -0.390 OA
ATOM     15  H   UNL     1       9.996  -5.439  27.409  0.00  0.00    +0.210 HD
ENDBRANCH  13  14
ENDBRANCH   6  13
TORSDOF 5
ENDMDL
MODEL 9
REMARK VINA RESULT:      -4.3      2.615      4.510
REMARK  Name = 
REMARK  6 active torsions:
REMARK  status: ('A' for Active; 'I' for Inactive)
REMARK    1  A    between atoms: C_1  and  C_2
REMARK    2  A    between atoms: C_3  and  O_4
REMARK    3  A    between atoms: C_5  and  C_6
REMARK    4  A    between atoms: C_6  and  O_7
REMARK    5  A    between atoms: C_8  and  C_9
REMARK    6  A    between atoms: C_9  and  O_10
REMARK                            x       y       z     vdW  Elec       q    Type
REMARK                         _______ _______ _______ _____ _____    ______ ____
ROOT
ATOM      1  C   UNL     1       9.633  -0.393  24.781  0.00  0.00    +0.069 C 
ATOM      2  C   UNL     1       8.946  -1.638  25.249  0.00  0.00    +0.080 A 
ATOM      3  N   UNL     1       7.991  -1.424  26.188  0.00  0.00    -0.256 NA
ATOM      4  C   UNL     1       7.353  -2.500  26.688  0.00  0.00    +0.117 A 
ATOM      5  C   UNL     1       7.599  -3.814  26.302  0.00  0.00    +0.005 A 
ATOM      6  C   UNL     1       8.596  -4.036  25.331  0.00  0.00    +0.028 A 
ATOM      7  C   UNL     1       9.271  -2.922  24.804  0.00  0.00    +0.143 A 
ENDROOT
BRANCH   7   8
ATOM      8  O   UNL     1      10.252  -3.159  23.880  0.00  0.00    -0.505 OA
ATOM      9  H   UNL     1       9.957  -3.836  23.252  0.00  0.00    +0.292 HD
ENDBRANCH   7   8
BRANCH   5  10
ATOM     10  C   UNL     1       6.820  -4.926  26.946  0.00  0.00    +0.193 C 
BRANCH  10  11
ATOM     11  O   UNL     1       7.705  -5.786  27.655  0.00  0.00    -0.390 OA
ATOM     12  H   UNL     1       8.556  -5.315  27.713  0.00  0.00    +0.210 HD
ENDBRANCH  10  11
ENDBRANCH   5  10
BRANCH   6  13
ATOM     13  C   UNL     1       8.913  -5.425  24.831  0.00  0.00    +0.195 C 
BRANCH  13  14
ATOM     14  O   UNL     1      10.031  -5.957  25.532  0.00  0.00    -0.390 OA
ATOM     15  H   UNL     1      10.784  -5.872  24.916  0.00  0.00    +0.210 HD
ENDBRANCH  13  14
ENDBRANCH   6  13
TORSDOF 5
ENDMDL
