MODEL 1
REMARK VINA RESULT:      -6.1      0.000      0.000
REMARK  Name = 
REMARK  3 active torsions:
REMARK  status: ('A' for Active; 'I' for Inactive)
REMARK    1  A    between atoms: C_2  and  C_12
REMARK    2  A    between atoms: N_3  and  C_4
REMARK    3  A    between atoms: C_6  and  C_9
REMARK                            x       y       z     vdW  Elec       q    Type
REMARK                         _______ _______ _______ _____ _____    ______ ____
ROOT
ATOM      1  O   UNL     1       8.204  -5.182  23.606  0.00  0.00    -0.270 OA
ATOM      2  C   UNL     1       7.708  -4.557  24.528  0.00  0.00    +0.249 C 
ATOM      3  N   UNL     1       7.876  -3.130  24.638  0.00  0.00    -0.267 N 
ATOM      4  H   UNL     1       7.356  -2.624  25.341  0.00  0.00    +0.157 HD
ENDROOT
BRANCH   2   5
ATOM      5  C   UNL     1       6.879  -5.242  25.551  0.00  0.00    +0.037 A 
ATOM      6  C   UNL     1       7.290  -5.143  26.890  0.00  0.00    +0.013 A 
ATOM      7  C   UNL     1       6.528  -5.719  27.905  0.00  0.00    +0.001 A 
ATOM      8  C   UNL     1       5.352  -6.391  27.590  0.00  0.00    +0.000 A 
ATOM      9  C   UNL     1       4.936  -6.495  26.262  0.00  0.00    +0.001 A 
ATOM     10  C   UNL     1       5.694  -5.921  25.237  0.00  0.00    +0.013 A 
ENDBRANCH   2   5
BRANCH   3  11
ATOM     11  C   UNL     1       8.655  -2.394  23.750  0.00  0.00    +0.121 A 
ATOM     12  N   UNL     1       9.987  -2.605  23.484  0.00  0.00    -0.264 N 
ATOM     13  H   UNL     1      10.595  -3.332  23.841  0.00  0.00    +0.190 HD
ATOM     14  N   UNL     1      10.531  -1.685  22.672  0.00  0.00    -0.177 NA
ATOM     15  C   UNL     1       9.493  -0.915  22.337  0.00  0.00    +0.068 A 
ATOM     16  C   UNL     1       8.299  -1.324  22.960  0.00  0.00    +0.068 A 
BRANCH  15  17
ATOM     17  C   UNL     1       9.571   0.294  21.419  0.00  0.00    +0.040 C 
ATOM     18  C   UNL     1       9.950   1.641  21.994  0.00  0.00    +0.010 C 
ATOM     19  C   UNL     1       8.538   1.387  21.586  0.00  0.00    +0.010 C 
ENDBRANCH  15  17
ENDBRANCH   3  11
TORSDOF 3
ENDMDL
MODEL 2
REMARK VINA RESULT:      -6.1      3.186      8.159
REMARK  Name = 
REMARK  3 active torsions:
REMARK  status: ('A' for Active; 'I' for Inactive)
REMARK    1  A    between atoms: C_2  and  C_12
REMARK    2  A    between atoms: N_3  and  C_4
REMARK    3  A    between atoms: C_6  and  C_9
REMARK                            x       y       z     vdW  Elec       q    Type
REMARK                         _______ _______ _______ _____ _____    ______ ____
ROOT
ATOM      1  O   UNL     1      10.148   1.713  21.893  0.00  0.00    -0.270 OA
ATOM      2  C   UNL     1      10.317   2.042  23.055  0.00  0.00    +0.249 C 
ATOM      3  N   UNL     1      10.393   1.059  24.106  0.00  0.00    -0.267 N 
ATOM      4  H   UNL     1      10.655   1.349  25.037  0.00  0.00    +0.157 HD
ENDROOT
BRANCH   2   5
ATOM      5  C   UNL     1      10.492   3.469  23.423  0.00  0.00    +0.037 A 
ATOM      6  C   UNL     1       9.394   4.130  23.996  0.00  0.00    +0.013 A 
ATOM      7  C   UNL     1       9.507   5.455  24.412  0.00  0.00    +0.001 A 
ATOM      8  C   UNL     1      10.716   6.125  24.262  0.00  0.00    +0.000 A 
ATOM      9  C   UNL     1      11.813   5.478  23.692  0.00  0.00    +0.001 A 
ATOM     10  C   UNL     1      11.708   4.148  23.271  0.00  0.00    +0.013 A 
ENDBRANCH   2   5
BRANCH   3  11
ATOM     11  C   UNL     1      10.216  -0.303  23.876  0.00  0.00    +0.121 A 
ATOM     12  N   UNL     1      10.595  -0.982  22.743  0.00  0.00    -0.264 N 
ATOM     13  H   UNL     1      11.090  -0.632  21.932  0.00  0.00    +0.190 HD
ATOM     14  N   UNL     1      10.209  -2.268  22.726  0.00  0.00    -0.177 NA
ATOM     15  C   UNL     1       9.645  -2.438  23.924  0.00  0.00    +0.068 A 
ATOM     16  C   UNL     1       9.643  -1.256  24.688  0.00  0.00    +0.068 A 
BRANCH  15  17
ATOM     17  C   UNL     1       9.034  -3.738  24.418  0.00  0.00    +0.040 C 
ATOM     18  C   UNL     1       7.878  -4.353  23.660  0.00  0.00    +0.010 C 
ATOM     19  C   UNL     1       7.629  -3.702  24.979  0.00  0.00    +0.010 C 
ENDBRANCH  15  17
ENDBRANCH   3  11
TORSDOF 3
ENDMDL
MODEL 3
REMARK VINA RESULT:      -6.1      0.739      1.499
REMARK  Name = 
REMARK  3 active torsions:
REMARK  status: ('A' for Active; 'I' for Inactive)
REMARK    1  A    between atoms: C_2  and  C_12
REMARK    2  A    between atoms: N_3  and  C_4
REMARK    3  A    between atoms: C_6  and  C_9
REMARK                            x       y       z     vdW  Elec       q    Type
REMARK                         _______ _______ _______ _____ _____    ______ ____
ROOT
ATOM      1  O   UNL     1       8.432  -5.254  23.732  0.00  0.00    -0.270 OA
ATOM      2  C   UNL     1       7.451  -4.675  24.166  0.00  0.00    +0.249 C 
ATOM      3  N   UNL     1       7.297  -3.251  24.012  0.00  0.00    -0.267 N 
ATOM      4  H   UNL     1       6.422  -2.817  24.272  0.00  0.00    +0.157 HD
ENDROOT
BRANCH   2   5
ATOM      5  C   UNL     1       6.358  -5.426  24.834  0.00  0.00    +0.037 A 
ATOM      6  C   UNL     1       5.385  -6.019  24.015  0.00  0.00    +0.013 A 
ATOM      7  C   UNL     1       4.361  -6.781  24.575  0.00  0.00    +0.001 A 
ATOM      8  C   UNL     1       4.306  -6.957  25.953  0.00  0.00    +0.000 A 
ATOM      9  C   UNL     1       5.268  -6.369  26.776  0.00  0.00    +0.001 A 
ATOM     10  C   UNL     1       6.298  -5.603  26.222  0.00  0.00    +0.013 A 
ENDBRANCH   2   5
BRANCH   3  11
ATOM     11  C   UNL     1       8.272  -2.447  23.427  0.00  0.00    +0.121 A 
ATOM     12  N   UNL     1       9.628  -2.571  23.606  0.00  0.00    -0.264 N 
ATOM     13  H   UNL     1      10.135  -3.268  24.139  0.00  0.00    +0.190 HD
ATOM     14  N   UNL     1      10.345  -1.601  23.016  0.00  0.00    -0.177 NA
ATOM     15  C   UNL     1       9.423  -0.888  22.366  0.00  0.00    +0.068 A 
ATOM     16  C   UNL     1       8.121  -1.383  22.566  0.00  0.00    +0.068 A 
BRANCH  15  17
ATOM     17  C   UNL     1       9.714   0.345  21.525  0.00  0.00    +0.040 C 
ATOM     18  C   UNL     1       9.945   1.674  22.210  0.00  0.00    +0.010 C 
ATOM     19  C   UNL     1       8.670   1.439  21.473  0.00  0.00    +0.010 C 
ENDBRANCH  15  17
ENDBRANCH   3  11
TORSDOF 3
ENDMDL
MODEL 4
REMARK VINA RESULT:      -6.1      3.164      8.140
REMARK  Name = 
REMARK  3 active torsions:
REMARK  status: ('A' for Active; 'I' for Inactive)
REMARK    1  A    between atoms: C_2  and  C_12
REMARK    2  A    between atoms: N_3  and  C_4
REMARK    3  A    between atoms: C_6  and  C_9
REMARK                            x       y       z     vdW  Elec       q    Type
REMARK                         _______ _______ _______ _____ _____    ______ ____
ROOT
ATOM      1  O   UNL     1       9.752   1.745  22.014  0.00  0.00    -0.270 OA
ATOM      2  C   UNL     1      10.169   2.036  23.122  0.00  0.00    +0.249 C 
ATOM      3  N   UNL     1      10.491   1.018  24.090  0.00  0.00    -0.267 N 
ATOM      4  H   UNL     1      10.948   1.281  24.951  0.00  0.00    +0.157 HD
ENDROOT
BRANCH   2   5
ATOM      5  C   UNL     1      10.400   3.453  23.499  0.00  0.00    +0.037 A 
ATOM      6  C   UNL     1      11.689   3.975  23.300  0.00  0.00    +0.013 A 
ATOM      7  C   UNL     1      11.959   5.312  23.585  0.00  0.00    +0.001 A 
ATOM      8  C   UNL     1      10.946   6.134  24.066  0.00  0.00    +0.000 A 
ATOM      9  C   UNL     1       9.663   5.624  24.268  0.00  0.00    +0.001 A 
ATOM     10  C   UNL     1       9.383   4.284  23.986  0.00  0.00    +0.013 A 
ENDBRANCH   2   5
BRANCH   3  11
ATOM     11  C   UNL     1      10.288  -0.339  23.850  0.00  0.00    +0.121 A 
ATOM     12  N   UNL     1      10.631  -1.012  22.703  0.00  0.00    -0.264 N 
ATOM     13  H   UNL     1      11.115  -0.661  21.885  0.00  0.00    +0.190 HD
ATOM     14  N   UNL     1      10.226  -2.291  22.682  0.00  0.00    -0.177 NA
ATOM     15  C   UNL     1       9.685  -2.464  23.890  0.00  0.00    +0.068 A 
ATOM     16  C   UNL     1       9.717  -1.291  24.665  0.00  0.00    +0.068 A 
BRANCH  15  17
ATOM     17  C   UNL     1       9.064  -3.760  24.385  0.00  0.00    +0.040 C 
ATOM     18  C   UNL     1       7.906  -4.368  23.624  0.00  0.00    +0.010 C 
ATOM     19  C   UNL     1       7.658  -3.714  24.942  0.00  0.00    +0.010 C 
ENDBRANCH  15  17
ENDBRANCH   3  11
TORSDOF 3
ENDMDL
MODEL 5
REMARK VINA RESULT:      -6.0      1.648      7.118
REMARK  Name = 
REMARK  3 active torsions:
REMARK  status: ('A' for Active; 'I' for Inactive)
REMARK    1  A    between atoms: C_2  and  C_12
REMARK    2  A    between atoms: N_3  and  C_4
REMARK    3  A    between atoms: C_6  and  C_9
REMARK                            x       y       z     vdW  Elec       q    Type
REMARK                         _______ _______ _______ _____ _____    ______ ____
ROOT
ATOM      1  O   UNL     1      10.181  -2.992  23.800  0.00  0.00    -0.270 OA
ATOM      2  C   UNL     1       9.515  -2.029  24.139  0.00  0.00    +0.249 C 
ATOM      3  N   UNL     1       8.409  -2.169  25.052  0.00  0.00    -0.267 N 
ATOM      4  H   UNL     1       7.954  -1.341  25.409  0.00  0.00    +0.157 HD
ENDROOT
BRANCH   2   5
ATOM      5  C   UNL     1       9.847  -0.666  23.652  0.00  0.00    +0.037 A 
ATOM      6  C   UNL     1       9.539  -0.361  22.317  0.00  0.00    +0.013 A 
ATOM      7  C   UNL     1       9.777   0.916  21.813  0.00  0.00    +0.001 A 
ATOM      8  C   UNL     1      10.320   1.895  22.637  0.00  0.00    +0.000 A 
ATOM      9  C   UNL     1      10.632   1.601  23.966  0.00  0.00    +0.001 A 
ATOM     10  C   UNL     1      10.397   0.322  24.480  0.00  0.00    +0.013 A 
ENDBRANCH   2   5
BRANCH   3  11
ATOM     11  C   UNL     1       7.995  -3.403  25.547  0.00  0.00    +0.121 A 
ATOM     12  N   UNL     1       8.807  -4.483  25.793  0.00  0.00    -0.264 N 
ATOM     13  H   UNL     1       9.814  -4.550  25.704  0.00  0.00    +0.190 HD
ATOM     14  N   UNL     1       8.143  -5.589  26.163  0.00  0.00    -0.177 NA
ATOM     15  C   UNL     1       6.876  -5.178  26.241  0.00  0.00    +0.068 A 
ATOM     16  C   UNL     1       6.730  -3.823  25.891  0.00  0.00    +0.068 A 
BRANCH  15  17
ATOM     17  C   UNL     1       5.699  -6.060  26.626  0.00  0.00    +0.040 C 
ATOM     18  C   UNL     1       4.849  -6.681  25.539  0.00  0.00    +0.010 C 
ATOM     19  C   UNL     1       4.302  -5.552  26.346  0.00  0.00    +0.010 C 
ENDBRANCH  15  17
ENDBRANCH   3  11
TORSDOF 3
ENDMDL
MODEL 6
REMARK VINA RESULT:      -5.9      2.954      7.062
REMARK  Name = 
REMARK  3 active torsions:
REMARK  status: ('A' for Active; 'I' for Inactive)
REMARK    1  A    between atoms: C_2  and  C_12
REMARK    2  A    between atoms: N_3  and  C_4
REMARK    3  A    between atoms: C_6  and  C_9
REMARK                            x       y       z     vdW  Elec       q    Type
REMARK                         _______ _______ _______ _____ _____    ______ ____
ROOT
ATOM      1  O   UNL     1       9.127  -0.311  25.866  0.00  0.00    -0.270 OA
ATOM      2  C   UNL     1       9.157   0.124  24.728  0.00  0.00    +0.249 C 
ATOM      3  N   UNL     1       8.901  -0.730  23.595  0.00  0.00    -0.267 N 
ATOM      4  H   UNL     1       8.813  -0.320  22.676  0.00  0.00    +0.157 HD
ENDROOT
BRANCH   2   5
ATOM      5  C   UNL     1       9.420   1.562  24.469  0.00  0.00    +0.037 A 
ATOM      6  C   UNL     1      10.568   1.888  23.730  0.00  0.00    +0.013 A 
ATOM      7  C   UNL     1      10.845   3.215  23.408  0.00  0.00    +0.001 A 
ATOM      8  C   UNL     1       9.978   4.222  23.819  0.00  0.00    +0.000 A 
ATOM      9  C   UNL     1       8.835   3.907  24.556  0.00  0.00    +0.001 A 
ATOM     10  C   UNL     1       8.549   2.578  24.884  0.00  0.00    +0.013 A 
ENDBRANCH   2   5
BRANCH   3  11
ATOM     11  C   UNL     1       8.671  -2.098  23.721  0.00  0.00    +0.121 A 
ATOM     12  N   UNL     1       9.526  -3.006  24.297  0.00  0.00    -0.264 N 
ATOM     13  H   UNL     1      10.415  -2.837  24.751  0.00  0.00    +0.190 HD
ATOM     14  N   UNL     1       9.116  -4.280  24.192  0.00  0.00    -0.177 NA
ATOM     15  C   UNL     1       7.919  -4.173  23.610  0.00  0.00    +0.068 A 
ATOM     16  C   UNL     1       7.583  -2.838  23.317  0.00  0.00    +0.068 A 
BRANCH  15  17
ATOM     17  C   UNL     1       7.017  -5.345  23.260  0.00  0.00    +0.040 C 
ATOM     18  C   UNL     1       7.233  -6.086  21.959  0.00  0.00    +0.010 C 
ATOM     19  C   UNL     1       6.052  -5.186  22.105  0.00  0.00    +0.010 C 
ENDBRANCH  15  17
ENDBRANCH   3  11
TORSDOF 3
ENDMDL
MODEL 7
REMARK VINA RESULT:      -5.8      1.150      1.412
REMARK  Name = 
REMARK  3 active torsions:
REMARK  status: ('A' for Active; 'I' for Inactive)
REMARK    1  A    between atoms: C_2  and  C_12
REMARK    2  A    between atoms: N_3  and  C_4
REMARK    3  A    between atoms: C_6  and  C_9
REMARK                            x       y       z     vdW  Elec       q    Type
REMARK                         _______ _______ _______ _____ _____    ______ ____
ROOT
ATOM      1  O   UNL     1       7.345  -3.101  25.590  0.00  0.00    -0.270 OA
ATOM      2  C   UNL     1       7.112  -3.894  24.694  0.00  0.00    +0.249 C 
ATOM      3  N   UNL     1       7.747  -3.773  23.406  0.00  0.00    -0.267 N 
ATOM      4  H   UNL     1       7.630  -4.510  22.725  0.00  0.00    +0.157 HD
ENDROOT
BRANCH   2   5
ATOM      5  C   UNL     1       6.194  -5.040  24.912  0.00  0.00    +0.037 A 
ATOM      6  C   UNL     1       6.010  -5.481  26.232  0.00  0.00    +0.013 A 
ATOM      7  C   UNL     1       5.122  -6.518  26.512  0.00  0.00    +0.001 A 
ATOM      8  C   UNL     1       4.411  -7.117  25.477  0.00  0.00    +0.000 A 
ATOM      9  C   UNL     1       4.588  -6.686  24.161  0.00  0.00    +0.001 A 
ATOM     10  C   UNL     1       5.478  -5.647  23.872  0.00  0.00    +0.013 A 
ENDBRANCH   2   5
BRANCH   3  11
ATOM     11  C   UNL     1       8.604  -2.723  23.086  0.00  0.00    +0.121 A 
ATOM     12  N   UNL     1       9.853  -2.514  23.618  0.00  0.00    -0.264 N 
ATOM     13  H   UNL     1      10.364  -3.091  24.276  0.00  0.00    +0.190 HD
ATOM     14  N   UNL     1      10.427  -1.367  23.223  0.00  0.00    -0.177 NA
ATOM     15  C   UNL     1       9.556  -0.872  22.342  0.00  0.00    +0.068 A 
ATOM     16  C   UNL     1       8.416  -1.685  22.201  0.00  0.00    +0.068 A 
BRANCH  15  17
ATOM     17  C   UNL     1       9.731   0.437  21.590  0.00  0.00    +0.040 C 
ATOM     18  C   UNL     1       9.723   1.741  22.356  0.00  0.00    +0.010 C 
ATOM     19  C   UNL     1       8.551   1.379  21.508  0.00  0.00    +0.010 C 
ENDBRANCH  15  17
ENDBRANCH   3  11
TORSDOF 3
ENDMDL
MODEL 8
REMARK VINA RESULT:      -5.6      3.131      8.005
REMARK  Name = 
REMARK  3 active torsions:
REMARK  status: ('A' for Active; 'I' for Inactive)
REMARK    1  A    between atoms: C_2  and  C_12
REMARK    2  A    between atoms: N_3  and  C_4
REMARK    3  A    between atoms: C_6  and  C_9
REMARK                            x       y       z     vdW  Elec       q    Type
REMARK                         _______ _______ _______ _____ _____    ______ ____
ROOT
ATOM      1  O   UNL     1      10.986   1.025  24.049  0.00  0.00    -0.270 OA
ATOM      2  C   UNL     1      10.175   1.794  23.562  0.00  0.00    +0.249 C 
ATOM      3  N   UNL     1       9.002   1.308  22.879  0.00  0.00    -0.267 N 
ATOM      4  H   UNL     1       8.289   1.963  22.593  0.00  0.00    +0.157 HD
ENDROOT
BRANCH   2   5
ATOM      5  C   UNL     1      10.346   3.263  23.691  0.00  0.00    +0.037 A 
ATOM      6  C   UNL     1      11.604   3.799  23.371  0.00  0.00    +0.013 A 
ATOM      7  C   UNL     1      11.816   5.175  23.420  0.00  0.00    +0.001 A 
ATOM      8  C   UNL     1      10.776   6.023  23.785  0.00  0.00    +0.000 A 
ATOM      9  C   UNL     1       9.523   5.499  24.106  0.00  0.00    +0.001 A 
ATOM     10  C   UNL     1       9.300   4.119  24.060  0.00  0.00    +0.013 A 
ENDBRANCH   2   5
BRANCH   3  11
ATOM     11  C   UNL     1       8.757  -0.048  22.678  0.00  0.00    +0.121 A 
ATOM     12  N   UNL     1       9.643  -0.954  22.147  0.00  0.00    -0.264 N 
ATOM     13  H   UNL     1      10.604  -0.807  21.864  0.00  0.00    +0.190 HD
ATOM     14  N   UNL     1       9.121  -2.176  21.956  0.00  0.00    -0.177 NA
ATOM     15  C   UNL     1       7.892  -2.070  22.465  0.00  0.00    +0.068 A 
ATOM     16  C   UNL     1       7.621  -0.777  22.948  0.00  0.00    +0.068 A 
BRANCH  15  17
ATOM     17  C   UNL     1       6.868  -3.193  22.498  0.00  0.00    +0.040 C 
ATOM     18  C   UNL     1       6.936  -4.230  23.597  0.00  0.00    +0.010 C 
ATOM     19  C   UNL     1       7.339  -4.601  22.209  0.00  0.00    +0.010 C 
ENDBRANCH  15  17
ENDBRANCH   3  11
TORSDOF 3
ENDMDL
MODEL 9
REMARK VINA RESULT:      -5.5      1.946      2.630
REMARK  Name = 
REMARK  3 active torsions:
REMARK  status: ('A' for Active; 'I' for Inactive)
REMARK    1  A    between atoms: C_2  and  C_12
REMARK    2  A    between atoms: N_3  and  C_4
REMARK    3  A    between atoms: C_6  and  C_9
REMARK                            x       y       z     vdW  Elec       q    Type
REMARK                         _______ _______ _______ _____ _____    ______ ____
ROOT
ATOM      1  O   UNL     1       6.718  -4.927  25.363  0.00  0.00    -0.270 OA
ATOM      2  C   UNL     1       6.129  -4.954  24.297  0.00  0.00    +0.249 C 
ATOM      3  N   UNL     1       6.673  -4.311  23.127  0.00  0.00    -0.267 N 
ATOM      4  H   UNL     1       6.226  -4.451  22.232  0.00  0.00    +0.157 HD
ENDROOT
BRANCH   2   5
ATOM      5  C   UNL     1       4.845  -5.687  24.154  0.00  0.00    +0.037 A 
ATOM      6  C   UNL     1       4.611  -6.759  25.030  0.00  0.00    +0.013 A 
ATOM      7  C   UNL     1       3.405  -7.455  24.984  0.00  0.00    +0.001 A 
ATOM      8  C   UNL     1       2.427  -7.084  24.067  0.00  0.00    +0.000 A 
ATOM      9  C   UNL     1       2.652  -6.021  23.192  0.00  0.00    +0.001 A 
ATOM     10  C   UNL     1       3.859  -5.317  23.231  0.00  0.00    +0.013 A 
ENDBRANCH   2   5
BRANCH   3  11
ATOM     11  C   UNL     1       7.854  -3.574  23.155  0.00  0.00    +0.121 A 
ATOM     12  N   UNL     1       8.899  -3.766  24.026  0.00  0.00    -0.264 N 
ATOM     13  H   UNL     1       9.006  -4.477  24.740  0.00  0.00    +0.190 HD
ATOM     14  N   UNL     1       9.874  -2.850  23.915  0.00  0.00    -0.177 NA
ATOM     15  C   UNL     1       9.480  -2.103  22.881  0.00  0.00    +0.068 A 
ATOM     16  C   UNL     1       8.244  -2.523  22.356  0.00  0.00    +0.068 A 
BRANCH  15  17
ATOM     17  C   UNL     1      10.242  -0.907  22.334  0.00  0.00    +0.040 C 
ATOM     18  C   UNL     1       9.992   0.465  22.920  0.00  0.00    +0.010 C 
ATOM     19  C   UNL     1       9.472   0.140  21.560  0.00  0.00    +0.010 C 
ENDBRANCH  15  17
ENDBRANCH   3  11
TORSDOF 3
ENDMDL
