MODEL 1
REMARK VINA RESULT:      -6.5      0.000      0.000
REMARK  Name = 
REMARK  10 active torsions:
REMARK  status: ('A' for Active; 'I' for Inactive)
REMARK    1  A    between atoms: C_2  and  C_3
REMARK    2  A    between atoms: C_2  and  N_12
REMARK    3  A    between atoms: C_2  and  C_33
REMARK    4  A    between atoms: C_3  and  S_4
REMARK    5  A    between atoms: S_4  and  C_5
REMARK    6  A    between atoms: C_5  and  C_6
REMARK    7  A    between atoms: C_13  and  C_15
REMARK    8  A    between atoms: C_15  and  C_17
REMARK    9  A    between atoms: C_15  and  N_24
REMARK   10  A    between atoms: C_17  and  C_18
REMARK                            x       y       z     vdW  Elec       q    Type
REMARK                         _______ _______ _______ _____ _____    ______ ____
ROOT
ATOM      1  C   UNK A   1       7.023  -1.898  25.052  0.00  0.00    +0.165 C 
ENDROOT
BRANCH   1   2
ATOM      2  N   UNK A   1       6.281  -2.779  25.942  0.00  0.00    -0.288 N 
ATOM      3  H   UNK A   1       5.571  -2.306  26.484  0.00  0.00    +0.151 HD
ATOM      4  C   UNK A   0       6.886  -3.793  26.629  0.00  0.00    +0.303 C 
ATOM      5  N   UNK A   0       6.007  -4.545  27.386  0.00  0.00    -0.281 N 
ATOM      6  C   UNK A   0       4.559  -4.614  27.149  0.00  0.00    +0.137 C 
ATOM      7  C   UNK A   0       3.811  -4.819  28.465  0.00  0.00    +0.179 C 
ATOM      8  O   UNK A   0       4.288  -5.990  29.144  0.00  0.00    -0.377 OA
ATOM      9  C   UNK A   0       5.689  -5.866  29.442  0.00  0.00    +0.179 C 
ATOM     10  C   UNK A   0       6.523  -5.666  28.171  0.00  0.00    +0.137 C 
ATOM     11  O   UNK A   0       8.092  -4.007  26.562  0.00  0.00    -0.253 OA
ENDBRANCH   1   2
BRANCH   1  14
ATOM     12  N   UNK A   1       7.187   0.486  24.542  0.00  0.00    -0.304 N 
ATOM     13  H   UNK A   1       7.302   0.168  23.583  0.00  0.00    +0.149 HD
ATOM     14  C   UNK A   1       7.037  -0.435  25.556  0.00  0.00    +0.234 C 
ATOM     15  O   UNK A   1       6.849  -0.103  26.725  0.00  0.00    -0.274 OA
BRANCH  12  16
ATOM     16  C   UNK A   1       6.978   1.926  24.723  0.00  0.00    +0.146 C 
BRANCH  16  17
ATOM     17  C   UNK A   1       6.555   2.431  23.344  0.00  0.00    +0.246 C 
ATOM     18  O   UNK A   1       6.304   1.684  22.397  0.00  0.00    -0.299 OA
ENDBRANCH  16  17
BRANCH  16  19
ATOM     19  C   UNK A   1       8.250   2.622  25.198  0.00  0.00    +0.099 C 
BRANCH  19  20
ATOM     20  S   UNK A   1       9.020   3.581  23.850  0.00  0.00    -0.154 S 
BRANCH  20  21
ATOM     21  C   UNK A   1      10.569   2.638  23.673  0.00  0.00    +0.104 C 
BRANCH  21  22
ATOM     22  C   UNK A   1      10.288   1.279  23.082  0.00  0.00    -0.038 A 
ATOM     23  C   UNK A   1      10.563   0.112  23.810  0.00  0.00    +0.004 A 
ATOM     24  C   UNK A   1      10.254  -1.142  23.282  0.00  0.00    +0.000 A 
ATOM     25  C   UNK A   1       9.665  -1.243  22.023  0.00  0.00    +0.000 A 
ATOM     26  C   UNK A   1       9.384  -0.090  21.290  0.00  0.00    +0.000 A 
ATOM     27  C   UNK A   1       9.691   1.166  21.818  0.00  0.00    +0.004 A 
ENDBRANCH  21  22
ENDBRANCH  20  21
ENDBRANCH  19  20
ENDBRANCH  16  19
ENDBRANCH  12  16
ENDBRANCH   1  14
BRANCH   1  28
ATOM     28  C   UNK A   1       6.440  -1.981  23.620  0.00  0.00    +0.067 C 
BRANCH  28  29
ATOM     29  C   UNK A   1       6.297  -3.395  23.083  0.00  0.00    -0.045 A 
ATOM     30  C   UNK A   1       7.432  -4.132  22.713  0.00  0.00    +0.004 A 
ATOM     31  C   UNK A   1       7.316  -5.464  22.308  0.00  0.00    +0.000 A 
ATOM     32  C   UNK A   1       6.064  -6.076  22.270  0.00  0.00    +0.000 A 
ATOM     33  C   UNK A   1       4.927  -5.350  22.610  0.00  0.00    +0.000 A 
ATOM     34  C   UNK A   1       5.041  -4.014  22.999  0.00  0.00    +0.004 A 
ENDBRANCH  28  29
ENDBRANCH   1  28
TORSDOF 10
ENDMDL
MODEL 2
REMARK VINA RESULT:      -6.5      1.669      2.126
REMARK  Name = 
REMARK  10 active torsions:
REMARK  status: ('A' for Active; 'I' for Inactive)
REMARK    1  A    between atoms: C_2  and  C_3
REMARK    2  A    between atoms: C_2  and  N_12
REMARK    3  A    between atoms: C_2  and  C_33
REMARK    4  A    between atoms: C_3  and  S_4
REMARK    5  A    between atoms: S_4  and  C_5
REMARK    6  A    between atoms: C_5  and  C_6
REMARK    7  A    between atoms: C_13  and  C_15
REMARK    8  A    between atoms: C_15  and  C_17
REMARK    9  A    between atoms: C_15  and  N_24
REMARK   10  A    between atoms: C_17  and  C_18
REMARK                            x       y       z     vdW  Elec       q    Type
REMARK                         _______ _______ _______ _____ _____    ______ ____
ROOT
ATOM      1  C   UNK A   1       5.974  -1.753  24.625  0.00  0.00    +0.165 C 
ENDROOT
BRANCH   1   2
ATOM      2  N   UNK A   1       4.765  -2.520  24.890  0.00  0.00    -0.288 N 
ATOM      3  H   UNK A   1       3.914  -1.989  24.774  0.00  0.00    +0.151 HD
ATOM      4  C   UNK A   0       4.691  -3.428  25.908  0.00  0.00    +0.303 C 
ATOM      5  N   UNK A   0       3.477  -4.087  25.970  0.00  0.00    -0.281 N 
ATOM      6  C   UNK A   0       2.540  -4.203  24.844  0.00  0.00    +0.137 C 
ATOM      7  C   UNK A   0       1.099  -4.244  25.352  0.00  0.00    +0.179 C 
ATOM      8  O   UNK A   0       0.922  -5.312  26.295  0.00  0.00    -0.377 OA
ATOM      9  C   UNK A   0       1.789  -5.132  27.428  0.00  0.00    +0.179 C 
ATOM     10  C   UNK A   0       3.264  -5.090  27.012  0.00  0.00    +0.137 C 
ATOM     11  O   UNK A   0       5.624  -3.635  26.676  0.00  0.00    -0.253 OA
ENDBRANCH   1   2
BRANCH   1  14
ATOM     12  N   UNK A   1       6.873   0.519  24.595  0.00  0.00    -0.304 N 
ATOM     13  H   UNK A   1       7.658   0.092  24.111  0.00  0.00    +0.149 HD
ATOM     14  C   UNK A   1       5.817  -0.263  25.012  0.00  0.00    +0.234 C 
ATOM     15  O   UNK A   1       4.823   0.210  25.559  0.00  0.00    -0.274 OA
BRANCH  12  16
ATOM     16  C   UNK A   1       6.846   1.985  24.611  0.00  0.00    +0.146 C 
BRANCH  16  17
ATOM     17  C   UNK A   1       6.639   2.384  23.150  0.00  0.00    +0.246 C 
ATOM     18  O   UNK A   1       6.496   1.567  22.240  0.00  0.00    -0.299 OA
ENDBRANCH  16  17
BRANCH  16  19
ATOM     19  C   UNK A   1       8.147   2.563  25.161  0.00  0.00    +0.099 C 
BRANCH  19  20
ATOM     20  S   UNK A   1       9.053   3.488  23.875  0.00  0.00    -0.154 S 
BRANCH  20  21
ATOM     21  C   UNK A   1      10.552   2.457  23.780  0.00  0.00    +0.104 C 
BRANCH  21  22
ATOM     22  C   UNK A   1      10.222   1.111  23.186  0.00  0.00    -0.038 A 
ATOM     23  C   UNK A   1       9.767   1.005  21.863  0.00  0.00    +0.004 A 
ATOM     24  C   UNK A   1       9.513  -0.245  21.298  0.00  0.00    +0.000 A 
ATOM     25  C   UNK A   1       9.714  -1.403  22.048  0.00  0.00    +0.000 A 
ATOM     26  C   UNK A   1      10.168  -1.311  23.363  0.00  0.00    +0.000 A 
ATOM     27  C   UNK A   1      10.424  -0.061  23.929  0.00  0.00    +0.004 A 
ENDBRANCH  21  22
ENDBRANCH  20  21
ENDBRANCH  19  20
ENDBRANCH  16  19
ENDBRANCH  12  16
ENDBRANCH   1  14
BRANCH   1  28
ATOM     28  C   UNK A   1       6.373  -1.895  23.136  0.00  0.00    +0.067 C 
BRANCH  28  29
ATOM     29  C   UNK A   1       6.672  -3.321  22.701  0.00  0.00    -0.045 A 
ATOM     30  C   UNK A   1       7.567  -4.114  23.433  0.00  0.00    +0.004 A 
ATOM     31  C   UNK A   1       7.774  -5.453  23.094  0.00  0.00    +0.000 A 
ATOM     32  C   UNK A   1       7.086  -6.017  22.021  0.00  0.00    +0.000 A 
ATOM     33  C   UNK A   1       6.214  -5.235  21.271  0.00  0.00    +0.000 A 
ATOM     34  C   UNK A   1       6.019  -3.891  21.598  0.00  0.00    +0.004 A 
ENDBRANCH  28  29
ENDBRANCH   1  28
TORSDOF 10
ENDMDL
MODEL 3
REMARK VINA RESULT:      -6.4      1.717      2.158
REMARK  Name = 
REMARK  10 active torsions:
REMARK  status: ('A' for Active; 'I' for Inactive)
REMARK    1  A    between atoms: C_2  and  C_3
REMARK    2  A    between atoms: C_2  and  N_12
REMARK    3  A    between atoms: C_2  and  C_33
REMARK    4  A    between atoms: C_3  and  S_4
REMARK    5  A    between atoms: S_4  and  C_5
REMARK    6  A    between atoms: C_5  and  C_6
REMARK    7  A    between atoms: C_13  and  C_15
REMARK    8  A    between atoms: C_15  and  C_17
REMARK    9  A    between atoms: C_15  and  N_24
REMARK   10  A    between atoms: C_17  and  C_18
REMARK                            x       y       z     vdW  Elec       q    Type
REMARK                         _______ _______ _______ _____ _____    ______ ____
ROOT
ATOM      1  C   UNK A   1       8.256  -3.170  26.169  0.00  0.00    +0.165 C 
ENDROOT
BRANCH   1   2
ATOM      2  N   UNK A   1       6.947  -3.802  26.251  0.00  0.00    -0.288 N 
ATOM      3  H   UNK A   1       6.186  -3.146  26.365  0.00  0.00    +0.151 HD
ATOM      4  C   UNK A   0       6.747  -4.970  26.930  0.00  0.00    +0.303 C 
ATOM      5  N   UNK A   0       5.446  -5.434  26.856  0.00  0.00    -0.281 N 
ATOM      6  C   UNK A   0       4.487  -5.045  25.813  0.00  0.00    +0.137 C 
ATOM      7  C   UNK A   0       3.065  -5.043  26.371  0.00  0.00    +0.179 C 
ATOM      8  O   UNK A   0       2.737  -6.322  26.935  0.00  0.00    -0.377 OA
ATOM      9  C   UNK A   0       3.637  -6.645  28.009  0.00  0.00    +0.179 C 
ATOM     10  C   UNK A   0       5.095  -6.680  27.536  0.00  0.00    +0.137 C 
ATOM     11  O   UNK A   0       7.647  -5.545  27.532  0.00  0.00    -0.253 OA
ENDBRANCH   1   2
BRANCH   1  14
ATOM     12  N   UNK A   1       7.006  -1.084  25.936  0.00  0.00    -0.304 N 
ATOM     13  H   UNK A   1       6.310  -1.671  25.485  0.00  0.00    +0.149 HD
ATOM     14  C   UNK A   1       8.183  -1.641  26.390  0.00  0.00    +0.234 C 
ATOM     15  O   UNK A   1       9.036  -0.985  26.984  0.00  0.00    -0.274 OA
BRANCH  12  16
ATOM     16  C   UNK A   1       6.587   0.284  26.255  0.00  0.00    +0.146 C 
BRANCH  16  17
ATOM     17  C   UNK A   1       5.146   0.143  26.745  0.00  0.00    +0.246 C 
ATOM     18  O   UNK A   1       4.210  -0.175  26.011  0.00  0.00    -0.299 OA
ENDBRANCH  16  17
BRANCH  16  19
ATOM     19  C   UNK A   1       6.665   1.194  25.031  0.00  0.00    +0.099 C 
BRANCH  19  20
ATOM     20  S   UNK A   1       7.889   2.524  25.275  0.00  0.00    -0.154 S 
BRANCH  20  21
ATOM     21  C   UNK A   1       8.469   2.700  23.557  0.00  0.00    +0.104 C 
BRANCH  21  22
ATOM     22  C   UNK A   1       9.110   1.418  23.088  0.00  0.00    -0.038 A 
ATOM     23  C   UNK A   1       9.967   0.697  23.933  0.00  0.00    +0.004 A 
ATOM     24  C   UNK A   1      10.518  -0.515  23.516  0.00  0.00    +0.000 A 
ATOM     25  C   UNK A   1      10.215  -1.022  22.253  0.00  0.00    +0.000 A 
ATOM     26  C   UNK A   1       9.362  -0.316  21.406  0.00  0.00    +0.000 A 
ATOM     27  C   UNK A   1       8.810   0.897  21.821  0.00  0.00    +0.004 A 
ENDBRANCH  21  22
ENDBRANCH  20  21
ENDBRANCH  19  20
ENDBRANCH  16  19
ENDBRANCH  12  16
ENDBRANCH   1  14
BRANCH   1  28
ATOM     28  C   UNK A   1       8.915  -3.499  24.807  0.00  0.00    +0.067 C 
BRANCH  28  29
ATOM     29  C   UNK A   1       7.937  -3.923  23.723  0.00  0.00    -0.045 A 
ATOM     30  C   UNK A   1       7.219  -2.961  22.999  0.00  0.00    +0.004 A 
ATOM     31  C   UNK A   1       6.390  -3.338  21.940  0.00  0.00    +0.000 A 
ATOM     32  C   UNK A   1       6.272  -4.681  21.589  0.00  0.00    +0.000 A 
ATOM     33  C   UNK A   1       6.960  -5.649  22.315  0.00  0.00    +0.000 A 
ATOM     34  C   UNK A   1       7.775  -5.275  23.385  0.00  0.00    +0.004 A 
ENDBRANCH  28  29
ENDBRANCH   1  28
TORSDOF 10
ENDMDL
MODEL 4
REMARK VINA RESULT:      -6.0      2.389      3.477
REMARK  Name = 
REMARK  10 active torsions:
REMARK  status: ('A' for Active; 'I' for Inactive)
REMARK    1  A    between atoms: C_2  and  C_3
REMARK    2  A    between atoms: C_2  and  N_12
REMARK    3  A    between atoms: C_2  and  C_33
REMARK    4  A    between atoms: C_3  and  S_4
REMARK    5  A    between atoms: S_4  and  C_5
REMARK    6  A    between atoms: C_5  and  C_6
REMARK    7  A    between atoms: C_13  and  C_15
REMARK    8  A    between atoms: C_15  and  C_17
REMARK    9  A    between atoms: C_15  and  N_24
REMARK   10  A    between atoms: C_17  and  C_18
REMARK                            x       y       z     vdW  Elec       q    Type
REMARK                         _______ _______ _______ _____ _____    ______ ____
ROOT
ATOM      1  C   UNK A   1       5.976  -1.286  25.474  0.00  0.00    +0.165 C 
ENDROOT
BRANCH   1   2
ATOM      2  N   UNK A   1       5.119  -2.447  25.290  0.00  0.00    -0.288 N 
ATOM      3  H   UNK A   1       4.238  -2.384  25.782  0.00  0.00    +0.151 HD
ATOM      4  C   UNK A   0       5.617  -3.719  25.255  0.00  0.00    +0.303 C 
ATOM      5  N   UNK A   0       4.651  -4.682  25.029  0.00  0.00    -0.281 N 
ATOM      6  C   UNK A   0       3.344  -4.415  24.415  0.00  0.00    +0.137 C 
ATOM      7  C   UNK A   0       2.286  -5.364  24.976  0.00  0.00    +0.179 C 
ATOM      8  O   UNK A   0       2.683  -6.732  24.794  0.00  0.00    -0.377 OA
ATOM      9  C   UNK A   0       3.923  -6.993  25.474  0.00  0.00    +0.179 C 
ATOM     10  C   UNK A   0       5.050  -6.087  24.964  0.00  0.00    +0.137 C 
ATOM     11  O   UNK A   0       6.810  -3.963  25.403  0.00  0.00    -0.253 OA
ENDBRANCH   1   2
BRANCH   1  14
ATOM     12  N   UNK A   1       5.637   1.080  25.981  0.00  0.00    -0.304 N 
ATOM     13  H   UNK A   1       6.274   1.233  25.203  0.00  0.00    +0.149 HD
ATOM     14  C   UNK A   1       5.315  -0.205  26.361  0.00  0.00    +0.234 C 
ATOM     15  O   UNK A   1       4.515  -0.443  27.263  0.00  0.00    -0.274 OA
BRANCH  12  16
ATOM     16  C   UNK A   1       4.947   2.269  26.491  0.00  0.00    +0.146 C 
BRANCH  16  17
ATOM     17  C   UNK A   1       4.098   2.757  25.317  0.00  0.00    +0.246 C 
ATOM     18  O   UNK A   1       4.087   2.206  24.216  0.00  0.00    -0.299 OA
ENDBRANCH  16  17
BRANCH  16  19
ATOM     19  C   UNK A   1       5.936   3.342  26.939  0.00  0.00    +0.099 C 
BRANCH  19  20
ATOM     20  S   UNK A   1       6.479   4.367  25.531  0.00  0.00    -0.154 S 
BRANCH  20  21
ATOM     21  C   UNK A   1       8.217   3.828  25.435  0.00  0.00    +0.104 C 
BRANCH  21  22
ATOM     22  C   UNK A   1       8.475   3.126  24.126  0.00  0.00    -0.038 A 
ATOM     23  C   UNK A   1       7.417   2.828  23.255  0.00  0.00    +0.004 A 
ATOM     24  C   UNK A   1       7.663   2.225  22.020  0.00  0.00    +0.000 A 
ATOM     25  C   UNK A   1       8.969   1.918  21.643  0.00  0.00    +0.000 A 
ATOM     26  C   UNK A   1      10.029   2.212  22.499  0.00  0.00    +0.000 A 
ATOM     27  C   UNK A   1       9.785   2.815  23.733  0.00  0.00    +0.004 A 
ENDBRANCH  21  22
ENDBRANCH  20  21
ENDBRANCH  19  20
ENDBRANCH  16  19
ENDBRANCH  12  16
ENDBRANCH   1  14
BRANCH   1  28
ATOM     28  C   UNK A   1       6.372  -0.700  24.096  0.00  0.00    +0.067 C 
BRANCH  28  29
ATOM     29  C   UNK A   1       7.792  -1.025  23.661  0.00  0.00    -0.045 A 
ATOM     30  C   UNK A   1       8.044  -1.514  22.371  0.00  0.00    +0.004 A 
ATOM     31  C   UNK A   1       9.353  -1.726  21.932  0.00  0.00    +0.000 A 
ATOM     32  C   UNK A   1      10.426  -1.449  22.777  0.00  0.00    +0.000 A 
ATOM     33  C   UNK A   1      10.190  -0.987  24.068  0.00  0.00    +0.000 A 
ATOM     34  C   UNK A   1       8.881  -0.791  24.513  0.00  0.00    +0.004 A 
ENDBRANCH  28  29
ENDBRANCH   1  28
TORSDOF 10
ENDMDL
MODEL 5
REMARK VINA RESULT:      -6.0      1.943      3.141
REMARK  Name = 
REMARK  10 active torsions:
REMARK  status: ('A' for Active; 'I' for Inactive)
REMARK    1  A    between atoms: C_2  and  C_3
REMARK    2  A    between atoms: C_2  and  N_12
REMARK    3  A    between atoms: C_2  and  C_33
REMARK    4  A    between atoms: C_3  and  S_4
REMARK    5  A    between atoms: S_4  and  C_5
REMARK    6  A    between atoms: C_5  and  C_6
REMARK    7  A    between atoms: C_13  and  C_15
REMARK    8  A    between atoms: C_15  and  C_17
REMARK    9  A    between atoms: C_15  and  N_24
REMARK   10  A    between atoms: C_17  and  C_18
REMARK                            x       y       z     vdW  Elec       q    Type
REMARK                         _______ _______ _______ _____ _____    ______ ____
ROOT
ATOM      1  C   UNK A   1       8.421  -3.323  25.653  0.00  0.00    +0.165 C 
ENDROOT
BRANCH   1   2
ATOM      2  N   UNK A   1       7.106  -3.929  25.794  0.00  0.00    -0.288 N 
ATOM      3  H   UNK A   1       6.345  -3.268  25.729  0.00  0.00    +0.151 HD
ATOM      4  C   UNK A   0       6.862  -4.933  26.687  0.00  0.00    +0.303 C 
ATOM      5  N   UNK A   0       5.564  -5.407  26.641  0.00  0.00    -0.281 N 
ATOM      6  C   UNK A   0       4.664  -5.246  25.491  0.00  0.00    +0.137 C 
ATOM      7  C   UNK A   0       3.214  -5.135  25.959  0.00  0.00    +0.179 C 
ATOM      8  O   UNK A   0       2.848  -6.271  26.757  0.00  0.00    -0.377 OA
ATOM      9  C   UNK A   0       3.688  -6.361  27.921  0.00  0.00    +0.179 C 
ATOM     10  C   UNK A   0       5.168  -6.487  27.545  0.00  0.00    +0.137 C 
ATOM     11  O   UNK A   0       7.725  -5.367  27.443  0.00  0.00    -0.253 OA
ENDBRANCH   1   2
BRANCH   1  14
ATOM     12  N   UNK A   1       7.854  -1.023  25.053  0.00  0.00    -0.304 N 
ATOM     13  H   UNK A   1       7.521  -1.440  24.187  0.00  0.00    +0.149 HD
ATOM     14  C   UNK A   1       8.417  -1.822  26.026  0.00  0.00    +0.234 C 
ATOM     15  O   UNK A   1       8.792  -1.375  27.108  0.00  0.00    -0.274 OA
BRANCH  12  16
ATOM     16  C   UNK A   1       7.501   0.383  25.270  0.00  0.00    +0.146 C 
BRANCH  16  17
ATOM     17  C   UNK A   1       5.973   0.407  25.242  0.00  0.00    +0.246 C 
ATOM     18  O   UNK A   1       5.288  -0.555  24.892  0.00  0.00    -0.299 OA
ENDBRANCH  16  17
BRANCH  16  19
ATOM     19  C   UNK A   1       8.084   1.281  24.181  0.00  0.00    +0.099 C 
BRANCH  19  20
ATOM     20  S   UNK A   1       9.905   1.338  24.280  0.00  0.00    -0.154 S 
BRANCH  20  21
ATOM     21  C   UNK A   1      10.232   2.487  22.904  0.00  0.00    +0.104 C 
BRANCH  21  22
ATOM     22  C   UNK A   1      10.645   3.836  23.437  0.00  0.00    -0.038 A 
ATOM     23  C   UNK A   1      11.969   4.282  23.305  0.00  0.00    +0.004 A 
ATOM     24  C   UNK A   1      12.337   5.551  23.752  0.00  0.00    +0.000 A 
ATOM     25  C   UNK A   1      11.386   6.389  24.331  0.00  0.00    +0.000 A 
ATOM     26  C   UNK A   1      10.067   5.959  24.465  0.00  0.00    +0.000 A 
ATOM     27  C   UNK A   1       9.696   4.690  24.018  0.00  0.00    +0.004 A 
ENDBRANCH  21  22
ENDBRANCH  20  21
ENDBRANCH  19  20
ENDBRANCH  16  19
ENDBRANCH  12  16
ENDBRANCH   1  14
BRANCH   1  28
ATOM     28  C   UNK A   1       8.946  -3.530  24.211  0.00  0.00    +0.067 C 
BRANCH  28  29
ATOM     29  C   UNK A   1       7.921  -4.108  23.248  0.00  0.00    -0.045 A 
ATOM     30  C   UNK A   1       7.861  -5.491  23.022  0.00  0.00    +0.004 A 
ATOM     31  C   UNK A   1       6.863  -6.038  22.213  0.00  0.00    +0.000 A 
ATOM     32  C   UNK A   1       5.911  -5.209  21.621  0.00  0.00    +0.000 A 
ATOM     33  C   UNK A   1       5.974  -3.833  21.816  0.00  0.00    +0.000 A 
ATOM     34  C   UNK A   1       6.981  -3.284  22.612  0.00  0.00    +0.004 A 
ENDBRANCH  28  29
ENDBRANCH   1  28
TORSDOF 10
ENDMDL
MODEL 6
REMARK VINA RESULT:      -6.0      1.920      3.131
REMARK  Name = 
REMARK  10 active torsions:
REMARK  status: ('A' for Active; 'I' for Inactive)
REMARK    1  A    between atoms: C_2  and  C_3
REMARK    2  A    between atoms: C_2  and  N_12
REMARK    3  A    between atoms: C_2  and  C_33
REMARK    4  A    between atoms: C_3  and  S_4
REMARK    5  A    between atoms: S_4  and  C_5
REMARK    6  A    between atoms: C_5  and  C_6
REMARK    7  A    between atoms: C_13  and  C_15
REMARK    8  A    between atoms: C_15  and  C_17
REMARK    9  A    between atoms: C_15  and  N_24
REMARK   10  A    between atoms: C_17  and  C_18
REMARK                            x       y       z     vdW  Elec       q    Type
REMARK                         _______ _______ _______ _____ _____    ______ ____
ROOT
ATOM      1  C   UNK A   1       8.248  -3.715  25.860  0.00  0.00    +0.165 C 
ENDROOT
BRANCH   1   2
ATOM      2  N   UNK A   1       6.940  -4.342  25.980  0.00  0.00    -0.288 N 
ATOM      3  H   UNK A   1       6.169  -3.700  25.854  0.00  0.00    +0.151 HD
ATOM      4  C   UNK A   0       6.680  -5.308  26.911  0.00  0.00    +0.303 C 
ATOM      5  N   UNK A   0       5.394  -5.811  26.838  0.00  0.00    -0.281 N 
ATOM      6  C   UNK A   0       4.538  -5.723  25.647  0.00  0.00    +0.137 C 
ATOM      7  C   UNK A   0       3.068  -5.621  26.054  0.00  0.00    +0.179 C 
ATOM      8  O   UNK A   0       2.694  -6.726  26.891  0.00  0.00    -0.377 OA
ATOM      9  C   UNK A   0       3.488  -6.743  28.089  0.00  0.00    +0.179 C 
ATOM     10  C   UNK A   0       4.985  -6.855  27.776  0.00  0.00    +0.137 C 
ATOM     11  O   UNK A   0       7.521  -5.687  27.719  0.00  0.00    -0.253 OA
ENDBRANCH   1   2
BRANCH   1  14
ATOM     12  N   UNK A   1       8.986  -1.472  25.231  0.00  0.00    -0.304 N 
ATOM     13  H   UNK A   1       9.554  -1.963  24.545  0.00  0.00    +0.149 HD
ATOM     14  C   UNK A   1       8.188  -2.188  26.098  0.00  0.00    +0.234 C 
ATOM     15  O   UNK A   1       7.448  -1.642  26.914  0.00  0.00    -0.274 OA
BRANCH  12  16
ATOM     16  C   UNK A   1       8.911  -0.016  25.082  0.00  0.00    +0.146 C 
BRANCH  16  17
ATOM     17  C   UNK A   1       7.861   0.208  23.993  0.00  0.00    +0.246 C 
ATOM     18  O   UNK A   1       6.771   0.742  24.205  0.00  0.00    -0.299 OA
ENDBRANCH  16  17
BRANCH  16  19
ATOM     19  C   UNK A   1      10.259   0.576  24.677  0.00  0.00    +0.099 C 
BRANCH  19  20
ATOM     20  S   UNK A   1      10.183   1.307  23.007  0.00  0.00    -0.154 S 
BRANCH  20  21
ATOM     21  C   UNK A   1      10.266   3.070  23.461  0.00  0.00    +0.104 C 
BRANCH  21  22
ATOM     22  C   UNK A   1       8.881   3.610  23.713  0.00  0.00    -0.038 A 
ATOM     23  C   UNK A   1       7.960   3.735  22.662  0.00  0.00    +0.004 A 
ATOM     24  C   UNK A   1       6.662   4.186  22.906  0.00  0.00    +0.000 A 
ATOM     25  C   UNK A   1       6.269   4.513  24.203  0.00  0.00    +0.000 A 
ATOM     26  C   UNK A   1       7.174   4.389  25.256  0.00  0.00    +0.000 A 
ATOM     27  C   UNK A   1       8.472   3.938  25.015  0.00  0.00    +0.004 A 
ENDBRANCH  21  22
ENDBRANCH  20  21
ENDBRANCH  19  20
ENDBRANCH  16  19
ENDBRANCH  12  16
ENDBRANCH   1  14
BRANCH   1  28
ATOM     28  C   UNK A   1       8.860  -4.033  24.474  0.00  0.00    +0.067 C 
BRANCH  28  29
ATOM     29  C   UNK A   1       7.842  -4.412  23.411  0.00  0.00    -0.045 A 
ATOM     30  C   UNK A   1       7.071  -3.424  22.782  0.00  0.00    +0.004 A 
ATOM     31  C   UNK A   1       6.202  -3.755  21.740  0.00  0.00    +0.000 A 
ATOM     32  C   UNK A   1       6.096  -5.077  21.310  0.00  0.00    +0.000 A 
ATOM     33  C   UNK A   1       6.837  -6.071  21.942  0.00  0.00    +0.000 A 
ATOM     34  C   UNK A   1       7.693  -5.744  22.996  0.00  0.00    +0.004 A 
ENDBRANCH  28  29
ENDBRANCH   1  28
TORSDOF 10
ENDMDL
MODEL 7
REMARK VINA RESULT:      -5.9      2.669      5.297
REMARK  Name = 
REMARK  10 active torsions:
REMARK  status: ('A' for Active; 'I' for Inactive)
REMARK    1  A    between atoms: C_2  and  C_3
REMARK    2  A    between atoms: C_2  and  N_12
REMARK    3  A    between atoms: C_2  and  C_33
REMARK    4  A    between atoms: C_3  and  S_4
REMARK    5  A    between atoms: S_4  and  C_5
REMARK    6  A    between atoms: C_5  and  C_6
REMARK    7  A    between atoms: C_13  and  C_15
REMARK    8  A    between atoms: C_15  and  C_17
REMARK    9  A    between atoms: C_15  and  N_24
REMARK   10  A    between atoms: C_17  and  C_18
REMARK                            x       y       z     vdW  Elec       q    Type
REMARK                         _______ _______ _______ _____ _____    ______ ____
ROOT
ATOM      1  C   UNK A   1       8.674  -1.195  25.856  0.00  0.00    +0.165 C 
ENDROOT
BRANCH   1   2
ATOM      2  N   UNK A   1       8.036  -1.893  24.750  0.00  0.00    -0.288 N 
ATOM      3  H   UNK A   1       7.111  -1.551  24.533  0.00  0.00    +0.151 HD
ATOM      4  C   UNK A   0       8.156  -3.243  24.578  0.00  0.00    +0.303 C 
ATOM      5  N   UNK A   0       7.516  -3.713  23.446  0.00  0.00    -0.281 N 
ATOM      6  C   UNK A   0       7.160  -2.879  22.291  0.00  0.00    +0.137 C 
ATOM      7  C   UNK A   0       5.883  -3.398  21.631  0.00  0.00    +0.179 C 
ATOM      8  O   UNK A   0       6.027  -4.777  21.259  0.00  0.00    -0.377 OA
ATOM      9  C   UNK A   0       6.291  -5.587  22.418  0.00  0.00    +0.179 C 
ATOM     10  C   UNK A   0       7.568  -5.142  23.141  0.00  0.00    +0.137 C 
ATOM     11  O   UNK A   0       8.784  -3.954  25.357  0.00  0.00    -0.253 OA
ENDBRANCH   1   2
BRANCH   1  14
ATOM     12  N   UNK A   1       6.338  -0.888  26.505  0.00  0.00    -0.304 N 
ATOM     13  H   UNK A   1       6.141  -1.407  25.653  0.00  0.00    +0.149 HD
ATOM     14  C   UNK A   1       7.644  -0.610  26.850  0.00  0.00    +0.234 C 
ATOM     15  O   UNK A   1       7.939  -0.028  27.892  0.00  0.00    -0.274 OA
BRANCH  12  16
ATOM     16  C   UNK A   1       5.202  -0.671  27.406  0.00  0.00    +0.146 C 
BRANCH  16  17
ATOM     17  C   UNK A   1       4.200  -1.763  27.035  0.00  0.00    +0.246 C 
ATOM     18  O   UNK A   1       3.551  -1.759  25.988  0.00  0.00    -0.299 OA
ENDBRANCH  16  17
BRANCH  16  19
ATOM     19  C   UNK A   1       4.597   0.718  27.218  0.00  0.00    +0.099 C 
BRANCH  19  20
ATOM     20  S   UNK A   1       5.173   1.484  25.666  0.00  0.00    -0.154 S 
BRANCH  20  21
ATOM     21  C   UNK A   1       5.990   2.958  26.358  0.00  0.00    +0.104 C 
BRANCH  21  22
ATOM     22  C   UNK A   1       6.863   3.609  25.315  0.00  0.00    -0.038 A 
ATOM     23  C   UNK A   1       8.257   3.642  25.469  0.00  0.00    +0.004 A 
ATOM     24  C   UNK A   1       9.067   4.198  24.479  0.00  0.00    +0.000 A 
ATOM     25  C   UNK A   1       8.494   4.724  23.322  0.00  0.00    +0.000 A 
ATOM     26  C   UNK A   1       7.110   4.695  23.156  0.00  0.00    +0.000 A 
ATOM     27  C   UNK A   1       6.298   4.139  24.146  0.00  0.00    +0.004 A 
ENDBRANCH  21  22
ENDBRANCH  20  21
ENDBRANCH  19  20
ENDBRANCH  16  19
ENDBRANCH  12  16
ENDBRANCH   1  14
BRANCH   1  28
ATOM     28  C   UNK A   1       9.606  -0.085  25.312  0.00  0.00    +0.067 C 
BRANCH  28  29
ATOM     29  C   UNK A   1       9.219   0.443  23.940  0.00  0.00    -0.045 A 
ATOM     30  C   UNK A   1       7.869   0.538  23.572  0.00  0.00    +0.004 A 
ATOM     31  C   UNK A   1       7.502   1.109  22.352  0.00  0.00    +0.000 A 
ATOM     32  C   UNK A   1       8.479   1.595  21.485  0.00  0.00    +0.000 A 
ATOM     33  C   UNK A   1       9.824   1.483  21.827  0.00  0.00    +0.000 A 
ATOM     34  C   UNK A   1      10.192   0.898  23.039  0.00  0.00    +0.004 A 
ENDBRANCH  28  29
ENDBRANCH   1  28
TORSDOF 10
ENDMDL
MODEL 8
REMARK VINA RESULT:      -5.9      2.949      5.315
REMARK  Name = 
REMARK  10 active torsions:
REMARK  status: ('A' for Active; 'I' for Inactive)
REMARK    1  A    between atoms: C_2  and  C_3
REMARK    2  A    between atoms: C_2  and  N_12
REMARK    3  A    between atoms: C_2  and  C_33
REMARK    4  A    between atoms: C_3  and  S_4
REMARK    5  A    between atoms: S_4  and  C_5
REMARK    6  A    between atoms: C_5  and  C_6
REMARK    7  A    between atoms: C_13  and  C_15
REMARK    8  A    between atoms: C_15  and  C_17
REMARK    9  A    between atoms: C_15  and  N_24
REMARK   10  A    between atoms: C_17  and  C_18
REMARK                            x       y       z     vdW  Elec       q    Type
REMARK                         _______ _______ _______ _____ _____    ______ ____
ROOT
ATOM      1  C   UNK A   1       6.798  -0.678  25.135  0.00  0.00    +0.165 C 
ENDROOT
BRANCH   1   2
ATOM      2  N   UNK A   1       6.296  -1.857  24.445  0.00  0.00    -0.288 N 
ATOM      3  H   UNK A   1       5.667  -2.418  25.004  0.00  0.00    +0.151 HD
ATOM      4  C   UNK A   0       7.087  -2.607  23.621  0.00  0.00    +0.303 C 
ATOM      5  N   UNK A   0       6.417  -3.660  23.024  0.00  0.00    -0.281 N 
ATOM      6  C   UNK A   0       4.958  -3.729  22.865  0.00  0.00    +0.137 C 
ATOM      7  C   UNK A   0       4.483  -5.180  22.927  0.00  0.00    +0.179 C 
ATOM      8  O   UNK A   0       5.157  -5.979  21.943  0.00  0.00    -0.377 OA
ATOM      9  C   UNK A   0       6.577  -5.965  22.169  0.00  0.00    +0.179 C 
ATOM     10  C   UNK A   0       7.146  -4.542  22.114  0.00  0.00    +0.137 C 
ATOM     11  O   UNK A   0       8.271  -2.352  23.432  0.00  0.00    -0.253 OA
ENDBRANCH   1   2
BRANCH   1  14
ATOM     12  N   UNK A   1       5.874   0.816  26.833  0.00  0.00    -0.304 N 
ATOM     13  H   UNK A   1       6.118   1.550  26.173  0.00  0.00    +0.149 HD
ATOM     14  C   UNK A   1       6.155  -0.499  26.530  0.00  0.00    +0.234 C 
ATOM     15  O   UNK A   1       5.838  -1.427  27.272  0.00  0.00    -0.274 OA
BRANCH  12  16
ATOM     16  C   UNK A   1       5.041   1.222  27.969  0.00  0.00    +0.146 C 
BRANCH  16  17
ATOM     17  C   UNK A   1       3.630   1.338  27.392  0.00  0.00    +0.246 C 
ATOM     18  O   UNK A   1       3.396   1.386  26.183  0.00  0.00    -0.299 OA
ENDBRANCH  16  17
BRANCH  16  19
ATOM     19  C   UNK A   1       5.505   2.552  28.558  0.00  0.00    +0.099 C 
BRANCH  19  20
ATOM     20  S   UNK A   1       5.424   3.887  27.317  0.00  0.00    -0.154 S 
BRANCH  20  21
ATOM     21  C   UNK A   1       7.200   4.036  26.937  0.00  0.00    +0.104 C 
BRANCH  21  22
ATOM     22  C   UNK A   1       7.396   4.356  25.477  0.00  0.00    -0.038 A 
ATOM     23  C   UNK A   1       6.320   4.291  24.580  0.00  0.00    +0.004 A 
ATOM     24  C   UNK A   1       6.492   4.638  23.239  0.00  0.00    +0.000 A 
ATOM     25  C   UNK A   1       7.740   5.057  22.782  0.00  0.00    +0.000 A 
ATOM     26  C   UNK A   1       8.817   5.128  23.664  0.00  0.00    +0.000 A 
ATOM     27  C   UNK A   1       8.647   4.783  25.006  0.00  0.00    +0.004 A 
ENDBRANCH  21  22
ENDBRANCH  20  21
ENDBRANCH  19  20
ENDBRANCH  16  19
ENDBRANCH  12  16
ENDBRANCH   1  14
BRANCH   1  28
ATOM     28  C   UNK A   1       6.574   0.580  24.260  0.00  0.00    +0.067 C 
BRANCH  28  29
ATOM     29  C   UNK A   1       7.825   1.091  23.565  0.00  0.00    -0.045 A 
ATOM     30  C   UNK A   1       9.023   1.239  24.280  0.00  0.00    +0.004 A 
ATOM     31  C   UNK A   1      10.199   1.618  23.628  0.00  0.00    +0.000 A 
ATOM     32  C   UNK A   1      10.193   1.850  22.254  0.00  0.00    +0.000 A 
ATOM     33  C   UNK A   1       9.006   1.731  21.537  0.00  0.00    +0.000 A 
ATOM     34  C   UNK A   1       7.827   1.368  22.191  0.00  0.00    +0.004 A 
ENDBRANCH  28  29
ENDBRANCH   1  28
TORSDOF 10
ENDMDL
MODEL 9
REMARK VINA RESULT:      -5.9      2.770      7.464
REMARK  Name = 
REMARK  10 active torsions:
REMARK  status: ('A' for Active; 'I' for Inactive)
REMARK    1  A    between atoms: C_2  and  C_3
REMARK    2  A    between atoms: C_2  and  N_12
REMARK    3  A    between atoms: C_2  and  C_33
REMARK    4  A    between atoms: C_3  and  S_4
REMARK    5  A    between atoms: S_4  and  C_5
REMARK    6  A    between atoms: C_5  and  C_6
REMARK    7  A    between atoms: C_13  and  C_15
REMARK    8  A    between atoms: C_15  and  C_17
REMARK    9  A    between atoms: C_15  and  N_24
REMARK   10  A    between atoms: C_17  and  C_18
REMARK                            x       y       z     vdW  Elec       q    Type
REMARK                         _______ _______ _______ _____ _____    ______ ____
ROOT
ATOM      1  C   UNK A   1       8.251  -2.329  23.649  0.00  0.00    +0.165 C 
ENDROOT
BRANCH   1   2
ATOM      2  N   UNK A   1       7.516  -1.660  24.712  0.00  0.00    -0.288 N 
ATOM      3  H   UNK A   1       7.133  -2.291  25.401  0.00  0.00    +0.151 HD
ATOM      4  C   UNK A   0       6.708  -0.585  24.469  0.00  0.00    +0.303 C 
ATOM      5  N   UNK A   0       6.131  -0.061  25.611  0.00  0.00    -0.281 N 
ATOM      6  C   UNK A   0       6.652  -0.265  26.969  0.00  0.00    +0.137 C 
ATOM      7  C   UNK A   0       5.509  -0.281  27.983  0.00  0.00    +0.179 C 
ATOM      8  O   UNK A   0       4.733   0.923  27.893  0.00  0.00    -0.377 OA
ATOM      9  C   UNK A   0       4.163   1.060  26.580  0.00  0.00    +0.179 C 
ATOM     10  C   UNK A   0       5.245   1.096  25.494  0.00  0.00    +0.137 C 
ATOM     11  O   UNK A   0       6.530  -0.135  23.342  0.00  0.00    -0.253 OA
ENDBRANCH   1   2
BRANCH   1  14
ATOM     12  N   UNK A   1       6.878  -4.293  23.168  0.00  0.00    -0.304 N 
ATOM     13  H   UNK A   1       6.206  -3.611  22.824  0.00  0.00    +0.149 HD
ATOM     14  C   UNK A   1       8.078  -3.866  23.697  0.00  0.00    +0.234 C 
ATOM     15  O   UNK A   1       8.943  -4.650  24.082  0.00  0.00    -0.274 OA
BRANCH  12  16
ATOM     16  C   UNK A   1       6.585  -5.697  22.864  0.00  0.00    +0.146 C 
BRANCH  16  17
ATOM     17  C   UNK A   1       6.662  -5.787  21.340  0.00  0.00    +0.246 C 
ATOM     18  O   UNK A   1       5.921  -5.153  20.587  0.00  0.00    -0.299 OA
ENDBRANCH  16  17
BRANCH  16  19
ATOM     19  C   UNK A   1       5.203  -6.103  23.371  0.00  0.00    +0.099 C 
BRANCH  19  20
ATOM     20  S   UNK A   1       4.759  -5.183  24.883  0.00  0.00    -0.154 S 
BRANCH  20  21
ATOM     21  C   UNK A   1       5.299  -6.400  26.128  0.00  0.00    +0.104 C 
BRANCH  21  22
ATOM     22  C   UNK A   1       4.946  -5.920  27.513  0.00  0.00    -0.038 A 
ATOM     23  C   UNK A   1       4.843  -6.827  28.579  0.00  0.00    +0.004 A 
ATOM     24  C   UNK A   1       4.567  -6.375  29.870  0.00  0.00    +0.000 A 
ATOM     25  C   UNK A   1       4.396  -5.013  30.111  0.00  0.00    +0.000 A 
ATOM     26  C   UNK A   1       4.500  -4.102  29.061  0.00  0.00    +0.000 A 
ATOM     27  C   UNK A   1       4.776  -4.551  27.769  0.00  0.00    +0.004 A 
ENDBRANCH  21  22
ENDBRANCH  20  21
ENDBRANCH  19  20
ENDBRANCH  16  19
ENDBRANCH  12  16
ENDBRANCH   1  14
BRANCH   1  28
ATOM     28  C   UNK A   1       9.748  -1.942  23.719  0.00  0.00    +0.067 C 
BRANCH  28  29
ATOM     29  C   UNK A   1      10.036  -0.486  23.389  0.00  0.00    -0.045 A 
ATOM     30  C   UNK A   1       9.752   0.022  22.113  0.00  0.00    +0.004 A 
ATOM     31  C   UNK A   1       9.925   1.378  21.831  0.00  0.00    +0.000 A 
ATOM     32  C   UNK A   1      10.380   2.246  22.823  0.00  0.00    +0.000 A 
ATOM     33  C   UNK A   1      10.689   1.751  24.086  0.00  0.00    +0.000 A 
ATOM     34  C   UNK A   1      10.532   0.391  24.364  0.00  0.00    +0.004 A 
ENDBRANCH  28  29
ENDBRANCH   1  28
TORSDOF 10
ENDMDL
