MODEL 1
REMARK VINA RESULT:      -7.0      0.000      0.000
REMARK  Name = 
REMARK  23 active torsions:
REMARK  status: ('A' for Active; 'I' for Inactive)
REMARK    1  A    between atoms: C_9  and  C_11
REMARK    2  A    between atoms: C_11  and  N_12
REMARK    3  A    between atoms: N_12  and  C_13
REMARK    4  A    between atoms: C_16  and  C_19
REMARK    5  A    between atoms: N_21  and  C_22
REMARK    6  A    between atoms: C_22  and  C_24
REMARK    7  A    between atoms: C_22  and  C_49
REMARK    8  A    between atoms: C_24  and  C_25
REMARK    9  A    between atoms: C_25  and  C_26
REMARK   10  A    between atoms: N_28  and  C_29
REMARK   11  A    between atoms: C_29  and  C_31
REMARK   12  A    between atoms: C_29  and  C_46
REMARK   13  A    between atoms: C_31  and  C_32
REMARK   14  A    between atoms: C_32  and  C_33
REMARK   15  A    between atoms: N_35  and  C_36
REMARK   16  A    between atoms: C_36  and  C_38
REMARK   17  A    between atoms: C_36  and  C_43
REMARK   18  A    between atoms: C_38  and  C_39
REMARK   19  A    between atoms: C_39  and  C_40
REMARK   20  A    between atoms: C_40  and  O_41
REMARK   21  A    between atoms: C_43  and  O_44
REMARK   22  A    between atoms: C_46  and  O_47
REMARK   23  A    between atoms: C_49  and  O_50
REMARK                            x       y       z     vdW  Elec       q    Type
REMARK                         _______ _______ _______ _____ _____    ______ ____
ROOT
ATOM      1  C   UNK A   1       8.754   5.440  23.281  0.00  0.00    +0.182 C 
ENDROOT
BRANCH   1   3
ATOM      2  C   UNK A   0      10.247   3.449  23.366  0.00  0.00    +0.245 C 
ATOM      3  N   UNK A   1       8.984   3.998  23.449  0.00  0.00    -0.298 N 
ATOM      4  H   UNK A   1       8.153   3.417  23.439  0.00  0.00    +0.150 HD
ATOM      5  O   UNK A   0      11.256   4.152  23.360  0.00  0.00    -0.270 OA
BRANCH   2   9
ATOM      6  C   UNK A   0      10.054  -0.819  22.944  0.00  0.00    +0.027 A 
ATOM      7  C   UNK A   0      10.568  -0.257  24.121  0.00  0.00    +0.023 A 
ATOM      8  C   UNK A   0      10.751   1.122  24.260  0.00  0.00    +0.015 A 
ATOM      9  C   UNK A   0      10.385   1.971  23.215  0.00  0.00    +0.037 A 
ATOM     10  C   UNK A   0       9.975   1.405  21.997  0.00  0.00    +0.015 A 
ATOM     11  C   UNK A   0       9.818   0.021  21.861  0.00  0.00    +0.023 A 
BRANCH   6  12
ATOM     12  N   UNK A   0       9.724  -2.160  22.971  0.00  0.00    -0.342 N 
ATOM     13  H   UNK A   0      10.294  -2.676  23.641  0.00  0.00    +0.146 HD
BRANCH  12  14
ATOM     14  C   UNK A   0       8.374  -2.700  22.861  0.00  0.00    +0.126 C 
BRANCH  14  25
ATOM     15  N   UNK A   0       6.074  -6.979  28.983  0.00  0.00    -0.329 N 
ATOM     16  H   UNK A   0       5.651  -7.897  28.981  0.00  0.00    +0.145 HD
ATOM     17  H   UNK A   0       6.857  -6.899  29.625  0.00  0.00    +0.145 HD
ATOM     18  C   UNK A   0       6.325  -6.395  27.784  0.00  0.00    +0.195 A 
ATOM     19  N   UNK A   0       5.460  -6.687  26.784  0.00  0.00    -0.294 N 
ATOM     20  H   UNK A   0       4.634  -7.233  26.961  0.00  0.00    +0.172 HD
ATOM     21  C   UNK A   0       5.523  -6.078  25.568  0.00  0.00    +0.276 A 
ATOM     22  O   UNK A   0       4.609  -6.246  24.765  0.00  0.00    -0.266 OA
ATOM     23  C   UNK A   0       6.708  -5.194  25.332  0.00  0.00    +0.142 A 
ATOM     24  N   UNK A   0       6.977  -4.571  24.084  0.00  0.00    -0.261 N 
ATOM     25  C   UNK A   0       7.925  -3.404  24.158  0.00  0.00    +0.115 C 
ATOM     26  C   UNK A   0       9.159  -3.813  24.984  0.00  0.00    +0.127 C 
ATOM     27  N   UNK A   0       8.683  -4.250  26.285  0.00  0.00    -0.326 N 
ATOM     28  H   UNK A   0       9.364  -4.474  27.003  0.00  0.00    +0.148 HD
ATOM     29  C   UNK A   0       6.444  -5.023  22.884  0.00  0.00    +0.333 C 
ATOM     30  O   UNK A   0       6.760  -4.692  21.746  0.00  0.00    -0.279 OA
ATOM     31  C   UNK A   0       7.535  -5.027  26.408  0.00  0.00    +0.149 A 
ATOM     32  N   UNK A   0       7.330  -5.611  27.628  0.00  0.00    -0.199 NA
ENDBRANCH  14  25
ENDBRANCH  12  14
ENDBRANCH   6  12
ENDBRANCH   2   9
ENDBRANCH   1   3
BRANCH   1  33
ATOM     33  C   UNK A   1       7.444   5.597  22.499  0.00  0.00    +0.325 C 
ATOM     34  O   UNK A   1       6.370   5.147  22.881  0.00  0.00    -0.249 OA
BRANCH  33  35
ATOM     35  O   UNK A   1       7.568   6.263  21.328  0.00  0.00    -0.479 OA
ATOM     36  H   UNK A   1       8.178   7.026  21.348  0.00  0.00    +0.295 HD
ENDBRANCH  33  35
ENDBRANCH   1  33
BRANCH   1  37
ATOM     37  C   UNK A   1       8.707   6.200  24.623  0.00  0.00    +0.043 C 
BRANCH  37  38
ATOM     38  C   UNK A   1       8.394   5.231  25.761  0.00  0.00    +0.098 C 
BRANCH  38  39
ATOM     39  C   UNK A   1       6.979   5.141  26.304  0.00  0.00    +0.214 C 
ATOM     40  N   UNK A   1       6.377   3.973  25.868  0.00  0.00    -0.302 N 
ATOM     41  H   UNK A   1       6.827   3.494  25.091  0.00  0.00    +0.150 HD
ATOM     42  O   UNK A   1       6.433   5.959  27.031  0.00  0.00    -0.276 OA
BRANCH  40  43
ATOM     43  C   UNK A   1       4.998   3.599  26.178  0.00  0.00    +0.182 C 
BRANCH  43  44
ATOM     44  C   UNK A   1       4.941   3.008  27.595  0.00  0.00    +0.325 C 
ATOM     45  O   UNK A   1       5.160   1.833  27.862  0.00  0.00    -0.249 OA
BRANCH  44  46
ATOM     46  O   UNK A   1       4.611   3.911  28.548  0.00  0.00    -0.479 OA
ATOM     47  H   UNK A   1       4.551   4.824  28.189  0.00  0.00    +0.295 HD
ENDBRANCH  44  46
ENDBRANCH  43  44
BRANCH  43  48
ATOM     48  C   UNK A   1       4.516   2.548  25.159  0.00  0.00    +0.043 C 
BRANCH  48  49
ATOM     49  C   UNK A   1       5.492   2.158  24.041  0.00  0.00    +0.098 C 
BRANCH  49  50
ATOM     50  C   UNK A   1       6.178   0.817  24.190  0.00  0.00    +0.214 C 
ATOM     51  N   UNK A   1       6.100   0.334  25.481  0.00  0.00    -0.302 N 
ATOM     52  H   UNK A   1       5.672   0.923  26.199  0.00  0.00    +0.150 HD
ATOM     53  O   UNK A   1       6.740   0.233  23.276  0.00  0.00    -0.276 OA
BRANCH  51  54
ATOM     54  C   UNK A   1       6.759  -0.880  25.965  0.00  0.00    +0.182 C 
BRANCH  54  55
ATOM     55  C   UNK A   1       7.942  -0.411  26.827  0.00  0.00    +0.325 C 
ATOM     56  O   UNK A   1       8.891  -1.135  27.109  0.00  0.00    -0.249 OA
BRANCH  55  57
ATOM     57  O   UNK A   1       7.874   0.871  27.227  0.00  0.00    -0.479 OA
ATOM     58  H   UNK A   1       7.064   1.355  26.967  0.00  0.00    +0.295 HD
ENDBRANCH  55  57
ENDBRANCH  54  55
BRANCH  54  59
ATOM     59  C   UNK A   1       5.826  -1.755  26.822  0.00  0.00    +0.045 C 
BRANCH  59  60
ATOM     60  C   UNK A   1       4.636  -2.277  26.018  0.00  0.00    +0.123 C 
BRANCH  60  61
ATOM     61  C   UNK A   1       3.595  -3.081  26.758  0.00  0.00    +0.305 C 
ATOM     62  O   UNK A   1       3.895  -3.960  27.555  0.00  0.00    -0.251 OA
BRANCH  61  63
ATOM     63  O   UNK A   1       2.312  -2.838  26.432  0.00  0.00    -0.481 OA
ATOM     64  H   UNK A   1       1.876  -3.496  25.863  0.00  0.00    +0.295 HD
ENDBRANCH  61  63
ENDBRANCH  60  61
ENDBRANCH  59  60
ENDBRANCH  54  59
ENDBRANCH  51  54
ENDBRANCH  49  50
ENDBRANCH  48  49
ENDBRANCH  43  48
ENDBRANCH  40  43
ENDBRANCH  38  39
ENDBRANCH  37  38
ENDBRANCH   1  37
TORSDOF 23
ENDMDL
MODEL 2
REMARK VINA RESULT:      -6.4      2.285      7.613
REMARK  Name = 
REMARK  23 active torsions:
REMARK  status: ('A' for Active; 'I' for Inactive)
REMARK    1  A    between atoms: C_9  and  C_11
REMARK    2  A    between atoms: C_11  and  N_12
REMARK    3  A    between atoms: N_12  and  C_13
REMARK    4  A    between atoms: C_16  and  C_19
REMARK    5  A    between atoms: N_21  and  C_22
REMARK    6  A    between atoms: C_22  and  C_24
REMARK    7  A    between atoms: C_22  and  C_49
REMARK    8  A    between atoms: C_24  and  C_25
REMARK    9  A    between atoms: C_25  and  C_26
REMARK   10  A    between atoms: N_28  and  C_29
REMARK   11  A    between atoms: C_29  and  C_31
REMARK   12  A    between atoms: C_29  and  C_46
REMARK   13  A    between atoms: C_31  and  C_32
REMARK   14  A    between atoms: C_32  and  C_33
REMARK   15  A    between atoms: N_35  and  C_36
REMARK   16  A    between atoms: C_36  and  C_38
REMARK   17  A    between atoms: C_36  and  C_43
REMARK   18  A    between atoms: C_38  and  C_39
REMARK   19  A    between atoms: C_39  and  C_40
REMARK   20  A    between atoms: C_40  and  O_41
REMARK   21  A    between atoms: C_43  and  O_44
REMARK   22  A    between atoms: C_46  and  O_47
REMARK   23  A    between atoms: C_49  and  O_50
REMARK                            x       y       z     vdW  Elec       q    Type
REMARK                         _______ _______ _______ _____ _____    ______ ____
ROOT
ATOM      1  C   UNK A   1       8.318  -3.665  23.398  0.00  0.00    +0.182 C 
ENDROOT
BRANCH   1   3
ATOM      2  C   UNK A   0       9.939  -1.825  22.959  0.00  0.00    +0.245 C 
ATOM      3  N   UNK A   1       8.639  -2.284  23.009  0.00  0.00    -0.298 N 
ATOM      4  H   UNK A   1       7.851  -1.646  22.966  0.00  0.00    +0.150 HD
ATOM      5  O   UNK A   0      10.896  -2.594  23.030  0.00  0.00    -0.270 OA
BRANCH   2   9
ATOM      6  C   UNK A   0      10.194   2.458  23.114  0.00  0.00    +0.027 A 
ATOM      7  C   UNK A   0       9.795   1.825  21.928  0.00  0.00    +0.023 A 
ATOM      8  C   UNK A   0       9.803   0.433  21.798  0.00  0.00    +0.015 A 
ATOM      9  C   UNK A   0      10.185  -0.355  22.884  0.00  0.00    +0.037 A 
ATOM     10  C   UNK A   0      10.690   0.276  24.032  0.00  0.00    +0.015 A 
ATOM     11  C   UNK A   0      10.701   1.670  24.143  0.00  0.00    +0.023 A 
BRANCH   6  12
ATOM     12  N   UNK A   0       9.966   3.816  23.217  0.00  0.00    -0.342 N 
ATOM     13  H   UNK A   0      10.011   4.277  22.309  0.00  0.00    +0.146 HD
BRANCH  12  14
ATOM     14  C   UNK A   0       9.000   4.445  24.111  0.00  0.00    +0.126 C 
BRANCH  14  25
ATOM     15  N   UNK A   0       1.405   3.074  22.887  0.00  0.00    -0.329 N 
ATOM     16  H   UNK A   0       0.625   3.284  23.495  0.00  0.00    +0.145 HD
ATOM     17  H   UNK A   0       1.266   3.392  21.931  0.00  0.00    +0.145 HD
ATOM     18  C   UNK A   0       2.654   3.339  23.344  0.00  0.00    +0.195 A 
ATOM     19  N   UNK A   0       2.843   3.205  24.678  0.00  0.00    -0.294 N 
ATOM     20  H   UNK A   0       2.113   2.840  25.267  0.00  0.00    +0.172 HD
ATOM     21  C   UNK A   0       4.072   3.321  25.254  0.00  0.00    +0.276 A 
ATOM     22  O   UNK A   0       4.213   3.011  26.434  0.00  0.00    -0.266 OA
ATOM     23  C   UNK A   0       5.180   3.780  24.358  0.00  0.00    +0.142 A 
ATOM     24  N   UNK A   0       6.494   4.053  24.824  0.00  0.00    -0.261 N 
ATOM     25  C   UNK A   0       7.549   4.068  23.751  0.00  0.00    +0.115 C 
ATOM     26  C   UNK A   0       7.058   4.938  22.579  0.00  0.00    +0.127 C 
ATOM     27  N   UNK A   0       5.792   4.386  22.131  0.00  0.00    -0.326 N 
ATOM     28  H   UNK A   0       5.357   4.775  21.301  0.00  0.00    +0.148 HD
ATOM     29  C   UNK A   0       6.781   4.326  26.155  0.00  0.00    +0.333 C 
ATOM     30  O   UNK A   0       7.826   4.763  26.627  0.00  0.00    -0.279 OA
ATOM     31  C   UNK A   0       4.842   3.932  23.042  0.00  0.00    +0.149 A 
ATOM     32  N   UNK A   0       3.592   3.694  22.541  0.00  0.00    -0.199 NA
ENDBRANCH  14  25
ENDBRANCH  12  14
ENDBRANCH   6  12
ENDBRANCH   2   9
ENDBRANCH   1   3
BRANCH   1  33
ATOM     33  C   UNK A   1       8.794  -3.845  24.845  0.00  0.00    +0.325 C 
ATOM     34  O   UNK A   1       8.349  -3.201  25.788  0.00  0.00    -0.249 OA
BRANCH  33  35
ATOM     35  O   UNK A   1       9.770  -4.769  25.002  0.00  0.00    -0.479 OA
ATOM     36  H   UNK A   1       9.465  -5.697  25.006  0.00  0.00    +0.295 HD
ENDBRANCH  33  35
ENDBRANCH   1  33
BRANCH   1  37
ATOM     37  C   UNK A   1       6.819  -3.997  23.249  0.00  0.00    +0.043 C 
BRANCH  37  38
ATOM     38  C   UNK A   1       6.004  -2.708  23.172  0.00  0.00    +0.098 C 
BRANCH  38  39
ATOM     39  C   UNK A   1       5.239  -2.228  24.392  0.00  0.00    +0.214 C 
ATOM     40  N   UNK A   1       5.974  -1.266  25.065  0.00  0.00    -0.302 N 
ATOM     41  H   UNK A   1       6.961  -1.200  24.824  0.00  0.00    +0.150 HD
ATOM     42  O   UNK A   1       4.133  -2.609  24.745  0.00  0.00    -0.276 OA
BRANCH  40  43
ATOM     43  C   UNK A   1       5.541  -0.627  26.306  0.00  0.00    +0.182 C 
BRANCH  43  44
ATOM     44  C   UNK A   1       6.518   0.506  26.657  0.00  0.00    +0.325 C 
ATOM     45  O   UNK A   1       7.536   0.761  26.026  0.00  0.00    -0.249 OA
BRANCH  44  46
ATOM     46  O   UNK A   1       6.160   1.211  27.756  0.00  0.00    -0.479 OA
ATOM     47  H   UNK A   1       6.388   2.163  27.678  0.00  0.00    +0.295 HD
ENDBRANCH  44  46
ENDBRANCH  43  44
BRANCH  43  48
ATOM     48  C   UNK A   1       5.534  -1.672  27.439  0.00  0.00    +0.043 C 
BRANCH  48  49
ATOM     49  C   UNK A   1       4.223  -1.857  28.213  0.00  0.00    +0.098 C 
BRANCH  49  50
ATOM     50  C   UNK A   1       3.768  -3.285  28.427  0.00  0.00    +0.214 C 
ATOM     51  N   UNK A   1       3.877  -4.042  27.278  0.00  0.00    -0.302 N 
ATOM     52  H   UNK A   1       4.172  -3.582  26.414  0.00  0.00    +0.150 HD
ATOM     53  O   UNK A   1       3.348  -3.715  29.490  0.00  0.00    -0.276 OA
BRANCH  51  54
ATOM     54  C   UNK A   1       3.415  -5.424  27.135  0.00  0.00    +0.182 C 
BRANCH  54  55
ATOM     55  C   UNK A   1       2.315  -5.398  26.062  0.00  0.00    +0.325 C 
ATOM     56  O   UNK A   1       1.132  -5.606  26.312  0.00  0.00    -0.249 OA
BRANCH  55  57
ATOM     57  O   UNK A   1       2.743  -5.100  24.823  0.00  0.00    -0.479 OA
ATOM     58  H   UNK A   1       2.427  -5.691  24.110  0.00  0.00    +0.295 HD
ENDBRANCH  55  57
ENDBRANCH  54  55
BRANCH  54  59
ATOM     59  C   UNK A   1       4.536  -6.377  26.686  0.00  0.00    +0.045 C 
BRANCH  59  60
ATOM     60  C   UNK A   1       5.867  -5.646  26.504  0.00  0.00    +0.123 C 
BRANCH  60  61
ATOM     61  C   UNK A   1       6.820  -5.635  27.674  0.00  0.00    +0.305 C 
ATOM     62  O   UNK A   1       6.453  -5.373  28.812  0.00  0.00    -0.251 OA
BRANCH  61  63
ATOM     63  O   UNK A   1       8.118  -5.844  27.387  0.00  0.00    -0.481 OA
ATOM     64  H   UNK A   1       8.721  -5.095  27.529  0.00  0.00    +0.295 HD
ENDBRANCH  61  63
ENDBRANCH  60  61
ENDBRANCH  59  60
ENDBRANCH  54  59
ENDBRANCH  51  54
ENDBRANCH  49  50
ENDBRANCH  48  49
ENDBRANCH  43  48
ENDBRANCH  40  43
ENDBRANCH  38  39
ENDBRANCH  37  38
ENDBRANCH   1  37
TORSDOF 23
ENDMDL
MODEL 3
REMARK VINA RESULT:      -6.2      2.498      9.984
REMARK  Name = 
REMARK  23 active torsions:
REMARK  status: ('A' for Active; 'I' for Inactive)
REMARK    1  A    between atoms: C_9  and  C_11
REMARK    2  A    between atoms: C_11  and  N_12
REMARK    3  A    between atoms: N_12  and  C_13
REMARK    4  A    between atoms: C_16  and  C_19
REMARK    5  A    between atoms: N_21  and  C_22
REMARK    6  A    between atoms: C_22  and  C_24
REMARK    7  A    between atoms: C_22  and  C_49
REMARK    8  A    between atoms: C_24  and  C_25
REMARK    9  A    between atoms: C_25  and  C_26
REMARK   10  A    between atoms: N_28  and  C_29
REMARK   11  A    between atoms: C_29  and  C_31
REMARK   12  A    between atoms: C_29  and  C_46
REMARK   13  A    between atoms: C_31  and  C_32
REMARK   14  A    between atoms: C_32  and  C_33
REMARK   15  A    between atoms: N_35  and  C_36
REMARK   16  A    between atoms: C_36  and  C_38
REMARK   17  A    between atoms: C_36  and  C_43
REMARK   18  A    between atoms: C_38  and  C_39
REMARK   19  A    between atoms: C_39  and  C_40
REMARK   20  A    between atoms: C_40  and  O_41
REMARK   21  A    between atoms: C_43  and  O_44
REMARK   22  A    between atoms: C_46  and  O_47
REMARK   23  A    between atoms: C_49  and  O_50
REMARK                            x       y       z     vdW  Elec       q    Type
REMARK                         _______ _______ _______ _____ _____    ______ ____
ROOT
ATOM      1  C   UNK A   1       2.393  -7.138  26.950  0.00  0.00    +0.182 C 
ENDROOT
BRANCH   1   3
ATOM      2  C   UNK A   0       3.945  -5.199  26.756  0.00  0.00    +0.245 C 
ATOM      3  N   UNK A   1       2.661  -5.696  26.850  0.00  0.00    -0.298 N 
ATOM      4  H   UNK A   1       1.872  -5.088  27.043  0.00  0.00    +0.150 HD
ATOM      5  O   UNK A   0       4.906  -5.936  26.541  0.00  0.00    -0.270 OA
BRANCH   2   9
ATOM      6  C   UNK A   0       4.351  -0.928  26.902  0.00  0.00    +0.027 A 
ATOM      7  C   UNK A   0       5.491  -1.733  26.774  0.00  0.00    +0.023 A 
ATOM      8  C   UNK A   0       5.418  -3.128  26.831  0.00  0.00    +0.015 A 
ATOM      9  C   UNK A   0       4.176  -3.743  26.988  0.00  0.00    +0.037 A 
ATOM     10  C   UNK A   0       3.050  -2.940  27.229  0.00  0.00    +0.015 A 
ATOM     11  C   UNK A   0       3.138  -1.544  27.193  0.00  0.00    +0.023 A 
BRANCH   6  12
ATOM     12  N   UNK A   0       4.491   0.420  26.636  0.00  0.00    -0.342 N 
ATOM     13  H   UNK A   0       3.611   0.922  26.751  0.00  0.00    +0.146 HD
BRANCH  12  14
ATOM     14  C   UNK A   0       5.645   1.237  26.995  0.00  0.00    +0.126 C 
BRANCH  14  25
ATOM     15  N   UNK A   0       7.378   6.342  21.338  0.00  0.00    -0.329 N 
ATOM     16  H   UNK A   0       8.088   6.266  20.623  0.00  0.00    +0.145 HD
ATOM     17  H   UNK A   0       6.464   6.595  20.971  0.00  0.00    +0.145 HD
ATOM     18  C   UNK A   0       7.307   5.356  22.268  0.00  0.00    +0.195 A 
ATOM     19  N   UNK A   0       8.479   4.768  22.606  0.00  0.00    -0.294 N 
ATOM     20  H   UNK A   0       9.352   5.116  22.247  0.00  0.00    +0.172 HD
ATOM     21  C   UNK A   0       8.570   3.852  23.609  0.00  0.00    +0.276 A 
ATOM     22  O   UNK A   0       9.678   3.489  23.992  0.00  0.00    -0.266 OA
ATOM     23  C   UNK A   0       7.275   3.395  24.206  0.00  0.00    +0.142 A 
ATOM     24  N   UNK A   0       7.189   2.370  25.185  0.00  0.00    -0.261 N 
ATOM     25  C   UNK A   0       5.904   2.357  25.968  0.00  0.00    +0.115 C 
ATOM     26  C   UNK A   0       4.719   2.450  24.987  0.00  0.00    +0.127 C 
ATOM     27  N   UNK A   0       4.902   3.658  24.202  0.00  0.00    -0.326 N 
ATOM     28  H   UNK A   0       4.168   3.937  23.560  0.00  0.00    +0.148 HD
ATOM     29  C   UNK A   0       8.190   1.427  25.381  0.00  0.00    +0.333 C 
ATOM     30  O   UNK A   0       8.136   0.397  26.046  0.00  0.00    -0.279 OA
ATOM     31  C   UNK A   0       6.159   4.030  23.736  0.00  0.00    +0.149 A 
ATOM     32  N   UNK A   0       6.182   5.016  22.787  0.00  0.00    -0.199 NA
ENDBRANCH  14  25
ENDBRANCH  12  14
ENDBRANCH   6  12
ENDBRANCH   2   9
ENDBRANCH   1   3
BRANCH   1  33
ATOM     33  C   UNK A   1       1.572  -7.354  28.227  0.00  0.00    +0.325 C 
ATOM     34  O   UNK A   1       0.734  -6.558  28.635  0.00  0.00    -0.249 OA
BRANCH  33  35
ATOM     35  O   UNK A   1       1.860  -8.498  28.890  0.00  0.00    -0.479 OA
ATOM     36  H   UNK A   1       2.222  -9.217  28.337  0.00  0.00    +0.295 HD
ENDBRANCH  33  35
ENDBRANCH   1  33
BRANCH   1  37
ATOM     37  C   UNK A   1       1.670  -7.700  25.708  0.00  0.00    +0.043 C 
BRANCH  37  38
ATOM     38  C   UNK A   1       2.669  -7.908  24.572  0.00  0.00    +0.098 C 
BRANCH  38  39
ATOM     39  C   UNK A   1       2.884  -6.806  23.550  0.00  0.00    +0.214 C 
ATOM     40  N   UNK A   1       4.233  -6.513  23.444  0.00  0.00    -0.302 N 
ATOM     41  H   UNK A   1       4.831  -6.859  24.191  0.00  0.00    +0.150 HD
ATOM     42  O   UNK A   1       2.014  -6.251  22.895  0.00  0.00    -0.276 OA
BRANCH  40  43
ATOM     43  C   UNK A   1       4.778  -5.470  22.577  0.00  0.00    +0.182 C 
BRANCH  43  44
ATOM     44  C   UNK A   1       6.108  -5.954  21.980  0.00  0.00    +0.325 C 
ATOM     45  O   UNK A   1       7.171  -5.976  22.586  0.00  0.00    -0.249 OA
BRANCH  44  46
ATOM     46  O   UNK A   1       6.010  -6.355  20.689  0.00  0.00    -0.479 OA
ATOM     47  H   UNK A   1       5.909  -7.328  20.610  0.00  0.00    +0.295 HD
ENDBRANCH  44  46
ENDBRANCH  43  44
BRANCH  43  48
ATOM     48  C   UNK A   1       5.019  -4.195  23.408  0.00  0.00    +0.043 C 
BRANCH  48  49
ATOM     49  C   UNK A   1       5.496  -2.947  22.654  0.00  0.00    +0.098 C 
BRANCH  49  50
ATOM     50  C   UNK A   1       6.726  -2.260  23.208  0.00  0.00    +0.214 C 
ATOM     51  N   UNK A   1       7.620  -3.159  23.755  0.00  0.00    -0.302 N 
ATOM     52  H   UNK A   1       7.358  -4.145  23.798  0.00  0.00    +0.150 HD
ATOM     53  O   UNK A   1       6.903  -1.052  23.181  0.00  0.00    -0.276 OA
BRANCH  51  54
ATOM     54  C   UNK A   1       8.847  -2.795  24.466  0.00  0.00    +0.182 C 
BRANCH  54  55
ATOM     55  C   UNK A   1       9.213  -4.010  25.335  0.00  0.00    +0.325 C 
ATOM     56  O   UNK A   1       8.668  -4.253  26.406  0.00  0.00    -0.249 OA
BRANCH  55  57
ATOM     57  O   UNK A   1      10.162  -4.809  24.815  0.00  0.00    -0.479 OA
ATOM     58  H   UNK A   1      10.979  -4.897  25.345  0.00  0.00    +0.295 HD
ENDBRANCH  55  57
ENDBRANCH  54  55
BRANCH  54  59
ATOM     59  C   UNK A   1      10.013  -2.489  23.511  0.00  0.00    +0.045 C 
BRANCH  59  60
ATOM     60  C   UNK A   1      10.287  -0.988  23.408  0.00  0.00    +0.123 C 
BRANCH  60  61
ATOM     61  C   UNK A   1       9.935  -0.303  22.110  0.00  0.00    +0.305 C 
ATOM     62  O   UNK A   1      10.045   0.906  21.960  0.00  0.00    -0.251 OA
BRANCH  61  63
ATOM     63  O   UNK A   1       9.410  -1.085  21.148  0.00  0.00    -0.481 OA
ATOM     64  H   UNK A   1       8.766  -0.666  20.552  0.00  0.00    +0.295 HD
ENDBRANCH  61  63
ENDBRANCH  60  61
ENDBRANCH  59  60
ENDBRANCH  54  59
ENDBRANCH  51  54
ENDBRANCH  49  50
ENDBRANCH  48  49
ENDBRANCH  43  48
ENDBRANCH  40  43
ENDBRANCH  38  39
ENDBRANCH  37  38
ENDBRANCH   1  37
TORSDOF 23
ENDMDL
MODEL 4
REMARK VINA RESULT:      -6.2      2.556      5.469
REMARK  Name = 
REMARK  23 active torsions:
REMARK  status: ('A' for Active; 'I' for Inactive)
REMARK    1  A    between atoms: C_9  and  C_11
REMARK    2  A    between atoms: C_11  and  N_12
REMARK    3  A    between atoms: N_12  and  C_13
REMARK    4  A    between atoms: C_16  and  C_19
REMARK    5  A    between atoms: N_21  and  C_22
REMARK    6  A    between atoms: C_22  and  C_24
REMARK    7  A    between atoms: C_22  and  C_49
REMARK    8  A    between atoms: C_24  and  C_25
REMARK    9  A    between atoms: C_25  and  C_26
REMARK   10  A    between atoms: N_28  and  C_29
REMARK   11  A    between atoms: C_29  and  C_31
REMARK   12  A    between atoms: C_29  and  C_46
REMARK   13  A    between atoms: C_31  and  C_32
REMARK   14  A    between atoms: C_32  and  C_33
REMARK   15  A    between atoms: N_35  and  C_36
REMARK   16  A    between atoms: C_36  and  C_38
REMARK   17  A    between atoms: C_36  and  C_43
REMARK   18  A    between atoms: C_38  and  C_39
REMARK   19  A    between atoms: C_39  and  C_40
REMARK   20  A    between atoms: C_40  and  O_41
REMARK   21  A    between atoms: C_43  and  O_44
REMARK   22  A    between atoms: C_46  and  O_47
REMARK   23  A    between atoms: C_49  and  O_50
REMARK                            x       y       z     vdW  Elec       q    Type
REMARK                         _______ _______ _______ _____ _____    ______ ____
ROOT
ATOM      1  C   UNK A   1       9.332   4.272  23.989  0.00  0.00    +0.182 C 
ENDROOT
BRANCH   1   3
ATOM      2  C   UNK A   0       7.509   2.655  24.503  0.00  0.00    +0.245 C 
ATOM      3  N   UNK A   1       8.673   3.298  24.871  0.00  0.00    -0.298 N 
ATOM      4  H   UNK A   1       9.014   3.270  25.826  0.00  0.00    +0.150 HD
ATOM      5  O   UNK A   0       7.083   2.703  23.351  0.00  0.00    -0.270 OA
BRANCH   2   9
ATOM      6  C   UNK A   0       5.403   0.107  27.243  0.00  0.00    +0.027 A 
ATOM      7  C   UNK A   0       4.685   0.922  26.357  0.00  0.00    +0.023 A 
ATOM      8  C   UNK A   0       5.324   1.846  25.524  0.00  0.00    +0.015 A 
ATOM      9  C   UNK A   0       6.716   1.942  25.548  0.00  0.00    +0.037 A 
ATOM     10  C   UNK A   0       7.427   1.209  26.511  0.00  0.00    +0.015 A 
ATOM     11  C   UNK A   0       6.775   0.305  27.356  0.00  0.00    +0.023 A 
BRANCH   6  12
ATOM     12  N   UNK A   0       4.710  -0.906  27.876  0.00  0.00    -0.342 N 
ATOM     13  H   UNK A   0       5.042  -1.053  28.829  0.00  0.00    +0.146 HD
BRANCH  12  14
ATOM     14  C   UNK A   0       3.280  -1.165  27.742  0.00  0.00    +0.126 C 
BRANCH  14  25
ATOM     15  N   UNK A   0       1.899  -8.669  29.430  0.00  0.00    -0.329 N 
ATOM     16  H   UNK A   0       2.082  -9.482  28.859  0.00  0.00    +0.145 HD
ATOM     17  H   UNK A   0       2.249  -8.757  30.380  0.00  0.00    +0.145 HD
ATOM     18  C   UNK A   0       2.156  -7.448  28.896  0.00  0.00    +0.195 A 
ATOM     19  N   UNK A   0       1.978  -7.332  27.558  0.00  0.00    -0.294 N 
ATOM     20  H   UNK A   0       1.588  -8.090  27.023  0.00  0.00    +0.172 HD
ATOM     21  C   UNK A   0       2.083  -6.138  26.912  0.00  0.00    +0.276 A 
ATOM     22  O   UNK A   0       1.733  -6.058  25.738  0.00  0.00    -0.266 OA
ATOM     23  C   UNK A   0       2.580  -4.986  27.729  0.00  0.00    +0.142 A 
ATOM     24  N   UNK A   0       2.846  -3.702  27.182  0.00  0.00    -0.261 N 
ATOM     25  C   UNK A   0       2.905  -2.590  28.194  0.00  0.00    +0.115 C 
ATOM     26  C   UNK A   0       3.812  -3.024  29.362  0.00  0.00    +0.127 C 
ATOM     27  N   UNK A   0       3.267  -4.259  29.897  0.00  0.00    -0.326 N 
ATOM     28  H   UNK A   0       3.682  -4.651  30.736  0.00  0.00    +0.148 HD
ATOM     29  C   UNK A   0       3.075  -3.491  25.828  0.00  0.00    +0.333 C 
ATOM     30  O   UNK A   0       3.503  -2.478  25.285  0.00  0.00    -0.279 OA
ATOM     31  C   UNK A   0       2.775  -5.252  29.056  0.00  0.00    +0.149 A 
ATOM     32  N   UNK A   0       2.546  -6.472  29.633  0.00  0.00    -0.199 NA
ENDBRANCH  14  25
ENDBRANCH  12  14
ENDBRANCH   6  12
ENDBRANCH   2   9
ENDBRANCH   1   3
BRANCH   1  33
ATOM     33  C   UNK A   1       9.168   5.651  24.640  0.00  0.00    +0.325 C 
ATOM     34  O   UNK A   1       9.181   6.702  24.010  0.00  0.00    -0.249 OA
BRANCH  33  35
ATOM     35  O   UNK A   1       9.026   5.620  25.986  0.00  0.00    -0.479 OA
ATOM     36  H   UNK A   1       9.859   5.686  26.492  0.00  0.00    +0.295 HD
ENDBRANCH  33  35
ENDBRANCH   1  33
BRANCH   1  37
ATOM     37  C   UNK A   1      10.816   3.939  23.731  0.00  0.00    +0.043 C 
BRANCH  37  38
ATOM     38  C   UNK A   1      10.933   2.601  23.005  0.00  0.00    +0.098 C 
BRANCH  38  39
ATOM     39  C   UNK A   1      10.510   1.324  23.710  0.00  0.00    +0.214 C 
ATOM     40  N   UNK A   1       9.594   0.633  22.934  0.00  0.00    -0.302 N 
ATOM     41  H   UNK A   1       9.159   1.156  22.176  0.00  0.00    +0.150 HD
ATOM     42  O   UNK A   1      10.913   0.934  24.796  0.00  0.00    -0.276 OA
BRANCH  40  43
ATOM     43  C   UNK A   1       8.957  -0.618  23.340  0.00  0.00    +0.182 C 
BRANCH  43  44
ATOM     44  C   UNK A   1       9.795  -1.800  22.830  0.00  0.00    +0.325 C 
ATOM     45  O   UNK A   1      10.120  -2.762  23.513  0.00  0.00    -0.249 OA
BRANCH  44  46
ATOM     46  O   UNK A   1      10.164  -1.683  21.532  0.00  0.00    -0.479 OA
ATOM     47  H   UNK A   1      11.137  -1.737  21.417  0.00  0.00    +0.295 HD
ENDBRANCH  44  46
ENDBRANCH  43  44
BRANCH  43  48
ATOM     48  C   UNK A   1       7.542  -0.686  22.732  0.00  0.00    +0.043 C 
BRANCH  48  49
ATOM     49  C   UNK A   1       6.454  -1.375  23.566  0.00  0.00    +0.098 C 
BRANCH  49  50
ATOM     50  C   UNK A   1       5.983  -2.725  23.068  0.00  0.00    +0.214 C 
ATOM     51  N   UNK A   1       6.154  -3.716  24.014  0.00  0.00    -0.302 N 
ATOM     52  H   UNK A   1       6.621  -3.479  24.892  0.00  0.00    +0.150 HD
ATOM     53  O   UNK A   1       5.515  -2.916  21.956  0.00  0.00    -0.276 OA
BRANCH  51  54
ATOM     54  C   UNK A   1       5.899  -5.140  23.794  0.00  0.00    +0.182 C 
BRANCH  54  55
ATOM     55  C   UNK A   1       7.100  -5.671  22.994  0.00  0.00    +0.325 C 
ATOM     56  O   UNK A   1       6.979  -6.381  22.001  0.00  0.00    -0.249 OA
BRANCH  55  57
ATOM     57  O   UNK A   1       8.301  -5.272  23.449  0.00  0.00    -0.479 OA
ATOM     58  H   UNK A   1       9.043  -5.357  22.817  0.00  0.00    +0.295 HD
ENDBRANCH  55  57
ENDBRANCH  54  55
BRANCH  54  59
ATOM     59  C   UNK A   1       5.782  -5.928  25.110  0.00  0.00    +0.045 C 
BRANCH  59  60
ATOM     60  C   UNK A   1       6.153  -5.073  26.322  0.00  0.00    +0.123 C 
BRANCH  60  61
ATOM     61  C   UNK A   1       7.597  -5.075  26.760  0.00  0.00    +0.305 C 
ATOM     62  O   UNK A   1       8.430  -4.329  26.261  0.00  0.00    -0.251 OA
BRANCH  61  63
ATOM     63  O   UNK A   1       7.942  -6.003  27.671  0.00  0.00    -0.481 OA
ATOM     64  H   UNK A   1       7.397  -6.046  28.475  0.00  0.00    +0.295 HD
ENDBRANCH  61  63
ENDBRANCH  60  61
ENDBRANCH  59  60
ENDBRANCH  54  59
ENDBRANCH  51  54
ENDBRANCH  49  50
ENDBRANCH  48  49
ENDBRANCH  43  48
ENDBRANCH  40  43
ENDBRANCH  38  39
ENDBRANCH  37  38
ENDBRANCH   1  37
TORSDOF 23
ENDMDL
MODEL 5
REMARK VINA RESULT:      -6.2      2.042      9.531
REMARK  Name = 
REMARK  23 active torsions:
REMARK  status: ('A' for Active; 'I' for Inactive)
REMARK    1  A    between atoms: C_9  and  C_11
REMARK    2  A    between atoms: C_11  and  N_12
REMARK    3  A    between atoms: N_12  and  C_13
REMARK    4  A    between atoms: C_16  and  C_19
REMARK    5  A    between atoms: N_21  and  C_22
REMARK    6  A    between atoms: C_22  and  C_24
REMARK    7  A    between atoms: C_22  and  C_49
REMARK    8  A    between atoms: C_24  and  C_25
REMARK    9  A    between atoms: C_25  and  C_26
REMARK   10  A    between atoms: N_28  and  C_29
REMARK   11  A    between atoms: C_29  and  C_31
REMARK   12  A    between atoms: C_29  and  C_46
REMARK   13  A    between atoms: C_31  and  C_32
REMARK   14  A    between atoms: C_32  and  C_33
REMARK   15  A    between atoms: N_35  and  C_36
REMARK   16  A    between atoms: C_36  and  C_38
REMARK   17  A    between atoms: C_36  and  C_43
REMARK   18  A    between atoms: C_38  and  C_39
REMARK   19  A    between atoms: C_39  and  C_40
REMARK   20  A    between atoms: C_40  and  O_41
REMARK   21  A    between atoms: C_43  and  O_44
REMARK   22  A    between atoms: C_46  and  O_47
REMARK   23  A    between atoms: C_49  and  O_50
REMARK                            x       y       z     vdW  Elec       q    Type
REMARK                         _______ _______ _______ _____ _____    ______ ____
ROOT
ATOM      1  C   UNK A   1       5.119  -6.064  26.673  0.00  0.00    +0.182 C 
ENDROOT
BRANCH   1   3
ATOM      2  C   UNK A   0       5.296  -3.581  26.745  0.00  0.00    +0.245 C 
ATOM      3  N   UNK A   1       4.525  -4.724  26.779  0.00  0.00    -0.298 N 
ATOM      4  H   UNK A   1       3.551  -4.697  27.065  0.00  0.00    +0.150 HD
ATOM      5  O   UNK A   0       6.481  -3.613  26.417  0.00  0.00    -0.270 OA
BRANCH   2   9
ATOM      6  C   UNK A   0       3.602   0.303  27.438  0.00  0.00    +0.027 A 
ATOM      7  C   UNK A   0       4.862  -0.012  27.964  0.00  0.00    +0.023 A 
ATOM      8  C   UNK A   0       5.405  -1.297  27.857  0.00  0.00    +0.015 A 
ATOM      9  C   UNK A   0       4.692  -2.288  27.182  0.00  0.00    +0.037 A 
ATOM     10  C   UNK A   0       3.385  -2.006  26.753  0.00  0.00    +0.015 A 
ATOM     11  C   UNK A   0       2.843  -0.724  26.886  0.00  0.00    +0.023 A 
BRANCH   6  12
ATOM     12  N   UNK A   0       3.237   1.635  27.416  0.00  0.00    -0.342 N 
ATOM     13  H   UNK A   0       2.276   1.769  27.728  0.00  0.00    +0.146 HD
BRANCH  12  14
ATOM     14  C   UNK A   0       4.100   2.753  27.783  0.00  0.00    +0.126 C 
BRANCH  14  25
ATOM     15  N   UNK A   0       7.563   5.984  21.568  0.00  0.00    -0.329 N 
ATOM     16  H   UNK A   0       8.535   5.933  21.296  0.00  0.00    +0.145 HD
ATOM     17  H   UNK A   0       6.922   5.765  20.810  0.00  0.00    +0.145 HD
ATOM     18  C   UNK A   0       7.200   5.400  22.737  0.00  0.00    +0.195 A 
ATOM     19  N   UNK A   0       8.129   5.406  23.722  0.00  0.00    -0.294 N 
ATOM     20  H   UNK A   0       8.998   5.901  23.607  0.00  0.00    +0.172 HD
ATOM     21  C   UNK A   0       7.857   4.964  24.981  0.00  0.00    +0.276 A 
ATOM     22  O   UNK A   0       8.674   5.161  25.876  0.00  0.00    -0.266 OA
ATOM     23  C   UNK A   0       6.527   4.304  25.176  0.00  0.00    +0.142 A 
ATOM     24  N   UNK A   0       6.133   3.695  26.398  0.00  0.00    -0.261 N 
ATOM     25  C   UNK A   0       4.650   3.489  26.545  0.00  0.00    +0.115 C 
ATOM     26  C   UNK A   0       4.106   2.833  25.262  0.00  0.00    +0.127 C 
ATOM     27  N   UNK A   0       4.458   3.699  24.151  0.00  0.00    -0.326 N 
ATOM     28  H   UNK A   0       4.102   3.476  23.228  0.00  0.00    +0.148 HD
ATOM     29  C   UNK A   0       7.042   3.284  27.364  0.00  0.00    +0.333 C 
ATOM     30  O   UNK A   0       6.832   2.581  28.347  0.00  0.00    -0.279 OA
ATOM     31  C   UNK A   0       5.704   4.315  24.085  0.00  0.00    +0.149 A 
ATOM     32  N   UNK A   0       6.036   4.876  22.882  0.00  0.00    -0.199 NA
ENDBRANCH  14  25
ENDBRANCH  12  14
ENDBRANCH   6  12
ENDBRANCH   2   9
ENDBRANCH   1   3
BRANCH   1  33
ATOM     33  C   UNK A   1       4.815  -6.795  27.987  0.00  0.00    +0.325 C 
ATOM     34  O   UNK A   1       5.635  -7.485  28.582  0.00  0.00    -0.249 OA
BRANCH  33  35
ATOM     35  O   UNK A   1       3.549  -6.635  28.436  0.00  0.00    -0.479 OA
ATOM     36  H   UNK A   1       3.120  -7.448  28.765  0.00  0.00    +0.295 HD
ENDBRANCH  33  35
ENDBRANCH   1  33
BRANCH   1  37
ATOM     37  C   UNK A   1       4.604  -6.854  25.452  0.00  0.00    +0.043 C 
BRANCH  37  38
ATOM     38  C   UNK A   1       4.518  -5.936  24.235  0.00  0.00    +0.098 C 
BRANCH  38  39
ATOM     39  C   UNK A   1       5.719  -5.786  23.319  0.00  0.00    +0.214 C 
ATOM     40  N   UNK A   1       6.438  -4.653  23.659  0.00  0.00    -0.302 N 
ATOM     41  H   UNK A   1       5.964  -3.979  24.257  0.00  0.00    +0.150 HD
ATOM     42  O   UNK A   1       6.034  -6.547  22.416  0.00  0.00    -0.276 OA
BRANCH  40  43
ATOM     43  C   UNK A   1       7.630  -4.196  22.947  0.00  0.00    +0.182 C 
BRANCH  43  44
ATOM     44  C   UNK A   1       8.843  -4.286  23.885  0.00  0.00    +0.325 C 
ATOM     45  O   UNK A   1       9.107  -5.257  24.582  0.00  0.00    -0.249 OA
BRANCH  44  46
ATOM     46  O   UNK A   1       9.611  -3.171  23.888  0.00  0.00    -0.479 OA
ATOM     47  H   UNK A   1      10.525  -3.350  24.198  0.00  0.00    +0.295 HD
ENDBRANCH  44  46
ENDBRANCH  43  44
BRANCH  43  48
ATOM     48  C   UNK A   1       7.427  -2.734  22.504  0.00  0.00    +0.043 C 
BRANCH  48  49
ATOM     49  C   UNK A   1       6.274  -1.959  23.155  0.00  0.00    +0.098 C 
BRANCH  49  50
ATOM     50  C   UNK A   1       6.668  -0.840  24.096  0.00  0.00    +0.214 C 
ATOM     51  N   UNK A   1       8.021  -0.843  24.368  0.00  0.00    -0.302 N 
ATOM     52  H   UNK A   1       8.595  -1.599  23.988  0.00  0.00    +0.150 HD
ATOM     53  O   UNK A   1       5.879  -0.034  24.565  0.00  0.00    -0.276 OA
BRANCH  51  54
ATOM     54  C   UNK A   1       8.687   0.041  25.326  0.00  0.00    +0.182 C 
BRANCH  54  55
ATOM     55  C   UNK A   1       8.732  -0.726  26.657  0.00  0.00    +0.325 C 
ATOM     56  O   UNK A   1       8.671  -0.172  27.750  0.00  0.00    -0.249 OA
BRANCH  55  57
ATOM     57  O   UNK A   1       8.813  -2.063  26.535  0.00  0.00    -0.479 OA
ATOM     58  H   UNK A   1       9.709  -2.444  26.627  0.00  0.00    +0.295 HD
ENDBRANCH  55  57
ENDBRANCH  54  55
BRANCH  54  59
ATOM     59  C   UNK A   1      10.123   0.396  24.900  0.00  0.00    +0.045 C 
BRANCH  59  60
ATOM     60  C   UNK A   1      10.237   0.598  23.389  0.00  0.00    +0.123 C 
BRANCH  60  61
ATOM     61  C   UNK A   1      10.195   2.015  22.872  0.00  0.00    +0.305 C 
ATOM     62  O   UNK A   1      10.216   2.983  23.620  0.00  0.00    -0.251 OA
BRANCH  61  63
ATOM     63  O   UNK A   1      10.045   2.159  21.542  0.00  0.00    -0.481 OA
ATOM     64  H   UNK A   1       9.509   2.914  21.245  0.00  0.00    +0.295 HD
ENDBRANCH  61  63
ENDBRANCH  60  61
ENDBRANCH  59  60
ENDBRANCH  54  59
ENDBRANCH  51  54
ENDBRANCH  49  50
ENDBRANCH  48  49
ENDBRANCH  43  48
ENDBRANCH  40  43
ENDBRANCH  38  39
ENDBRANCH  37  38
ENDBRANCH   1  37
TORSDOF 23
ENDMDL
MODEL 6
REMARK VINA RESULT:      -6.1      2.112      9.517
REMARK  Name = 
REMARK  23 active torsions:
REMARK  status: ('A' for Active; 'I' for Inactive)
REMARK    1  A    between atoms: C_9  and  C_11
REMARK    2  A    between atoms: C_11  and  N_12
REMARK    3  A    between atoms: N_12  and  C_13
REMARK    4  A    between atoms: C_16  and  C_19
REMARK    5  A    between atoms: N_21  and  C_22
REMARK    6  A    between atoms: C_22  and  C_24
REMARK    7  A    between atoms: C_22  and  C_49
REMARK    8  A    between atoms: C_24  and  C_25
REMARK    9  A    between atoms: C_25  and  C_26
REMARK   10  A    between atoms: N_28  and  C_29
REMARK   11  A    between atoms: C_29  and  C_31
REMARK   12  A    between atoms: C_29  and  C_46
REMARK   13  A    between atoms: C_31  and  C_32
REMARK   14  A    between atoms: C_32  and  C_33
REMARK   15  A    between atoms: N_35  and  C_36
REMARK   16  A    between atoms: C_36  and  C_38
REMARK   17  A    between atoms: C_36  and  C_43
REMARK   18  A    between atoms: C_38  and  C_39
REMARK   19  A    between atoms: C_39  and  C_40
REMARK   20  A    between atoms: C_40  and  O_41
REMARK   21  A    between atoms: C_43  and  O_44
REMARK   22  A    between atoms: C_46  and  O_47
REMARK   23  A    between atoms: C_49  and  O_50
REMARK                            x       y       z     vdW  Elec       q    Type
REMARK                         _______ _______ _______ _____ _____    ______ ____
ROOT
ATOM      1  C   UNK A   1       3.729  -5.088  28.322  0.00  0.00    +0.182 C 
ENDROOT
BRANCH   1   3
ATOM      2  C   UNK A   0       4.258  -2.675  28.638  0.00  0.00    +0.245 C 
ATOM      3  N   UNK A   1       4.300  -3.815  27.862  0.00  0.00    -0.298 N 
ATOM      4  H   UNK A   1       4.552  -3.776  26.879  0.00  0.00    +0.150 HD
ATOM      5  O   UNK A   0       3.935  -2.716  29.824  0.00  0.00    -0.270 OA
BRANCH   2   9
ATOM      6  C   UNK A   0       5.603   0.882  26.644  0.00  0.00    +0.027 A 
ATOM      7  C   UNK A   0       5.475   0.871  28.040  0.00  0.00    +0.023 A 
ATOM      8  C   UNK A   0       4.938  -0.226  28.722  0.00  0.00    +0.015 A 
ATOM      9  C   UNK A   0       4.548  -1.356  28.003  0.00  0.00    +0.037 A 
ATOM     10  C   UNK A   0       4.569  -1.305  26.600  0.00  0.00    +0.015 A 
ATOM     11  C   UNK A   0       5.086  -0.192  25.926  0.00  0.00    +0.023 A 
BRANCH   6  12
ATOM     12  N   UNK A   0       6.320   1.918  26.080  0.00  0.00    -0.342 N 
ATOM     13  H   UNK A   0       7.248   2.005  26.493  0.00  0.00    +0.146 HD
BRANCH  12  14
ATOM     14  C   UNK A   0       6.307   2.284  24.667  0.00  0.00    +0.126 C 
BRANCH  14  25
ATOM     15  N   UNK A   0      13.328   5.179  22.827  0.00  0.00    -0.329 N 
ATOM     16  H   UNK A   0      13.745   6.049  23.129  0.00  0.00    +0.145 HD
ATOM     17  H   UNK A   0      13.943   4.378  22.941  0.00  0.00    +0.145 HD
ATOM     18  C   UNK A   0      12.057   4.916  23.219  0.00  0.00    +0.195 A 
ATOM     19  N   UNK A   0      11.241   5.988  23.364  0.00  0.00    -0.294 N 
ATOM     20  H   UNK A   0      11.551   6.909  23.101  0.00  0.00    +0.172 HD
ATOM     21  C   UNK A   0       9.913   5.859  23.634  0.00  0.00    +0.276 A 
ATOM     22  O   UNK A   0       9.190   6.850  23.574  0.00  0.00    -0.266 OA
ATOM     23  C   UNK A   0       9.432   4.475  23.939  0.00  0.00    +0.142 A 
ATOM     24  N   UNK A   0       8.101   4.186  24.344  0.00  0.00    -0.261 N 
ATOM     25  C   UNK A   0       7.694   2.747  24.177  0.00  0.00    +0.115 C 
ATOM     26  C   UNK A   0       8.789   1.844  24.776  0.00  0.00    +0.127 C 
ATOM     27  N   UNK A   0      10.034   2.171  24.104  0.00  0.00    -0.326 N 
ATOM     28  H   UNK A   0      10.856   1.611  24.303  0.00  0.00    +0.148 HD
ATOM     29  C   UNK A   0       7.253   5.142  24.889  0.00  0.00    +0.333 C 
ATOM     30  O   UNK A   0       6.176   4.964  25.447  0.00  0.00    -0.279 OA
ATOM     31  C   UNK A   0      10.370   3.489  23.812  0.00  0.00    +0.149 A 
ATOM     32  N   UNK A   0      11.667   3.711  23.436  0.00  0.00    -0.199 NA
ENDBRANCH  14  25
ENDBRANCH  12  14
ENDBRANCH   6  12
ENDBRANCH   2   9
ENDBRANCH   1   3
BRANCH   1  33
ATOM     33  C   UNK A   1       2.398  -5.276  27.584  0.00  0.00    +0.325 C 
ATOM     34  O   UNK A   1       1.697  -6.275  27.700  0.00  0.00    -0.249 OA
BRANCH  33  35
ATOM     35  O   UNK A   1       2.061  -4.251  26.768  0.00  0.00    -0.479 OA
ATOM     36  H   UNK A   1       1.606  -3.505  27.206  0.00  0.00    +0.295 HD
ENDBRANCH  33  35
ENDBRANCH   1  33
BRANCH   1  37
ATOM     37  C   UNK A   1       4.676  -6.286  28.099  0.00  0.00    +0.043 C 
BRANCH  37  38
ATOM     38  C   UNK A   1       5.628  -5.990  26.943  0.00  0.00    +0.098 C 
BRANCH  38  39
ATOM     39  C   UNK A   1       5.226  -6.354  25.525  0.00  0.00    +0.214 C 
ATOM     40  N   UNK A   1       5.997  -5.650  24.616  0.00  0.00    -0.302 N 
ATOM     41  H   UNK A   1       6.510  -4.850  24.981  0.00  0.00    +0.150 HD
ATOM     42  O   UNK A   1       4.361  -7.157  25.206  0.00  0.00    -0.276 OA
BRANCH  40  43
ATOM     43  C   UNK A   1       5.837  -5.739  23.165  0.00  0.00    +0.182 C 
BRANCH  43  44
ATOM     44  C   UNK A   1       7.223  -5.734  22.504  0.00  0.00    +0.325 C 
ATOM     45  O   UNK A   1       7.418  -5.898  21.306  0.00  0.00    -0.249 OA
BRANCH  44  46
ATOM     46  O   UNK A   1       8.240  -5.539  23.376  0.00  0.00    -0.479 OA
ATOM     47  H   UNK A   1       8.048  -4.820  24.016  0.00  0.00    +0.295 HD
ENDBRANCH  44  46
ENDBRANCH  43  44
BRANCH  43  48
ATOM     48  C   UNK A   1       5.024  -4.527  22.671  0.00  0.00    +0.043 C 
BRANCH  48  49
ATOM     49  C   UNK A   1       5.057  -3.261  23.536  0.00  0.00    +0.098 C 
BRANCH  49  50
ATOM     50  C   UNK A   1       6.307  -2.413  23.433  0.00  0.00    +0.214 C 
ATOM     51  N   UNK A   1       7.157  -2.610  24.503  0.00  0.00    -0.302 N 
ATOM     52  H   UNK A   1       6.855  -3.224  25.262  0.00  0.00    +0.150 HD
ATOM     53  O   UNK A   1       6.533  -1.639  22.516  0.00  0.00    -0.276 OA
BRANCH  51  54
ATOM     54  C   UNK A   1       8.389  -1.858  24.747  0.00  0.00    +0.182 C 
BRANCH  54  55
ATOM     55  C   UNK A   1       8.643  -1.931  26.261  0.00  0.00    +0.325 C 
ATOM     56  O   UNK A   1       8.814  -0.936  26.958  0.00  0.00    -0.249 OA
BRANCH  55  57
ATOM     57  O   UNK A   1       8.633  -3.173  26.775  0.00  0.00    -0.479 OA
ATOM     58  H   UNK A   1       8.026  -3.316  27.529  0.00  0.00    +0.295 HD
ENDBRANCH  55  57
ENDBRANCH  54  55
BRANCH  54  59
ATOM     59  C   UNK A   1       9.599  -2.452  24.004  0.00  0.00    +0.045 C 
BRANCH  59  60
ATOM     60  C   UNK A   1      10.425  -1.372  23.304  0.00  0.00    +0.123 C 
BRANCH  60  61
ATOM     61  C   UNK A   1       9.899  -0.833  21.995  0.00  0.00    +0.305 C 
ATOM     62  O   UNK A   1       9.886   0.365  21.742  0.00  0.00    -0.251 OA
BRANCH  61  63
ATOM     63  O   UNK A   1       9.364  -1.734  21.152  0.00  0.00    -0.481 OA
ATOM     64  H   UNK A   1       9.333  -2.655  21.463  0.00  0.00    +0.295 HD
ENDBRANCH  61  63
ENDBRANCH  60  61
ENDBRANCH  59  60
ENDBRANCH  54  59
ENDBRANCH  51  54
ENDBRANCH  49  50
ENDBRANCH  48  49
ENDBRANCH  43  48
ENDBRANCH  40  43
ENDBRANCH  38  39
ENDBRANCH  37  38
ENDBRANCH   1  37
TORSDOF 23
ENDMDL
MODEL 7
REMARK VINA RESULT:      -6.1      2.388      5.649
REMARK  Name = 
REMARK  23 active torsions:
REMARK  status: ('A' for Active; 'I' for Inactive)
REMARK    1  A    between atoms: C_9  and  C_11
REMARK    2  A    between atoms: C_11  and  N_12
REMARK    3  A    between atoms: N_12  and  C_13
REMARK    4  A    between atoms: C_16  and  C_19
REMARK    5  A    between atoms: N_21  and  C_22
REMARK    6  A    between atoms: C_22  and  C_24
REMARK    7  A    between atoms: C_22  and  C_49
REMARK    8  A    between atoms: C_24  and  C_25
REMARK    9  A    between atoms: C_25  and  C_26
REMARK   10  A    between atoms: N_28  and  C_29
REMARK   11  A    between atoms: C_29  and  C_31
REMARK   12  A    between atoms: C_29  and  C_46
REMARK   13  A    between atoms: C_31  and  C_32
REMARK   14  A    between atoms: C_32  and  C_33
REMARK   15  A    between atoms: N_35  and  C_36
REMARK   16  A    between atoms: C_36  and  C_38
REMARK   17  A    between atoms: C_36  and  C_43
REMARK   18  A    between atoms: C_38  and  C_39
REMARK   19  A    between atoms: C_39  and  C_40
REMARK   20  A    between atoms: C_40  and  O_41
REMARK   21  A    between atoms: C_43  and  O_44
REMARK   22  A    between atoms: C_46  and  O_47
REMARK   23  A    between atoms: C_49  and  O_50
REMARK                            x       y       z     vdW  Elec       q    Type
REMARK                         _______ _______ _______ _____ _____    ______ ____
ROOT
ATOM      1  C   UNK A   1       7.038   4.677  23.055  0.00  0.00    +0.182 C 
ENDROOT
BRANCH   1   3
ATOM      2  C   UNK A   0       6.099   2.576  24.008  0.00  0.00    +0.245 C 
ATOM      3  N   UNK A   1       6.467   3.897  24.162  0.00  0.00    -0.298 N 
ATOM      4  H   UNK A   1       6.187   4.432  24.978  0.00  0.00    +0.150 HD
ATOM      5  O   UNK A   0       6.421   1.930  23.012  0.00  0.00    -0.270 OA
BRANCH   2   9
ATOM      6  C   UNK A   0       3.859   1.123  27.371  0.00  0.00    +0.027 A 
ATOM      7  C   UNK A   0       4.825   0.304  26.769  0.00  0.00    +0.023 A 
ATOM      8  C   UNK A   0       5.500   0.692  25.607  0.00  0.00    +0.015 A 
ATOM      9  C   UNK A   0       5.234   1.940  25.045  0.00  0.00    +0.037 A 
ATOM     10  C   UNK A   0       4.190   2.713  25.579  0.00  0.00    +0.015 A 
ATOM     11  C   UNK A   0       3.504   2.304  26.728  0.00  0.00    +0.023 A 
BRANCH   6  12
ATOM     12  N   UNK A   0       3.393   0.746  28.615  0.00  0.00    -0.342 N 
ATOM     13  H   UNK A   0       3.572   1.462  29.319  0.00  0.00    +0.146 HD
BRANCH  12  14
ATOM     14  C   UNK A   0       2.153   0.019  28.867  0.00  0.00    +0.126 C 
BRANCH  14  25
ATOM     15  N   UNK A   0       3.630  -7.645  29.240  0.00  0.00    -0.329 N 
ATOM     16  H   UNK A   0       3.711  -8.305  28.478  0.00  0.00    +0.145 HD
ATOM     17  H   UNK A   0       4.401  -7.697  29.899  0.00  0.00    +0.145 HD
ATOM     18  C   UNK A   0       3.293  -6.366  28.938  0.00  0.00    +0.195 A 
ATOM     19  N   UNK A   0       2.474  -6.199  27.872  0.00  0.00    -0.294 N 
ATOM     20  H   UNK A   0       2.075  -6.994  27.401  0.00  0.00    +0.172 HD
ATOM     21  C   UNK A   0       1.962  -4.984  27.533  0.00  0.00    +0.276 A 
ATOM     22  O   UNK A   0       1.086  -4.921  26.674  0.00  0.00    -0.266 OA
ATOM     23  C   UNK A   0       2.490  -3.808  28.293  0.00  0.00    +0.142 A 
ATOM     24  N   UNK A   0       2.139  -2.465  27.991  0.00  0.00    -0.261 N 
ATOM     25  C   UNK A   0       2.402  -1.484  29.101  0.00  0.00    +0.115 C 
ATOM     26  C   UNK A   0       3.831  -1.701  29.633  0.00  0.00    +0.127 C 
ATOM     27  N   UNK A   0       3.929  -3.086  30.056  0.00  0.00    -0.326 N 
ATOM     28  H   UNK A   0       4.776  -3.395  30.522  0.00  0.00    +0.148 HD
ATOM     29  C   UNK A   0       1.633  -2.077  26.757  0.00  0.00    +0.333 C 
ATOM     30  O   UNK A   0       1.486  -0.937  26.327  0.00  0.00    -0.279 OA
ATOM     31  C   UNK A   0       3.355  -4.110  29.308  0.00  0.00    +0.149 A 
ATOM     32  N   UNK A   0       3.736  -5.383  29.636  0.00  0.00    -0.199 NA
ENDBRANCH  14  25
ENDBRANCH  12  14
ENDBRANCH   6  12
ENDBRANCH   2   9
ENDBRANCH   1   3
BRANCH   1  33
ATOM     33  C   UNK A   1       5.982   5.708  22.640  0.00  0.00    +0.325 C 
ATOM     34  O   UNK A   1       4.902   5.834  23.206  0.00  0.00    -0.249 OA
BRANCH  33  35
ATOM     35  O   UNK A   1       6.328   6.466  21.574  0.00  0.00    -0.479 OA
ATOM     36  H   UNK A   1       5.658   7.121  21.297  0.00  0.00    +0.295 HD
ENDBRANCH  33  35
ENDBRANCH   1  33
BRANCH   1  37
ATOM     37  C   UNK A   1       8.375   5.352  23.425  0.00  0.00    +0.043 C 
BRANCH  37  38
ATOM     38  C   UNK A   1       9.227   4.400  24.261  0.00  0.00    +0.098 C 
BRANCH  38  39
ATOM     39  C   UNK A   1      10.200   3.459  23.573  0.00  0.00    +0.214 C 
ATOM     40  N   UNK A   1       9.581   2.250  23.302  0.00  0.00    -0.302 N 
ATOM     41  H   UNK A   1       8.708   2.069  23.794  0.00  0.00    +0.150 HD
ATOM     42  O   UNK A   1      11.359   3.711  23.278  0.00  0.00    -0.276 OA
BRANCH  40  43
ATOM     43  C   UNK A   1      10.251   1.109  22.681  0.00  0.00    +0.182 C 
BRANCH  43  44
ATOM     44  C   UNK A   1       9.339   0.518  21.595  0.00  0.00    +0.325 C 
ATOM     45  O   UNK A   1       9.242  -0.677  21.350  0.00  0.00    -0.249 OA
BRANCH  44  46
ATOM     46  O   UNK A   1       8.640   1.452  20.906  0.00  0.00    -0.479 OA
ATOM     47  H   UNK A   1       7.809   1.090  20.528  0.00  0.00    +0.295 HD
ENDBRANCH  44  46
ENDBRANCH  43  44
BRANCH  43  48
ATOM     48  C   UNK A   1      10.535   0.041  23.755  0.00  0.00    +0.043 C 
BRANCH  48  49
ATOM     49  C   UNK A   1       9.725   0.124  25.055  0.00  0.00    +0.098 C 
BRANCH  49  50
ATOM     50  C   UNK A   1       8.783  -1.029  25.330  0.00  0.00    +0.214 C 
ATOM     51  N   UNK A   1       8.385  -1.662  24.170  0.00  0.00    -0.302 N 
ATOM     52  H   UNK A   1       8.689  -1.277  23.273  0.00  0.00    +0.150 HD
ATOM     53  O   UNK A   1       8.411  -1.355  26.447  0.00  0.00    -0.276 OA
BRANCH  51  54
ATOM     54  C   UNK A   1       7.394  -2.737  24.097  0.00  0.00    +0.182 C 
BRANCH  54  55
ATOM     55  C   UNK A   1       6.334  -2.274  23.085  0.00  0.00    +0.325 C 
ATOM     56  O   UNK A   1       5.466  -3.017  22.640  0.00  0.00    -0.249 OA
BRANCH  55  57
ATOM     57  O   UNK A   1       6.410  -0.976  22.743  0.00  0.00    -0.479 OA
ATOM     58  H   UNK A   1       6.529  -0.794  21.789  0.00  0.00    +0.295 HD
ENDBRANCH  55  57
ENDBRANCH  54  55
BRANCH  54  59
ATOM     59  C   UNK A   1       8.002  -4.067  23.617  0.00  0.00    +0.045 C 
BRANCH  59  60
ATOM     60  C   UNK A   1       8.029  -5.116  24.728  0.00  0.00    +0.123 C 
BRANCH  60  61
ATOM     61  C   UNK A   1       9.166  -5.050  25.719  0.00  0.00    +0.305 C 
ATOM     62  O   UNK A   1       9.069  -4.453  26.784  0.00  0.00    -0.251 OA
BRANCH  61  63
ATOM     63  O   UNK A   1      10.326  -5.612  25.333  0.00  0.00    -0.481 OA
ATOM     64  H   UNK A   1      11.043  -5.623  25.990  0.00  0.00    +0.295 HD
ENDBRANCH  61  63
ENDBRANCH  60  61
ENDBRANCH  59  60
ENDBRANCH  54  59
ENDBRANCH  51  54
ENDBRANCH  49  50
ENDBRANCH  48  49
ENDBRANCH  43  48
ENDBRANCH  40  43
ENDBRANCH  38  39
ENDBRANCH  37  38
ENDBRANCH   1  37
TORSDOF 23
ENDMDL
MODEL 8
REMARK VINA RESULT:      -6.0      2.030      8.498
REMARK  Name = 
REMARK  23 active torsions:
REMARK  status: ('A' for Active; 'I' for Inactive)
REMARK    1  A    between atoms: C_9  and  C_11
REMARK    2  A    between atoms: C_11  and  N_12
REMARK    3  A    between atoms: N_12  and  C_13
REMARK    4  A    between atoms: C_16  and  C_19
REMARK    5  A    between atoms: N_21  and  C_22
REMARK    6  A    between atoms: C_22  and  C_24
REMARK    7  A    between atoms: C_22  and  C_49
REMARK    8  A    between atoms: C_24  and  C_25
REMARK    9  A    between atoms: C_25  and  C_26
REMARK   10  A    between atoms: N_28  and  C_29
REMARK   11  A    between atoms: C_29  and  C_31
REMARK   12  A    between atoms: C_29  and  C_46
REMARK   13  A    between atoms: C_31  and  C_32
REMARK   14  A    between atoms: C_32  and  C_33
REMARK   15  A    between atoms: N_35  and  C_36
REMARK   16  A    between atoms: C_36  and  C_38
REMARK   17  A    between atoms: C_36  and  C_43
REMARK   18  A    between atoms: C_38  and  C_39
REMARK   19  A    between atoms: C_39  and  C_40
REMARK   20  A    between atoms: C_40  and  O_41
REMARK   21  A    between atoms: C_43  and  O_44
REMARK   22  A    between atoms: C_46  and  O_47
REMARK   23  A    between atoms: C_49  and  O_50
REMARK                            x       y       z     vdW  Elec       q    Type
REMARK                         _______ _______ _______ _____ _____    ______ ____
ROOT
ATOM      1  C   UNK A   1       6.624  -5.620  25.789  0.00  0.00    +0.182 C 
ENDROOT
BRANCH   1   3
ATOM      2  C   UNK A   0       8.079  -4.187  24.363  0.00  0.00    +0.245 C 
ATOM      3  N   UNK A   1       6.909  -4.369  25.071  0.00  0.00    -0.298 N 
ATOM      4  H   UNK A   1       6.292  -3.592  25.280  0.00  0.00    +0.150 HD
ATOM      5  O   UNK A   0       8.839  -5.124  24.123  0.00  0.00    -0.270 OA
BRANCH   2   9
ATOM      6  C   UNK A   0       9.114  -0.416  22.590  0.00  0.00    +0.027 A 
ATOM      7  C   UNK A   0      10.087  -1.153  23.278  0.00  0.00    +0.023 A 
ATOM      8  C   UNK A   0       9.771  -2.331  23.963  0.00  0.00    +0.015 A 
ATOM      9  C   UNK A   0       8.461  -2.808  23.938  0.00  0.00    +0.037 A 
ATOM     10  C   UNK A   0       7.464  -2.015  23.346  0.00  0.00    +0.015 A 
ATOM     11  C   UNK A   0       7.788  -0.826  22.683  0.00  0.00    +0.023 A 
BRANCH   6  12
ATOM     12  N   UNK A   0       9.551   0.617  21.784  0.00  0.00    -0.342 N 
ATOM     13  H   UNK A   0       8.951   0.741  20.969  0.00  0.00    +0.146 HD
BRANCH  12  14
ATOM     14  C   UNK A   0      10.111   1.878  22.257  0.00  0.00    +0.126 C 
BRANCH  14  25
ATOM     15  N   UNK A   0       5.229   6.953  25.645  0.00  0.00    -0.329 N 
ATOM     16  H   UNK A   0       5.405   7.914  25.903  0.00  0.00    +0.145 HD
ATOM     17  H   UNK A   0       4.369   6.830  25.117  0.00  0.00    +0.145 HD
ATOM     18  C   UNK A   0       6.259   6.235  25.130  0.00  0.00    +0.195 A 
ATOM     19  N   UNK A   0       7.493   6.546  25.592  0.00  0.00    -0.294 N 
ATOM     20  H   UNK A   0       7.611   7.209  26.341  0.00  0.00    +0.172 HD
ATOM     21  C   UNK A   0       8.599   5.827  25.253  0.00  0.00    +0.276 A 
ATOM     22  O   UNK A   0       9.656   6.039  25.841  0.00  0.00    -0.266 OA
ATOM     23  C   UNK A   0       8.408   4.779  24.201  0.00  0.00    +0.142 A 
ATOM     24  N   UNK A   0       9.478   4.016  23.660  0.00  0.00    -0.261 N 
ATOM     25  C   UNK A   0       9.056   2.748  22.969  0.00  0.00    +0.115 C 
ATOM     26  C   UNK A   0       7.901   3.066  22.000  0.00  0.00    +0.127 C 
ATOM     27  N   UNK A   0       6.839   3.676  22.779  0.00  0.00    -0.326 N 
ATOM     28  H   UNK A   0       5.953   3.874  22.325  0.00  0.00    +0.148 HD
ATOM     29  C   UNK A   0      10.804   4.423  23.726  0.00  0.00    +0.333 C 
ATOM     30  O   UNK A   0      11.767   3.953  23.130  0.00  0.00    -0.279 OA
ATOM     31  C   UNK A   0       7.120   4.604  23.778  0.00  0.00    +0.149 A 
ATOM     32  N   UNK A   0       6.054   5.317  24.256  0.00  0.00    -0.199 NA
ENDBRANCH  14  25
ENDBRANCH  12  14
ENDBRANCH   6  12
ENDBRANCH   2   9
ENDBRANCH   1   3
BRANCH   1  33
ATOM     33  C   UNK A   1       6.880  -5.351  27.277  0.00  0.00    +0.325 C 
ATOM     34  O   UNK A   1       6.466  -4.359  27.865  0.00  0.00    -0.249 OA
BRANCH  33  35
ATOM     35  O   UNK A   1       7.625  -6.296  27.896  0.00  0.00    -0.479 OA
ATOM     36  H   UNK A   1       7.285  -7.208  27.818  0.00  0.00    +0.295 HD
ENDBRANCH  33  35
ENDBRANCH   1  33
BRANCH   1  37
ATOM     37  C   UNK A   1       5.192  -6.139  25.544  0.00  0.00    +0.043 C 
BRANCH  37  38
ATOM     38  C   UNK A   1       4.272  -4.978  25.175  0.00  0.00    +0.098 C 
BRANCH  38  39
ATOM     39  C   UNK A   1       3.470  -4.280  26.259  0.00  0.00    +0.214 C 
ATOM     40  N   UNK A   1       3.995  -3.022  26.504  0.00  0.00    -0.302 N 
ATOM     41  H   UNK A   1       4.931  -2.845  26.144  0.00  0.00    +0.150 HD
ATOM     42  O   UNK A   1       2.494  -4.734  26.837  0.00  0.00    -0.276 OA
BRANCH  40  43
ATOM     43  C   UNK A   1       3.482  -2.105  27.519  0.00  0.00    +0.182 C 
BRANCH  43  44
ATOM     44  C   UNK A   1       2.416  -1.197  26.886  0.00  0.00    +0.325 C 
ATOM     45  O   UNK A   1       2.513   0.019  26.789  0.00  0.00    -0.249 OA
BRANCH  44  46
ATOM     46  O   UNK A   1       1.326  -1.868  26.444  0.00  0.00    -0.479 OA
ATOM     47  H   UNK A   1       0.819  -1.355  25.778  0.00  0.00    +0.295 HD
ENDBRANCH  44  46
ENDBRANCH  43  44
BRANCH  43  48
ATOM     48  C   UNK A   1       4.641  -1.243  28.056  0.00  0.00    +0.043 C 
BRANCH  48  49
ATOM     49  C   UNK A   1       5.923  -1.191  27.215  0.00  0.00    +0.098 C 
BRANCH  49  50
ATOM     50  C   UNK A   1       6.246   0.140  26.570  0.00  0.00    +0.214 C 
ATOM     51  N   UNK A   1       5.256   1.077  26.789  0.00  0.00    -0.302 N 
ATOM     52  H   UNK A   1       4.408   0.787  27.280  0.00  0.00    +0.150 HD
ATOM     53  O   UNK A   1       7.260   0.357  25.924  0.00  0.00    -0.276 OA
BRANCH  51  54
ATOM     54  C   UNK A   1       5.224   2.418  26.203  0.00  0.00    +0.182 C 
BRANCH  54  55
ATOM     55  C   UNK A   1       4.410   2.298  24.904  0.00  0.00    +0.325 C 
ATOM     56  O   UNK A   1       3.275   2.746  24.784  0.00  0.00    -0.249 OA
BRANCH  55  57
ATOM     57  O   UNK A   1       5.051   1.688  23.892  0.00  0.00    -0.479 OA
ATOM     58  H   UNK A   1       4.682   1.846  23.000  0.00  0.00    +0.295 HD
ENDBRANCH  55  57
ENDBRANCH  54  55
BRANCH  54  59
ATOM     59  C   UNK A   1       4.551   3.449  27.126  0.00  0.00    +0.045 C 
BRANCH  59  60
ATOM     60  C   UNK A   1       5.253   3.546  28.481  0.00  0.00    +0.123 C 
BRANCH  60  61
ATOM     61  C   UNK A   1       6.752   3.725  28.476  0.00  0.00    +0.305 C 
ATOM     62  O   UNK A   1       7.279   4.800  28.219  0.00  0.00    -0.251 OA
BRANCH  61  63
ATOM     63  O   UNK A   1       7.485   2.617  28.685  0.00  0.00    -0.481 OA
ATOM     64  H   UNK A   1       7.455   2.239  29.581  0.00  0.00    +0.295 HD
ENDBRANCH  61  63
ENDBRANCH  60  61
ENDBRANCH  59  60
ENDBRANCH  54  59
ENDBRANCH  51  54
ENDBRANCH  49  50
ENDBRANCH  48  49
ENDBRANCH  43  48
ENDBRANCH  40  43
ENDBRANCH  38  39
ENDBRANCH  37  38
ENDBRANCH   1  37
TORSDOF 23
ENDMDL
MODEL 9
REMARK VINA RESULT:      -5.9      2.500      9.276
REMARK  Name = 
REMARK  23 active torsions:
REMARK  status: ('A' for Active; 'I' for Inactive)
REMARK    1  A    between atoms: C_9  and  C_11
REMARK    2  A    between atoms: C_11  and  N_12
REMARK    3  A    between atoms: N_12  and  C_13
REMARK    4  A    between atoms: C_16  and  C_19
REMARK    5  A    between atoms: N_21  and  C_22
REMARK    6  A    between atoms: C_22  and  C_24
REMARK    7  A    between atoms: C_22  and  C_49
REMARK    8  A    between atoms: C_24  and  C_25
REMARK    9  A    between atoms: C_25  and  C_26
REMARK   10  A    between atoms: N_28  and  C_29
REMARK   11  A    between atoms: C_29  and  C_31
REMARK   12  A    between atoms: C_29  and  C_46
REMARK   13  A    between atoms: C_31  and  C_32
REMARK   14  A    between atoms: C_32  and  C_33
REMARK   15  A    between atoms: N_35  and  C_36
REMARK   16  A    between atoms: C_36  and  C_38
REMARK   17  A    between atoms: C_36  and  C_43
REMARK   18  A    between atoms: C_38  and  C_39
REMARK   19  A    between atoms: C_39  and  C_40
REMARK   20  A    between atoms: C_40  and  O_41
REMARK   21  A    between atoms: C_43  and  O_44
REMARK   22  A    between atoms: C_46  and  O_47
REMARK   23  A    between atoms: C_49  and  O_50
REMARK                            x       y       z     vdW  Elec       q    Type
REMARK                         _______ _______ _______ _____ _____    ______ ____
ROOT
ATOM      1  C   UNK A   1       5.200  -5.113  27.551  0.00  0.00    +0.182 C 
ENDROOT
BRANCH   1   3
ATOM      2  C   UNK A   0       4.502  -2.774  27.059  0.00  0.00    +0.245 C 
ATOM      3  N   UNK A   1       4.666  -3.806  27.959  0.00  0.00    -0.298 N 
ATOM      4  H   UNK A   1       4.605  -3.650  28.960  0.00  0.00    +0.150 HD
ATOM      5  O   UNK A   0       4.593  -2.957  25.846  0.00  0.00    -0.270 OA
BRANCH   2   9
ATOM      6  C   UNK A   0       3.893   1.374  27.985  0.00  0.00    +0.027 A 
ATOM      7  C   UNK A   0       5.066   0.730  28.405  0.00  0.00    +0.023 A 
ATOM      8  C   UNK A   0       5.258  -0.643  28.222  0.00  0.00    +0.015 A 
ATOM      9  C   UNK A   0       4.275  -1.392  27.576  0.00  0.00    +0.037 A 
ATOM     10  C   UNK A   0       3.055  -0.774  27.256  0.00  0.00    +0.015 A 
ATOM     11  C   UNK A   0       2.864   0.596  27.465  0.00  0.00    +0.023 A 
BRANCH   6  12
ATOM     12  N   UNK A   0       3.876   2.754  28.028  0.00  0.00    -0.342 N 
ATOM     13  H   UNK A   0       4.414   3.115  28.817  0.00  0.00    +0.146 HD
BRANCH  12  14
ATOM     14  C   UNK A   0       3.935   3.636  26.868  0.00  0.00    +0.126 C 
BRANCH  14  25
ATOM     15  N   UNK A   0      10.860   4.475  23.344  0.00  0.00    -0.329 N 
ATOM     16  H   UNK A   0      11.072   4.411  22.357  0.00  0.00    +0.145 HD
ATOM     17  H   UNK A   0      11.241   5.308  23.783  0.00  0.00    +0.145 HD
ATOM     18  C   UNK A   0       9.587   4.218  23.736  0.00  0.00    +0.195 A 
ATOM     19  N   UNK A   0       8.908   3.302  23.005  0.00  0.00    -0.294 N 
ATOM     20  H   UNK A   0       9.368   2.785  22.274  0.00  0.00    +0.172 HD
ATOM     21  C   UNK A   0       7.669   2.862  23.359  0.00  0.00    +0.276 A 
ATOM     22  O   UNK A   0       7.181   1.904  22.766  0.00  0.00    -0.266 OA
ATOM     23  C   UNK A   0       7.018   3.573  24.503  0.00  0.00    +0.142 A 
ATOM     24  N   UNK A   0       5.688   3.308  24.928  0.00  0.00    -0.261 N 
ATOM     25  C   UNK A   0       5.371   3.778  26.322  0.00  0.00    +0.115 C 
ATOM     26  C   UNK A   0       5.848   5.234  26.481  0.00  0.00    +0.127 C 
ATOM     27  N   UNK A   0       7.268   5.259  26.176  0.00  0.00    -0.326 N 
ATOM     28  H   UNK A   0       7.781   6.122  26.316  0.00  0.00    +0.148 HD
ATOM     29  C   UNK A   0       4.742   2.702  24.112  0.00  0.00    +0.333 C 
ATOM     30  O   UNK A   0       3.533   2.608  24.300  0.00  0.00    -0.279 OA
ATOM     31  C   UNK A   0       7.791   4.517  25.121  0.00  0.00    +0.149 A 
ATOM     32  N   UNK A   0       9.072   4.820  24.747  0.00  0.00    -0.199 NA
ENDBRANCH  14  25
ENDBRANCH  12  14
ENDBRANCH   6  12
ENDBRANCH   2   9
ENDBRANCH   1   3
BRANCH   1  33
ATOM     33  C   UNK A   1       6.139  -5.583  28.669  0.00  0.00    +0.325 C 
ATOM     34  O   UNK A   1       5.951  -5.341  29.856  0.00  0.00    -0.249 OA
BRANCH  33  35
ATOM     35  O   UNK A   1       7.217  -6.278  28.239  0.00  0.00    -0.479 OA
ATOM     36  H   UNK A   1       7.549  -6.023  27.356  0.00  0.00    +0.295 HD
ENDBRANCH  33  35
ENDBRANCH   1  33
BRANCH   1  37
ATOM     37  C   UNK A   1       4.094  -6.151  27.266  0.00  0.00    +0.043 C 
BRANCH  37  38
ATOM     38  C   UNK A   1       4.568  -7.142  26.206  0.00  0.00    +0.098 C 
BRANCH  38  39
ATOM     39  C   UNK A   1       4.267  -6.878  24.742  0.00  0.00    +0.214 C 
ATOM     40  N   UNK A   1       5.077  -5.861  24.266  0.00  0.00    -0.302 N 
ATOM     41  H   UNK A   1       5.545  -5.290  24.966  0.00  0.00    +0.150 HD
ATOM     42  O   UNK A   1       3.445  -7.470  24.058  0.00  0.00    -0.276 OA
BRANCH  40  43
ATOM     43  C   UNK A   1       5.012  -5.334  22.904  0.00  0.00    +0.182 C 
BRANCH  43  44
ATOM     44  C   UNK A   1       6.271  -5.765  22.136  0.00  0.00    +0.325 C 
ATOM     45  O   UNK A   1       7.414  -5.643  22.558  0.00  0.00    -0.249 OA
BRANCH  44  46
ATOM     46  O   UNK A   1       6.009  -6.295  20.917  0.00  0.00    -0.479 OA
ATOM     47  H   UNK A   1       6.580  -5.914  20.216  0.00  0.00    +0.295 HD
ENDBRANCH  44  46
ENDBRANCH  43  44
BRANCH  43  48
ATOM     48  C   UNK A   1       4.942  -3.795  22.959  0.00  0.00    +0.043 C 
BRANCH  48  49
ATOM     49  C   UNK A   1       5.845  -3.019  21.991  0.00  0.00    +0.098 C 
BRANCH  49  50
ATOM     50  C   UNK A   1       6.971  -2.225  22.619  0.00  0.00    +0.214 C 
ATOM     51  N   UNK A   1       8.204  -2.579  22.107  0.00  0.00    -0.302 N 
ATOM     52  H   UNK A   1       8.253  -3.350  21.438  0.00  0.00    +0.150 HD
ATOM     53  O   UNK A   1       6.809  -1.377  23.483  0.00  0.00    -0.276 OA
BRANCH  51  54
ATOM     54  C   UNK A   1       9.490  -2.072  22.589  0.00  0.00    +0.182 C 
BRANCH  54  55
ATOM     55  C   UNK A   1       9.508  -0.571  22.261  0.00  0.00    +0.325 C 
ATOM     56  O   UNK A   1       9.443  -0.137  21.115  0.00  0.00    -0.249 OA
BRANCH  55  57
ATOM     57  O   UNK A   1       9.570   0.240  23.332  0.00  0.00    -0.479 OA
ATOM     58  H   UNK A   1       9.715  -0.204  24.192  0.00  0.00    +0.295 HD
ENDBRANCH  55  57
ENDBRANCH  54  55
BRANCH  54  59
ATOM     59  C   UNK A   1       9.666  -2.259  24.106  0.00  0.00    +0.045 C 
BRANCH  59  60
ATOM     60  C   UNK A   1       9.613  -3.733  24.509  0.00  0.00    +0.123 C 
BRANCH  60  61
ATOM     61  C   UNK A   1       8.644  -4.121  25.600  0.00  0.00    +0.305 C 
ATOM     62  O   UNK A   1       9.021  -4.516  26.696  0.00  0.00    -0.251 OA
BRANCH  61  63
ATOM     63  O   UNK A   1       7.339  -4.093  25.276  0.00  0.00    -0.481 OA
ATOM     64  H   UNK A   1       6.819  -3.351  25.630  0.00  0.00    +0.295 HD
ENDBRANCH  61  63
ENDBRANCH  60  61
ENDBRANCH  59  60
ENDBRANCH  54  59
ENDBRANCH  51  54
ENDBRANCH  49  50
ENDBRANCH  48  49
ENDBRANCH  43  48
ENDBRANCH  40  43
ENDBRANCH  38  39
ENDBRANCH  37  38
ENDBRANCH   1  37
TORSDOF 23
ENDMDL
