MODEL 1
REMARK VINA RESULT:      -7.3      0.000      0.000
REMARK  Name = 
REMARK  10 active torsions:
REMARK  status: ('A' for Active; 'I' for Inactive)
REMARK    1  A    between atoms: C_1  and  O_2
REMARK    2  A    between atoms: O_2  and  C_3
REMARK    3  A    between atoms: C_6  and  S_9
REMARK    4  A    between atoms: S_9  and  N_12
REMARK    5  A    between atoms: C_14  and  C_15
REMARK    6  A    between atoms: C_15  and  C_16
REMARK    7  A    between atoms: C_16  and  C_17
REMARK    8  A    between atoms: C_17  and  O_18
REMARK    9  A    between atoms: C_22  and  O_23
REMARK   10  A    between atoms: O_23  and  C_24
REMARK                            x       y       z     vdW  Elec       q    Type
REMARK                         _______ _______ _______ _____ _____    ______ ____
ROOT
ATOM      1  N   UNL     1       9.082  -2.913  25.010  0.00  0.00    -0.218 N 
ATOM      2  C   UNL     1       8.533  -1.791  25.587  0.00  0.00    +0.073 A 
ATOM      3  C   UNL     1       8.853  -0.723  24.731  0.00  0.00    +0.008 A 
ATOM      4  C   UNL     1       8.347   0.562  25.031  0.00  0.00    +0.056 A 
ATOM      5  C   UNL     1       7.578   0.777  26.179  0.00  0.00    +0.121 A 
ATOM      6  C   UNL     1       7.352  -0.276  27.059  0.00  0.00    +0.048 A 
ATOM      7  C   UNL     1       9.708  -1.224  23.692  0.00  0.00    -0.020 A 
ATOM      8  C   UNL     1       7.816  -1.571  26.777  0.00  0.00    +0.032 A 
ATOM      9  C   UNL     1       9.803  -2.588  23.884  0.00  0.00    +0.116 A 
ENDROOT
BRANCH   1  10
ATOM     10  S   UNL     1       8.787  -4.540  25.465  0.00  0.00    +0.084 S 
ATOM     11  O   UNL     1       9.880  -5.305  24.894  0.00  0.00    -0.148 OA
ATOM     12  O   UNL     1       8.531  -4.522  26.891  0.00  0.00    -0.148 OA
BRANCH  10  16
ATOM     13  C   UNL     1       4.952  -5.614  23.236  0.00  0.00    +0.120 A 
ATOM     14  C   UNL     1       6.174  -5.609  22.559  0.00  0.00    +0.047 A 
ATOM     15  C   UNL     1       7.355  -5.313  23.246  0.00  0.00    +0.032 A 
ATOM     16  C   UNL     1       7.305  -5.010  24.610  0.00  0.00    +0.111 A 
ATOM     17  C   UNL     1       6.100  -5.113  25.310  0.00  0.00    +0.032 A 
ATOM     18  C   UNL     1       4.926  -5.421  24.618  0.00  0.00    +0.047 A 
BRANCH  13  20
ATOM     19  C   UNL     1       2.624  -5.376  23.387  0.00  0.00    +0.277 C 
ATOM     20  O   UNL     1       3.745  -5.840  22.632  0.00  0.00    -0.495 OA
ENDBRANCH  13  20
ENDBRANCH  10  16
ENDBRANCH   1  10
BRANCH   5  21
ATOM     21  O   UNL     1       7.130   2.061  26.334  0.00  0.00    -0.495 OA
ATOM     22  C   UNL     1       7.688   3.046  25.473  0.00  0.00    +0.277 C 
ENDBRANCH   5  21
BRANCH   7  23
ATOM     23  C   UNL     1      10.388  -0.390  22.638  0.00  0.00    +0.048 C 
BRANCH  23  24
ATOM     24  C   UNL     1       9.517   0.002  21.450  0.00  0.00    +0.125 C 
BRANCH  24  25
ATOM     25  C   UNL     1       9.082   1.444  21.524  0.00  0.00    +0.305 C 
ATOM     26  O   UNL     1       7.924   1.828  21.549  0.00  0.00    -0.251 OA
BRANCH  25  27
ATOM     27  O   UNL     1      10.124   2.305  21.607  0.00  0.00    -0.481 OA
ATOM     28  H   UNL     1      10.998   1.874  21.659  0.00  0.00    +0.295 HD
ENDBRANCH  25  27
ENDBRANCH  24  25
ENDBRANCH  23  24
ENDBRANCH   7  23
TORSDOF 8
ENDMDL
MODEL 2
REMARK VINA RESULT:      -7.0      2.170      7.126
REMARK  Name = 
REMARK  10 active torsions:
REMARK  status: ('A' for Active; 'I' for Inactive)
REMARK    1  A    between atoms: C_1  and  O_2
REMARK    2  A    between atoms: O_2  and  C_3
REMARK    3  A    between atoms: C_6  and  S_9
REMARK    4  A    between atoms: S_9  and  N_12
REMARK    5  A    between atoms: C_14  and  C_15
REMARK    6  A    between atoms: C_15  and  C_16
REMARK    7  A    between atoms: C_16  and  C_17
REMARK    8  A    between atoms: C_17  and  O_18
REMARK    9  A    between atoms: C_22  and  O_23
REMARK   10  A    between atoms: O_23  and  C_24
REMARK                            x       y       z     vdW  Elec       q    Type
REMARK                         _______ _______ _______ _____ _____    ______ ____
ROOT
ATOM      1  N   UNL     1       8.231  -2.976  23.107  0.00  0.00    -0.218 N 
ATOM      2  C   UNL     1       8.173  -3.486  24.382  0.00  0.00    +0.073 A 
ATOM      3  C   UNL     1       7.271  -4.563  24.325  0.00  0.00    +0.008 A 
ATOM      4  C   UNL     1       7.066  -5.340  25.488  0.00  0.00    +0.056 A 
ATOM      5  C   UNL     1       7.716  -5.020  26.684  0.00  0.00    +0.121 A 
ATOM      6  C   UNL     1       8.532  -3.896  26.740  0.00  0.00    +0.048 A 
ATOM      7  C   UNL     1       6.705  -4.602  23.005  0.00  0.00    -0.020 A 
ATOM      8  C   UNL     1       8.779  -3.119  25.598  0.00  0.00    +0.032 A 
ATOM      9  C   UNL     1       7.345  -3.621  22.274  0.00  0.00    +0.116 A 
ENDROOT
BRANCH   1  10
ATOM     10  S   UNL     1       9.363  -1.830  22.519  0.00  0.00    +0.084 S 
ATOM     11  O   UNL     1      10.665  -2.333  22.921  0.00  0.00    -0.148 OA
ATOM     12  O   UNL     1       9.029  -1.606  21.127  0.00  0.00    -0.148 OA
BRANCH  10  16
ATOM     13  C   UNL     1       8.576   2.060  24.771  0.00  0.00    +0.120 A 
ATOM     14  C   UNL     1       7.505   1.254  24.375  0.00  0.00    +0.047 A 
ATOM     15  C   UNL     1       7.744   0.046  23.715  0.00  0.00    +0.032 A 
ATOM     16  C   UNL     1       9.058  -0.346  23.442  0.00  0.00    +0.111 A 
ATOM     17  C   UNL     1      10.132   0.407  23.925  0.00  0.00    +0.032 A 
ATOM     18  C   UNL     1       9.885   1.608  24.595  0.00  0.00    +0.047 A 
BRANCH  13  20
ATOM     19  C   UNL     1       8.662   4.387  24.501  0.00  0.00    +0.277 C 
ATOM     20  O   UNL     1       8.432   3.280  25.375  0.00  0.00    -0.495 OA
ENDBRANCH  13  20
ENDBRANCH  10  16
ENDBRANCH   1  10
BRANCH   5  21
ATOM     21  O   UNL     1       7.449  -5.870  27.723  0.00  0.00    -0.495 OA
ATOM     22  C   UNL     1       6.155  -5.789  28.306  0.00  0.00    +0.277 C 
ENDBRANCH   5  21
BRANCH   7  23
ATOM     23  C   UNL     1       5.599  -5.518  22.553  0.00  0.00    +0.048 C 
BRANCH  23  24
ATOM     24  C   UNL     1       4.235  -5.261  23.183  0.00  0.00    +0.125 C 
BRANCH  24  25
ATOM     25  C   UNL     1       3.553  -6.543  23.590  0.00  0.00    +0.305 C 
ATOM     26  O   UNL     1       2.354  -6.756  23.514  0.00  0.00    -0.251 OA
BRANCH  25  27
ATOM     27  O   UNL     1       4.422  -7.487  24.021  0.00  0.00    -0.481 OA
ATOM     28  H   UNL     1       4.311  -7.739  24.957  0.00  0.00    +0.295 HD
ENDBRANCH  25  27
ENDBRANCH  24  25
ENDBRANCH  23  24
ENDBRANCH   7  23
TORSDOF 8
ENDMDL
MODEL 3
REMARK VINA RESULT:      -6.9      1.385      1.503
REMARK  Name = 
REMARK  10 active torsions:
REMARK  status: ('A' for Active; 'I' for Inactive)
REMARK    1  A    between atoms: C_1  and  O_2
REMARK    2  A    between atoms: O_2  and  C_3
REMARK    3  A    between atoms: C_6  and  S_9
REMARK    4  A    between atoms: S_9  and  N_12
REMARK    5  A    between atoms: C_14  and  C_15
REMARK    6  A    between atoms: C_15  and  C_16
REMARK    7  A    between atoms: C_16  and  C_17
REMARK    8  A    between atoms: C_17  and  O_18
REMARK    9  A    between atoms: C_22  and  O_23
REMARK   10  A    between atoms: O_23  and  C_24
REMARK                            x       y       z     vdW  Elec       q    Type
REMARK                         _______ _______ _______ _____ _____    ______ ____
ROOT
ATOM      1  N   UNL     1       8.542  -2.942  24.738  0.00  0.00    -0.218 N 
ATOM      2  C   UNL     1       7.569  -1.978  24.857  0.00  0.00    +0.073 A 
ATOM      3  C   UNL     1       8.044  -0.862  24.145  0.00  0.00    +0.008 A 
ATOM      4  C   UNL     1       7.209   0.272  24.024  0.00  0.00    +0.056 A 
ATOM      5  C   UNL     1       5.952   0.301  24.636  0.00  0.00    +0.121 A 
ATOM      6  C   UNL     1       5.542  -0.778  25.411  0.00  0.00    +0.048 A 
ATOM      7  C   UNL     1       9.379  -1.151  23.702  0.00  0.00    -0.020 A 
ATOM      8  C   UNL     1       6.333  -1.931  25.529  0.00  0.00    +0.032 A 
ATOM      9  C   UNL     1       9.640  -2.458  24.065  0.00  0.00    +0.116 A 
ENDROOT
BRANCH   1  10
ATOM     10  S   UNL     1       8.396  -4.595  25.173  0.00  0.00    +0.084 S 
ATOM     11  O   UNL     1       9.507  -5.265  24.521  0.00  0.00    -0.148 OA
ATOM     12  O   UNL     1       8.226  -4.623  26.611  0.00  0.00    -0.148 OA
BRANCH  10  16
ATOM     13  C   UNL     1       4.519  -5.914  23.158  0.00  0.00    +0.120 A 
ATOM     14  C   UNL     1       5.671  -5.716  22.393  0.00  0.00    +0.047 A 
ATOM     15  C   UNL     1       6.868  -5.344  23.010  0.00  0.00    +0.032 A 
ATOM     16  C   UNL     1       6.905  -5.159  24.395  0.00  0.00    +0.111 A 
ATOM     17  C   UNL     1       5.782  -5.454  25.175  0.00  0.00    +0.032 A 
ATOM     18  C   UNL     1       4.592  -5.837  24.551  0.00  0.00    +0.047 A 
BRANCH  13  20
ATOM     19  C   UNL     1       2.203  -5.572  23.279  0.00  0.00    +0.277 C 
ATOM     20  O   UNL     1       3.295  -6.226  22.632  0.00  0.00    -0.495 OA
ENDBRANCH  13  20
ENDBRANCH  10  16
ENDBRANCH   1  10
BRANCH   5  21
ATOM     21  O   UNL     1       5.238   1.449  24.416  0.00  0.00    -0.495 OA
ATOM     22  C   UNL     1       5.857   2.450  23.619  0.00  0.00    +0.277 C 
ENDBRANCH   5  21
BRANCH   7  23
ATOM     23  C   UNL     1      10.304  -0.181  23.016  0.00  0.00    +0.048 C 
BRANCH  23  24
ATOM     24  C   UNL     1      10.618   1.090  23.797  0.00  0.00    +0.125 C 
BRANCH  24  25
ATOM     25  C   UNL     1      10.165   2.327  23.062  0.00  0.00    +0.305 C 
ATOM     26  O   UNL     1       9.799   3.364  23.592  0.00  0.00    -0.251 OA
BRANCH  25  27
ATOM     27  O   UNL     1      10.243   2.199  21.717  0.00  0.00    -0.481 OA
ATOM     28  H   UNL     1       9.647   1.524  21.342  0.00  0.00    +0.295 HD
ENDBRANCH  25  27
ENDBRANCH  24  25
ENDBRANCH  23  24
ENDBRANCH   7  23
TORSDOF 8
ENDMDL
MODEL 4
REMARK VINA RESULT:      -6.9      2.381      4.257
REMARK  Name = 
REMARK  10 active torsions:
REMARK  status: ('A' for Active; 'I' for Inactive)
REMARK    1  A    between atoms: C_1  and  O_2
REMARK    2  A    between atoms: O_2  and  C_3
REMARK    3  A    between atoms: C_6  and  S_9
REMARK    4  A    between atoms: S_9  and  N_12
REMARK    5  A    between atoms: C_14  and  C_15
REMARK    6  A    between atoms: C_15  and  C_16
REMARK    7  A    between atoms: C_16  and  C_17
REMARK    8  A    between atoms: C_17  and  O_18
REMARK    9  A    between atoms: C_22  and  O_23
REMARK   10  A    between atoms: O_23  and  C_24
REMARK                            x       y       z     vdW  Elec       q    Type
REMARK                         _______ _______ _______ _____ _____    ______ ____
ROOT
ATOM      1  N   UNL     1       8.665  -0.885  23.826  0.00  0.00    -0.218 N 
ATOM      2  C   UNL     1       9.222   0.325  23.485  0.00  0.00    +0.073 A 
ATOM      3  C   UNL     1       8.846   1.222  24.501  0.00  0.00    +0.008 A 
ATOM      4  C   UNL     1       9.345   2.543  24.459  0.00  0.00    +0.056 A 
ATOM      5  C   UNL     1      10.163   2.965  23.406  0.00  0.00    +0.121 A 
ATOM      6  C   UNL     1      10.446   2.087  22.365  0.00  0.00    +0.048 A 
ATOM      7  C   UNL     1       7.951   0.538  25.392  0.00  0.00    -0.020 A 
ATOM      8  C   UNL     1       9.991   0.759  22.389  0.00  0.00    +0.032 A 
ATOM      9  C   UNL     1       7.887  -0.771  24.956  0.00  0.00    +0.116 A 
ENDROOT
BRANCH   1  10
ATOM     10  S   UNL     1       9.007  -2.402  23.105  0.00  0.00    +0.084 S 
ATOM     11  O   UNL     1       8.269  -2.411  21.855  0.00  0.00    -0.148 OA
ATOM     12  O   UNL     1      10.448  -2.554  23.141  0.00  0.00    -0.148 OA
BRANCH  10  16
ATOM     13  C   UNL     1       7.045  -5.409  25.923  0.00  0.00    +0.120 A 
ATOM     14  C   UNL     1       6.361  -4.968  24.788  0.00  0.00    +0.047 A 
ATOM     15  C   UNL     1       6.972  -4.072  23.905  0.00  0.00    +0.032 A 
ATOM     16  C   UNL     1       8.264  -3.612  24.170  0.00  0.00    +0.111 A 
ATOM     17  C   UNL     1       8.989  -4.128  25.249  0.00  0.00    +0.032 A 
ATOM     18  C   UNL     1       8.375  -5.032  26.120  0.00  0.00    +0.047 A 
BRANCH  13  20
ATOM     19  C   UNL     1       5.113  -6.501  26.678  0.00  0.00    +0.277 C 
ATOM     20  O   UNL     1       6.505  -6.241  26.866  0.00  0.00    -0.495 OA
ENDBRANCH  13  20
ENDBRANCH  10  16
ENDBRANCH   1  10
BRANCH   5  21
ATOM     21  O   UNL     1      10.598   4.259  23.503  0.00  0.00    -0.495 OA
ATOM     22  C   UNL     1      11.984   4.490  23.288  0.00  0.00    +0.277 C 
ENDBRANCH   5  21
BRANCH   7  23
ATOM     23  C   UNL     1       7.210   1.166  26.541  0.00  0.00    +0.048 C 
BRANCH  23  24
ATOM     24  C   UNL     1       6.034   2.057  26.156  0.00  0.00    +0.125 C 
BRANCH  24  25
ATOM     25  C   UNL     1       4.953   1.283  25.443  0.00  0.00    +0.305 C 
ATOM     26  O   UNL     1       4.430   0.262  25.859  0.00  0.00    -0.251 OA
BRANCH  25  27
ATOM     27  O   UNL     1       4.569   1.863  24.282  0.00  0.00    -0.481 OA
ATOM     28  H   UNL     1       5.171   2.561  23.962  0.00  0.00    +0.295 HD
ENDBRANCH  25  27
ENDBRANCH  24  25
ENDBRANCH  23  24
ENDBRANCH   7  23
TORSDOF 8
ENDMDL
MODEL 5
REMARK VINA RESULT:      -6.7      2.452      7.125
REMARK  Name = 
REMARK  10 active torsions:
REMARK  status: ('A' for Active; 'I' for Inactive)
REMARK    1  A    between atoms: C_1  and  O_2
REMARK    2  A    between atoms: O_2  and  C_3
REMARK    3  A    between atoms: C_6  and  S_9
REMARK    4  A    between atoms: S_9  and  N_12
REMARK    5  A    between atoms: C_14  and  C_15
REMARK    6  A    between atoms: C_15  and  C_16
REMARK    7  A    between atoms: C_16  and  C_17
REMARK    8  A    between atoms: C_17  and  O_18
REMARK    9  A    between atoms: C_22  and  O_23
REMARK   10  A    between atoms: O_23  and  C_24
REMARK                            x       y       z     vdW  Elec       q    Type
REMARK                         _______ _______ _______ _____ _____    ______ ____
ROOT
ATOM      1  N   UNL     1       8.843  -2.632  23.978  0.00  0.00    -0.218 N 
ATOM      2  C   UNL     1       7.748  -3.171  23.344  0.00  0.00    +0.073 A 
ATOM      3  C   UNL     1       7.161  -4.049  24.272  0.00  0.00    +0.008 A 
ATOM      4  C   UNL     1       5.954  -4.697  23.923  0.00  0.00    +0.056 A 
ATOM      5  C   UNL     1       5.377  -4.503  22.664  0.00  0.00    +0.121 A 
ATOM      6  C   UNL     1       6.025  -3.701  21.731  0.00  0.00    +0.048 A 
ATOM      7  C   UNL     1       8.007  -4.107  25.431  0.00  0.00    -0.020 A 
ATOM      8  C   UNL     1       7.209  -3.020  22.053  0.00  0.00    +0.032 A 
ATOM      9  C   UNL     1       9.023  -3.195  25.221  0.00  0.00    +0.116 A 
ENDROOT
BRANCH   1  10
ATOM     10  S   UNL     1       9.783  -1.305  23.435  0.00  0.00    +0.084 S 
ATOM     11  O   UNL     1      10.510  -0.842  24.603  0.00  0.00    -0.148 OA
ATOM     12  O   UNL     1      10.468  -1.754  22.239  0.00  0.00    -0.148 OA
BRANCH  10  16
ATOM     13  C   UNL     1       6.853   2.035  22.390  0.00  0.00    +0.120 A 
ATOM     14  C   UNL     1       7.912   1.741  21.528  0.00  0.00    +0.047 A 
ATOM     15  C   UNL     1       8.792   0.697  21.828  0.00  0.00    +0.032 A 
ATOM     16  C   UNL     1       8.614  -0.043  23.001  0.00  0.00    +0.111 A 
ATOM     17  C   UNL     1       7.499   0.182  23.813  0.00  0.00    +0.032 A 
ATOM     18  C   UNL     1       6.617   1.220  23.499  0.00  0.00    +0.047 A 
BRANCH  13  20
ATOM     19  C   UNL     1       6.465   4.330  22.665  0.00  0.00    +0.277 C 
ATOM     20  O   UNL     1       5.978   3.070  22.201  0.00  0.00    -0.495 OA
ENDBRANCH  13  20
ENDBRANCH  10  16
ENDBRANCH   1  10
BRANCH   5  21
ATOM     21  O   UNL     1       4.197  -5.169  22.468  0.00  0.00    -0.495 OA
ATOM     22  C   UNL     1       3.310  -5.246  23.577  0.00  0.00    +0.277 C 
ENDBRANCH   5  21
BRANCH   7  23
ATOM     23  C   UNL     1       7.819  -5.024  26.609  0.00  0.00    +0.048 C 
BRANCH  23  24
ATOM     24  C   UNL     1       6.606  -4.727  27.485  0.00  0.00    +0.125 C 
BRANCH  24  25
ATOM     25  C   UNL     1       6.134  -5.954  28.224  0.00  0.00    +0.305 C 
ATOM     26  O   UNL     1       5.565  -6.906  27.713  0.00  0.00    -0.251 OA
BRANCH  25  27
ATOM     27  O   UNL     1       6.444  -5.927  29.541  0.00  0.00    -0.481 OA
ATOM     28  H   UNL     1       6.383  -5.044  29.951  0.00  0.00    +0.295 HD
ENDBRANCH  25  27
ENDBRANCH  24  25
ENDBRANCH  23  24
ENDBRANCH   7  23
TORSDOF 8
ENDMDL
MODEL 6
REMARK VINA RESULT:      -6.6      2.301      7.603
REMARK  Name = 
REMARK  10 active torsions:
REMARK  status: ('A' for Active; 'I' for Inactive)
REMARK    1  A    between atoms: C_1  and  O_2
REMARK    2  A    between atoms: O_2  and  C_3
REMARK    3  A    between atoms: C_6  and  S_9
REMARK    4  A    between atoms: S_9  and  N_12
REMARK    5  A    between atoms: C_14  and  C_15
REMARK    6  A    between atoms: C_15  and  C_16
REMARK    7  A    between atoms: C_16  and  C_17
REMARK    8  A    between atoms: C_17  and  O_18
REMARK    9  A    between atoms: C_22  and  O_23
REMARK   10  A    between atoms: O_23  and  C_24
REMARK                            x       y       z     vdW  Elec       q    Type
REMARK                         _______ _______ _______ _____ _____    ______ ____
ROOT
ATOM      1  N   UNL     1       7.300  -4.804  25.733  0.00  0.00    -0.218 N 
ATOM      2  C   UNL     1       6.315  -4.995  24.792  0.00  0.00    +0.073 A 
ATOM      3  C   UNL     1       5.096  -4.895  25.487  0.00  0.00    +0.008 A 
ATOM      4  C   UNL     1       3.890  -4.971  24.754  0.00  0.00    +0.056 A 
ATOM      5  C   UNL     1       3.906  -5.184  23.373  0.00  0.00    +0.121 A 
ATOM      6  C   UNL     1       5.120  -5.371  22.722  0.00  0.00    +0.048 A 
ATOM      7  C   UNL     1       5.389  -4.759  26.886  0.00  0.00    -0.020 A 
ATOM      8  C   UNL     1       6.338  -5.273  23.413  0.00  0.00    +0.032 A 
ATOM      9  C   UNL     1       6.764  -4.679  26.994  0.00  0.00    +0.116 A 
ENDROOT
BRANCH   1  10
ATOM     10  S   UNL     1       8.968  -4.552  25.424  0.00  0.00    +0.084 S 
ATOM     11  O   UNL     1       9.604  -4.534  26.729  0.00  0.00    -0.148 OA
ATOM     12  O   UNL     1       9.342  -5.513  24.406  0.00  0.00    -0.148 OA
BRANCH  10  16
ATOM     13  C   UNL     1       9.379  -0.315  23.777  0.00  0.00    +0.120 A 
ATOM     14  C   UNL     1       9.965  -1.387  23.099  0.00  0.00    +0.047 A 
ATOM     15  C   UNL     1       9.813  -2.690  23.582  0.00  0.00    +0.032 A 
ATOM     16  C   UNL     1       9.083  -2.913  24.753  0.00  0.00    +0.111 A 
ATOM     17  C   UNL     1       8.411  -1.857  25.377  0.00  0.00    +0.032 A 
ATOM     18  C   UNL     1       8.558  -0.560  24.880  0.00  0.00    +0.047 A 
BRANCH  13  20
ATOM     19  C   UNL     1      10.590   1.671  24.067  0.00  0.00    +0.277 C 
ATOM     20  O   UNL     1       9.521   0.994  23.404  0.00  0.00    -0.495 OA
ENDBRANCH  13  20
ENDBRANCH  10  16
ENDBRANCH   1  10
BRANCH   5  21
ATOM     21  O   UNL     1       2.669  -5.209  22.785  0.00  0.00    -0.495 OA
ATOM     22  C   UNL     1       1.807  -6.282  23.145  0.00  0.00    +0.277 C 
ENDBRANCH   5  21
BRANCH   7  23
ATOM     23  C   UNL     1       4.373  -4.752  27.997  0.00  0.00    +0.048 C 
BRANCH  23  24
ATOM     24  C   UNL     1       4.777  -5.506  29.260  0.00  0.00    +0.125 C 
BRANCH  24  25
ATOM     25  C   UNL     1       4.887  -6.990  29.017  0.00  0.00    +0.305 C 
ATOM     26  O   UNL     1       5.928  -7.595  28.821  0.00  0.00    -0.251 OA
BRANCH  25  27
ATOM     27  O   UNL     1       3.692  -7.624  29.081  0.00  0.00    -0.481 OA
ATOM     28  H   UNL     1       3.578  -8.188  29.868  0.00  0.00    +0.295 HD
ENDBRANCH  25  27
ENDBRANCH  24  25
ENDBRANCH  23  24
ENDBRANCH   7  23
TORSDOF 8
ENDMDL
MODEL 7
REMARK VINA RESULT:      -6.5      2.375      4.728
REMARK  Name = 
REMARK  10 active torsions:
REMARK  status: ('A' for Active; 'I' for Inactive)
REMARK    1  A    between atoms: C_1  and  O_2
REMARK    2  A    between atoms: O_2  and  C_3
REMARK    3  A    between atoms: C_6  and  S_9
REMARK    4  A    between atoms: S_9  and  N_12
REMARK    5  A    between atoms: C_14  and  C_15
REMARK    6  A    between atoms: C_15  and  C_16
REMARK    7  A    between atoms: C_16  and  C_17
REMARK    8  A    between atoms: C_17  and  O_18
REMARK    9  A    between atoms: C_22  and  O_23
REMARK   10  A    between atoms: O_23  and  C_24
REMARK                            x       y       z     vdW  Elec       q    Type
REMARK                         _______ _______ _______ _____ _____    ______ ____
ROOT
ATOM      1  N   UNL     1       8.487  -0.967  24.176  0.00  0.00    -0.218 N 
ATOM      2  C   UNL     1       9.063   0.207  23.751  0.00  0.00    +0.073 A 
ATOM      3  C   UNL     1       8.686   1.182  24.691  0.00  0.00    +0.008 A 
ATOM      4  C   UNL     1       9.202   2.491  24.556  0.00  0.00    +0.056 A 
ATOM      5  C   UNL     1      10.038   2.822  23.485  0.00  0.00    +0.121 A 
ATOM      6  C   UNL     1      10.323   1.864  22.517  0.00  0.00    +0.048 A 
ATOM      7  C   UNL     1       7.771   0.578  25.619  0.00  0.00    -0.020 A 
ATOM      8  C   UNL     1       9.851   0.548  22.636  0.00  0.00    +0.032 A 
ATOM      9  C   UNL     1       7.696  -0.759  25.282  0.00  0.00    +0.116 A 
ENDROOT
BRANCH   1  10
ATOM     10  S   UNL     1       8.819  -2.539  23.576  0.00  0.00    +0.084 S 
ATOM     11  O   UNL     1       8.121  -2.623  22.305  0.00  0.00    -0.148 OA
ATOM     12  O   UNL     1      10.254  -2.716  23.671  0.00  0.00    -0.148 OA
BRANCH  10  16
ATOM     13  C   UNL     1       6.809  -5.515  26.392  0.00  0.00    +0.120 A 
ATOM     14  C   UNL     1       8.067  -4.997  26.708  0.00  0.00    +0.047 A 
ATOM     15  C   UNL     1       8.671  -4.059  25.864  0.00  0.00    +0.032 A 
ATOM     16  C   UNL     1       8.016  -3.654  24.698  0.00  0.00    +0.111 A 
ATOM     17  C   UNL     1       6.716  -4.094  24.431  0.00  0.00    +0.032 A 
ATOM     18  C   UNL     1       6.114  -5.021  25.286  0.00  0.00    +0.047 A 
BRANCH  13  20
ATOM     19  C   UNL     1       6.077  -6.162  28.523  0.00  0.00    +0.277 C 
ATOM     20  O   UNL     1       6.169  -6.473  27.132  0.00  0.00    -0.495 OA
ENDBRANCH  13  20
ENDBRANCH  10  16
ENDBRANCH   1  10
BRANCH   5  21
ATOM     21  O   UNL     1      10.488   4.115  23.490  0.00  0.00    -0.495 OA
ATOM     22  C   UNL     1      11.883   4.312  23.296  0.00  0.00    +0.277 C 
ENDBRANCH   5  21
BRANCH   7  23
ATOM     23  C   UNL     1       7.024   1.300  26.708  0.00  0.00    +0.048 C 
BRANCH  23  24
ATOM     24  C   UNL     1       7.012   0.606  28.066  0.00  0.00    +0.125 C 
BRANCH  24  25
ATOM     25  C   UNL     1       7.325   1.563  29.189  0.00  0.00    +0.305 C 
ATOM     26  O   UNL     1       7.452   1.252  30.362  0.00  0.00    -0.251 OA
BRANCH  25  27
ATOM     27  O   UNL     1       7.502   2.836  28.762  0.00  0.00    -0.481 OA
ATOM     28  H   UNL     1       6.969   3.498  29.240  0.00  0.00    +0.295 HD
ENDBRANCH  25  27
ENDBRANCH  24  25
ENDBRANCH  23  24
ENDBRANCH   7  23
TORSDOF 8
ENDMDL
MODEL 8
REMARK VINA RESULT:      -6.4      2.698      6.930
REMARK  Name = 
REMARK  10 active torsions:
REMARK  status: ('A' for Active; 'I' for Inactive)
REMARK    1  A    between atoms: C_1  and  O_2
REMARK    2  A    between atoms: O_2  and  C_3
REMARK    3  A    between atoms: C_6  and  S_9
REMARK    4  A    between atoms: S_9  and  N_12
REMARK    5  A    between atoms: C_14  and  C_15
REMARK    6  A    between atoms: C_15  and  C_16
REMARK    7  A    between atoms: C_16  and  C_17
REMARK    8  A    between atoms: C_17  and  O_18
REMARK    9  A    between atoms: C_22  and  O_23
REMARK   10  A    between atoms: O_23  and  C_24
REMARK                            x       y       z     vdW  Elec       q    Type
REMARK                         _______ _______ _______ _____ _____    ______ ____
ROOT
ATOM      1  N   UNL     1       8.197  -1.628  23.220  0.00  0.00    -0.218 N 
ATOM      2  C   UNL     1       7.098  -1.506  24.037  0.00  0.00    +0.073 A 
ATOM      3  C   UNL     1       6.240  -2.565  23.688  0.00  0.00    +0.008 A 
ATOM      4  C   UNL     1       5.048  -2.743  24.426  0.00  0.00    +0.056 A 
ATOM      5  C   UNL     1       4.706  -1.860  25.455  0.00  0.00    +0.121 A 
ATOM      6  C   UNL     1       5.525  -0.768  25.721  0.00  0.00    +0.048 A 
ATOM      7  C   UNL     1       6.809  -3.247  22.559  0.00  0.00    -0.020 A 
ATOM      8  C   UNL     1       6.730  -0.577  25.027  0.00  0.00    +0.032 A 
ATOM      9  C   UNL     1       8.033  -2.654  22.317  0.00  0.00    +0.116 A 
ENDROOT
BRANCH   1  10
ATOM     10  S   UNL     1       9.681  -0.782  23.376  0.00  0.00    +0.084 S 
ATOM     11  O   UNL     1      10.117  -1.015  24.741  0.00  0.00    -0.148 OA
ATOM     12  O   UNL     1      10.491  -1.171  22.239  0.00  0.00    -0.148 OA
BRANCH  10  16
ATOM     13  C   UNL     1       8.496   3.617  23.102  0.00  0.00    +0.120 A 
ATOM     14  C   UNL     1       9.402   3.198  24.079  0.00  0.00    +0.047 A 
ATOM     15  C   UNL     1       9.793   1.857  24.145  0.00  0.00    +0.032 A 
ATOM     16  C   UNL     1       9.263   0.937  23.236  0.00  0.00    +0.111 A 
ATOM     17  C   UNL     1       8.436   1.370  22.196  0.00  0.00    +0.032 A 
ATOM     18  C   UNL     1       8.060   2.714  22.130  0.00  0.00    +0.047 A 
BRANCH  13  20
ATOM     19  C   UNL     1       6.663   4.974  22.558  0.00  0.00    +0.277 C 
ATOM     20  O   UNL     1       8.021   4.896  22.998  0.00  0.00    -0.495 OA
ENDBRANCH  13  20
ENDBRANCH  10  16
ENDBRANCH   1  10
BRANCH   5  21
ATOM     21  O   UNL     1       3.540  -2.165  26.104  0.00  0.00    -0.495 OA
ATOM     22  C   UNL     1       2.792  -3.265  25.601  0.00  0.00    +0.277 C 
ENDBRANCH   5  21
BRANCH   7  23
ATOM     23  C   UNL     1       6.152  -4.359  21.786  0.00  0.00    +0.048 C 
BRANCH  23  24
ATOM     24  C   UNL     1       6.144  -5.720  22.474  0.00  0.00    +0.125 C 
BRANCH  24  25
ATOM     25  C   UNL     1       4.767  -6.094  22.962  0.00  0.00    +0.305 C 
ATOM     26  O   UNL     1       3.746  -5.464  22.735  0.00  0.00    -0.251 OA
BRANCH  25  27
ATOM     27  O   UNL     1       4.753  -7.252  23.662  0.00  0.00    -0.481 OA
ATOM     28  H   UNL     1       5.331  -7.254  24.448  0.00  0.00    +0.295 HD
ENDBRANCH  25  27
ENDBRANCH  24  25
ENDBRANCH  23  24
ENDBRANCH   7  23
TORSDOF 8
ENDMDL
MODEL 9
REMARK VINA RESULT:      -6.4      1.496      3.923
REMARK  Name = 
REMARK  10 active torsions:
REMARK  status: ('A' for Active; 'I' for Inactive)
REMARK    1  A    between atoms: C_1  and  O_2
REMARK    2  A    between atoms: O_2  and  C_3
REMARK    3  A    between atoms: C_6  and  S_9
REMARK    4  A    between atoms: S_9  and  N_12
REMARK    5  A    between atoms: C_14  and  C_15
REMARK    6  A    between atoms: C_15  and  C_16
REMARK    7  A    between atoms: C_16  and  C_17
REMARK    8  A    between atoms: C_17  and  O_18
REMARK    9  A    between atoms: C_22  and  O_23
REMARK   10  A    between atoms: O_23  and  C_24
REMARK                            x       y       z     vdW  Elec       q    Type
REMARK                         _______ _______ _______ _____ _____    ______ ____
ROOT
ATOM      1  N   UNL     1       8.525  -2.132  25.302  0.00  0.00    -0.218 N 
ATOM      2  C   UNL     1       9.039  -1.247  24.384  0.00  0.00    +0.073 A 
ATOM      3  C   UNL     1       8.771   0.035  24.894  0.00  0.00    +0.008 A 
ATOM      4  C   UNL     1       9.259   1.161  24.193  0.00  0.00    +0.056 A 
ATOM      5  C   UNL     1       9.958   1.006  22.992  0.00  0.00    +0.121 A 
ATOM      6  C   UNL     1      10.132  -0.267  22.460  0.00  0.00    +0.048 A 
ATOM      7  C   UNL     1       7.978  -0.114  26.083  0.00  0.00    -0.020 A 
ATOM      8  C   UNL     1       9.685  -1.408  23.144  0.00  0.00    +0.032 A 
ATOM      9  C   UNL     1       7.872  -1.471  26.316  0.00  0.00    +0.116 A 
ENDROOT
BRANCH   1  10
ATOM     10  S   UNL     1       8.793  -3.826  25.343  0.00  0.00    +0.084 S 
ATOM     11  O   UNL     1       9.970  -4.051  24.523  0.00  0.00    -0.148 OA
ATOM     12  O   UNL     1       8.750  -4.209  26.740  0.00  0.00    -0.148 OA
BRANCH  10  16
ATOM     13  C   UNL     1       5.193  -5.546  23.126  0.00  0.00    +0.120 A 
ATOM     14  C   UNL     1       6.419  -5.415  22.470  0.00  0.00    +0.047 A 
ATOM     15  C   UNL     1       7.533  -4.920  23.155  0.00  0.00    +0.032 A 
ATOM     16  C   UNL     1       7.409  -4.545  24.496  0.00  0.00    +0.111 A 
ATOM     17  C   UNL     1       6.212  -4.768  25.183  0.00  0.00    +0.032 A 
ATOM     18  C   UNL     1       5.108  -5.276  24.494  0.00  0.00    +0.047 A 
BRANCH  13  20
ATOM     19  C   UNL     1       2.852  -5.616  23.224  0.00  0.00    +0.277 C 
ATOM     20  O   UNL     1       4.043  -5.972  22.519  0.00  0.00    -0.495 OA
ENDBRANCH  13  20
ENDBRANCH  10  16
ENDBRANCH   1  10
BRANCH   5  21
ATOM     21  O   UNL     1      10.398   2.176  22.432  0.00  0.00    -0.495 OA
ATOM     22  C   UNL     1      10.826   3.196  23.326  0.00  0.00    +0.277 C 
ENDBRANCH   5  21
BRANCH   7  23
ATOM     23  C   UNL     1       7.363   1.010  26.872  0.00  0.00    +0.048 C 
BRANCH  23  24
ATOM     24  C   UNL     1       7.021   0.683  28.322  0.00  0.00    +0.125 C 
BRANCH  24  25
ATOM     25  C   UNL     1       7.672   1.646  29.283  0.00  0.00    +0.305 C 
ATOM     26  O   UNL     1       7.409   2.834  29.374  0.00  0.00    -0.251 OA
BRANCH  25  27
ATOM     27  O   UNL     1       8.575   1.048  30.095  0.00  0.00    -0.481 OA
ATOM     28  H   UNL     1       8.225   0.797  30.971  0.00  0.00    +0.295 HD
ENDBRANCH  25  27
ENDBRANCH  24  25
ENDBRANCH  23  24
ENDBRANCH   7  23
TORSDOF 8
ENDMDL
